MODEL 1
REMARK VINA RESULT:     -10.2      0.000      0.000
REMARK  4 active torsions:
REMARK  status: ('A' for Active; 'I' for Inactive)
REMARK       I    between atoms: C12_17  and  N2_5 
REMARK    1  A    between atoms: C6_11  and  N2_5 
REMARK    2  A    between atoms: C1_6  and  C2_7 
REMARK    3  A    between atoms: C2_7  and  C6_11 
REMARK    4  A    between atoms: C12_17  and  C13_18 
ROOT
HETATM    1  O2  UNK     1      17.955   2.592  28.514  1.00  0.00    -0.267 OA
HETATM    2  N2  UNK     1      19.005   3.852  30.169  1.00  0.00    -0.356 N 
HETATM    3  C12 UNK     1      18.575   2.682  29.571  1.00  0.00     0.257 C 
HETATM    4  H11 UNK     1      19.485   3.822  31.063  1.00  0.00     0.162 HD
ENDROOT
BRANCH   2   5
HETATM    5  C6  UNK     1      18.769   5.160  29.602  1.00  0.00     0.127 C 
BRANCH   5   6
HETATM    6  C2  UNK     1      19.652   6.238  30.225  1.00  0.00     0.061 C 
BRANCH   6   7
HETATM    7  C1  UNK     1      19.390   6.435  31.698  1.00  0.00    -0.022 A 
HETATM    8  C3  UNK     1      18.138   6.722  32.267  1.00  0.00    -0.001 A 
HETATM    9  C5  UNK     1      18.353   6.822  33.644  1.00  0.00     0.043 A 
HETATM   10  C7  UNK     1      16.833   6.910  31.769  1.00  0.00     0.014 A 
HETATM   11  N1  UNK     1      19.694   6.598  33.861  1.00  0.00    -0.359 N 
HETATM   12  C9  UNK     1      17.325   7.102  34.550  1.00  0.00     0.030 A 
HETATM   13  C4  UNK     1      20.332   6.361  32.674  1.00  0.00     0.013 A 
HETATM   14  H5  UNK     1      20.138   6.609  34.769  1.00  0.00     0.166 HD
HETATM   15  C8  UNK     1      21.783   6.092  32.630  1.00  0.00     0.068 C 
HETATM   16  C11 UNK     1      16.039   7.285  34.033  1.00  0.00     0.002 A 
HETATM   17  C10 UNK     1      15.795   7.192  32.664  1.00  0.00     0.001 A 
ENDBRANCH   6   7
ENDBRANCH   5   6
ENDBRANCH   2   5
BRANCH   3  18
HETATM   18  C13 UNK     1      18.937   1.483  30.336  1.00  0.00     0.108 A 
HETATM   19  C15 UNK     1      19.566   0.516  29.658  1.00  0.00     0.037 A 
HETATM   20  C14 UNK     1      19.964  -0.712  30.330  1.00  0.00    -0.001 A 
HETATM   21  C16 UNK     1      19.681  -0.861  31.683  1.00  0.00     0.089 A 
HETATM   22  C18 UNK     1      20.624  -1.747  29.662  1.00  0.00     0.014 A 
HETATM   23  O1  UNK     1      19.018   0.161  32.392  1.00  0.00    -0.274 OA
HETATM   24  C19 UNK     1      20.034  -2.011  32.385  1.00  0.00     0.038 A 
HETATM   25  C17 UNK     1      18.625   1.346  31.777  1.00  0.00     0.304 A 
HETATM   26  O3  UNK     1      18.047   2.229  32.402  1.00  0.00    -0.259 OA
HETATM   27  C21 UNK     1      20.691  -3.039  31.711  1.00  0.00     0.003 A 
HETATM   28  C20 UNK     1      20.985  -2.907  30.352  1.00  0.00     0.001 A 
ENDBRANCH   3  18
TORSDOF 4
ENDMDL
MODEL 2
REMARK VINA RESULT:      -9.9      1.512      2.493
REMARK  4 active torsions:
REMARK  status: ('A' for Active; 'I' for Inactive)
REMARK       I    between atoms: C12_17  and  N2_5 
REMARK    1  A    between atoms: C6_11  and  N2_5 
REMARK    2  A    between atoms: C1_6  and  C2_7 
REMARK    3  A    between atoms: C2_7  and  C6_11 
REMARK    4  A    between atoms: C12_17  and  C13_18 
ROOT
HETATM    1  O2  UNK     1      17.506   3.716  31.954  1.00  0.00    -0.267 OA
HETATM    2  N2  UNK     1      18.978   4.746  30.469  1.00  0.00    -0.356 N 
HETATM    3  C12 UNK     1      18.335   3.667  31.047  1.00  0.00     0.257 C 
HETATM    4  H11 UNK     1      19.673   4.597  29.744  1.00  0.00     0.162 HD
ENDROOT
BRANCH   2   5
HETATM    5  C6  UNK     1      18.746   6.113  30.876  1.00  0.00     0.127 C 
BRANCH   5   6
HETATM    6  C2  UNK     1      19.138   6.367  32.329  1.00  0.00     0.061 C 
BRANCH   6   7
HETATM    7  C1  UNK     1      18.264   7.396  33.003  1.00  0.00    -0.022 A 
HETATM    8  C3  UNK     1      16.871   7.500  32.853  1.00  0.00    -0.001 A 
HETATM    9  C5  UNK     1      16.475   8.578  33.647  1.00  0.00     0.043 A 
HETATM   10  C7  UNK     1      15.889   6.796  32.126  1.00  0.00     0.014 A 
HETATM   11  N1  UNK     1      17.612   9.082  34.239  1.00  0.00    -0.359 N 
HETATM   12  C9  UNK     1      15.143   8.991  33.752  1.00  0.00     0.030 A 
HETATM   13  C4  UNK     1      18.708   8.362  33.848  1.00  0.00     0.013 A 
HETATM   14  H5  UNK     1      17.628   9.871  34.871  1.00  0.00     0.166 HD
HETATM   15  C8  UNK     1      20.057   8.699  34.343  1.00  0.00     0.068 C 
HETATM   16  C11 UNK     1      14.186   8.277  33.022  1.00  0.00     0.002 A 
HETATM   17  C10 UNK     1      14.551   7.198  32.221  1.00  0.00     0.001 A 
ENDBRANCH   6   7
ENDBRANCH   5   6
ENDBRANCH   2   5
BRANCH   3  18
HETATM   18  C13 UNK     1      18.736   2.382  30.463  1.00  0.00     0.108 A 
HETATM   19  C15 UNK     1      19.261   1.486  31.307  1.00  0.00     0.037 A 
HETATM   20  C14 UNK     1      19.689   0.183  30.820  1.00  0.00    -0.001 A 
HETATM   21  C16 UNK     1      19.545  -0.111  29.469  1.00  0.00     0.089 A 
HETATM   22  C18 UNK     1      20.241  -0.783  31.665  1.00  0.00     0.014 A 
HETATM   23  O1  UNK     1      18.992   0.837  28.585  1.00  0.00    -0.274 OA
HETATM   24  C19 UNK     1      19.936  -1.339  28.939  1.00  0.00     0.038 A 
HETATM   25  C17 UNK     1      18.573   2.090  29.020  1.00  0.00     0.304 A 
HETATM   26  O3  UNK     1      18.095   2.910  28.243  1.00  0.00    -0.259 OA
HETATM   27  C21 UNK     1      20.485  -2.297  29.788  1.00  0.00     0.003 A 
HETATM   28  C20 UNK     1      20.638  -2.020  31.149  1.00  0.00     0.001 A 
ENDBRANCH   3  18
TORSDOF 4
ENDMDL
MODEL 3
REMARK VINA RESULT:      -9.6      2.329      3.471
REMARK  4 active torsions:
REMARK  status: ('A' for Active; 'I' for Inactive)
REMARK       I    between atoms: C12_17  and  N2_5 
REMARK    1  A    between atoms: C6_11  and  N2_5 
REMARK    2  A    between atoms: C1_6  and  C2_7 
REMARK    3  A    between atoms: C2_7  and  C6_11 
REMARK    4  A    between atoms: C12_17  and  C13_18 
ROOT
HETATM    1  O2  UNK     1      18.760   4.715  30.256  1.00  0.00    -0.267 OA
HETATM    2  N2  UNK     1      17.533   4.549  32.230  1.00  0.00    -0.356 N 
HETATM    3  C12 UNK     1      18.330   4.067  31.209  1.00  0.00     0.257 C 
HETATM    4  H11 UNK     1      17.203   3.923  32.959  1.00  0.00     0.162 HD
ENDROOT
BRANCH   2   5
HETATM    5  C6  UNK     1      17.090   5.922  32.304  1.00  0.00     0.127 C 
BRANCH   5   6
HETATM    6  C2  UNK     1      17.205   6.501  33.712  1.00  0.00     0.061 C 
BRANCH   6   7
HETATM    7  C1  UNK     1      16.618   7.886  33.829  1.00  0.00    -0.022 A 
HETATM    8  C3  UNK     1      17.360   9.075  33.937  1.00  0.00    -0.001 A 
HETATM    9  C5  UNK     1      16.425  10.108  34.021  1.00  0.00     0.043 A 
HETATM   10  C7  UNK     1      18.732   9.396  33.973  1.00  0.00     0.014 A 
HETATM   11  N1  UNK     1      15.177   9.530  33.963  1.00  0.00    -0.359 N 
HETATM   12  C9  UNK     1      16.793  11.452  34.141  1.00  0.00     0.030 A 
HETATM   13  C4  UNK     1      15.290   8.170  33.846  1.00  0.00     0.013 A 
HETATM   14  H5  UNK     1      14.305  10.040  34.003  1.00  0.00     0.166 HD
HETATM   15  C8  UNK     1      14.093   7.311  33.765  1.00  0.00     0.068 C 
HETATM   16  C11 UNK     1      18.160  11.748  34.175  1.00  0.00     0.002 A 
HETATM   17  C10 UNK     1      19.115  10.737  34.093  1.00  0.00     0.001 A 
ENDBRANCH   6   7
ENDBRANCH   5   6
ENDBRANCH   2   5
BRANCH   3  18
HETATM   18  C13 UNK     1      18.649   2.642  31.355  1.00  0.00     0.108 A 
HETATM   19  C15 UNK     1      19.188   2.044  30.287  1.00  0.00     0.037 A 
HETATM   20  C14 UNK     1      19.538   0.632  30.336  1.00  0.00    -0.001 A 
HETATM   21  C16 UNK     1      19.301  -0.080  31.507  1.00  0.00     0.089 A 
HETATM   22  C18 UNK     1      20.104  -0.033  29.246  1.00  0.00     0.014 A 
HETATM   23  O1  UNK     1      18.732   0.556  32.629  1.00  0.00    -0.274 OA
HETATM   24  C19 UNK     1      19.612  -1.433  31.619  1.00  0.00     0.038 A 
HETATM   25  C17 UNK     1      18.388   1.904  32.612  1.00  0.00     0.304 A 
HETATM   26  O3  UNK     1      17.891   2.449  33.593  1.00  0.00    -0.259 OA
HETATM   27  C21 UNK     1      20.176  -2.090  30.527  1.00  0.00     0.003 A 
HETATM   28  C20 UNK     1      20.422  -1.391  29.343  1.00  0.00     0.001 A 
ENDBRANCH   3  18
TORSDOF 4
ENDMDL
MODEL 4
REMARK VINA RESULT:      -9.5      6.914     12.410
REMARK  4 active torsions:
REMARK  status: ('A' for Active; 'I' for Inactive)
REMARK       I    between atoms: C12_17  and  N2_5 
REMARK    1  A    between atoms: C6_11  and  N2_5 
REMARK    2  A    between atoms: C1_6  and  C2_7 
REMARK    3  A    between atoms: C2_7  and  C6_11 
REMARK    4  A    between atoms: C12_17  and  C13_18 
ROOT
HETATM    1  O2  UNK     1      20.550  -4.629  36.805  1.00  0.00    -0.267 OA
HETATM    2  N2  UNK     1      18.231  -4.832  36.691  1.00  0.00    -0.356 N 
HETATM    3  C12 UNK     1      19.432  -4.150  36.626  1.00  0.00     0.257 C 
HETATM    4  H11 UNK     1      17.355  -4.337  36.558  1.00  0.00     0.162 HD
ENDROOT
BRANCH   2   5
HETATM    5  C6  UNK     1      18.140  -6.243  36.991  1.00  0.00     0.127 C 
BRANCH   5   6
HETATM    6  C2  UNK     1      18.124  -7.110  35.735  1.00  0.00     0.061 C 
BRANCH   6   7
HETATM    7  C1  UNK     1      19.380  -7.930  35.569  1.00  0.00    -0.022 A 
HETATM    8  C3  UNK     1      19.709  -9.068  36.323  1.00  0.00    -0.001 A 
HETATM    9  C5  UNK     1      20.945  -9.507  35.842  1.00  0.00     0.043 A 
HETATM   10  C7  UNK     1      19.096  -9.786  37.371  1.00  0.00     0.014 A 
HETATM   11  N1  UNK     1      21.316  -8.643  34.836  1.00  0.00    -0.359 N 
HETATM   12  C9  UNK     1      21.601 -10.630  36.356  1.00  0.00     0.030 A 
HETATM   13  C4  UNK     1      20.362  -7.676  34.666  1.00  0.00     0.013 A 
HETATM   14  H5  UNK     1      22.172  -8.715  34.304  1.00  0.00     0.166 HD
HETATM   15  C8  UNK     1      20.519  -6.622  33.646  1.00  0.00     0.068 C 
HETATM   16  C11 UNK     1      20.973 -11.326  37.395  1.00  0.00     0.002 A 
HETATM   17  C10 UNK     1      19.741 -10.911  37.896  1.00  0.00     0.001 A 
ENDBRANCH   6   7
ENDBRANCH   5   6
ENDBRANCH   2   5
BRANCH   3  18
HETATM   18  C13 UNK     1      19.265  -2.728  36.303  1.00  0.00     0.108 A 
HETATM   19  C15 UNK     1      18.562  -2.001  37.180  1.00  0.00     0.037 A 
HETATM   20  C14 UNK     1      18.342  -0.582  36.946  1.00  0.00    -0.001 A 
HETATM   21  C16 UNK     1      18.873   0.002  35.801  1.00  0.00     0.089 A 
HETATM   22  C18 UNK     1      17.615   0.215  37.834  1.00  0.00     0.014 A 
HETATM   23  O1  UNK     1      19.612  -0.769  34.882  1.00  0.00    -0.274 OA
HETATM   24  C19 UNK     1      18.698   1.355  35.518  1.00  0.00     0.038 A 
HETATM   25  C17 UNK     1      19.839  -2.128  35.078  1.00  0.00     0.304 A 
HETATM   26  O3  UNK     1      20.483  -2.791  34.271  1.00  0.00    -0.259 OA
HETATM   27  C21 UNK     1      17.972   2.143  36.409  1.00  0.00     0.003 A 
HETATM   28  C20 UNK     1      17.431   1.574  37.565  1.00  0.00     0.001 A 
ENDBRANCH   3  18
TORSDOF 4
ENDMDL
MODEL 5
REMARK VINA RESULT:      -9.5      1.824      3.134
REMARK  4 active torsions:
REMARK  status: ('A' for Active; 'I' for Inactive)
REMARK       I    between atoms: C12_17  and  N2_5 
REMARK    1  A    between atoms: C6_11  and  N2_5 
REMARK    2  A    between atoms: C1_6  and  C2_7 
REMARK    3  A    between atoms: C2_7  and  C6_11 
REMARK    4  A    between atoms: C12_17  and  C13_18 
ROOT
HETATM    1  O2  UNK     1      17.215   3.154  31.623  1.00  0.00    -0.267 OA
HETATM    2  N2  UNK     1      19.058   4.176  30.628  1.00  0.00    -0.356 N 
HETATM    3  C12 UNK     1      18.258   3.103  30.974  1.00  0.00     0.257 C 
HETATM    4  H11 UNK     1      19.920   4.025  30.114  1.00  0.00     0.162 HD
ENDROOT
BRANCH   2   5
HETATM    5  C6  UNK     1      18.755   5.538  31.002  1.00  0.00     0.127 C 
BRANCH   5   6
HETATM    6  C2  UNK     1      18.216   5.650  32.426  1.00  0.00     0.061 C 
BRANCH   6   7
HETATM    7  C1  UNK     1      17.786   7.051  32.784  1.00  0.00    -0.022 A 
HETATM    8  C3  UNK     1      18.608   8.024  33.379  1.00  0.00    -0.001 A 
HETATM    9  C5  UNK     1      17.812   9.161  33.532  1.00  0.00     0.043 A 
HETATM   10  C7  UNK     1      19.949   8.071  33.810  1.00  0.00     0.014 A 
HETATM   11  N1  UNK     1      16.565   8.851  33.038  1.00  0.00    -0.359 N 
HETATM   12  C9  UNK     1      18.291  10.348  34.096  1.00  0.00     0.030 A 
HETATM   13  C4  UNK     1      16.544   7.561  32.579  1.00  0.00     0.013 A 
HETATM   14  H5  UNK     1      15.780   9.488  33.019  1.00  0.00     0.166 HD
HETATM   15  C8  UNK     1      15.320   6.979  31.997  1.00  0.00     0.068 C 
HETATM   16  C11 UNK     1      19.624  10.372  34.517  1.00  0.00     0.002 A 
HETATM   17  C10 UNK     1      20.442   9.252  34.378  1.00  0.00     0.001 A 
ENDBRANCH   6   7
ENDBRANCH   5   6
ENDBRANCH   2   5
BRANCH   3  18
HETATM   18  C13 UNK     1      18.773   1.822  30.478  1.00  0.00     0.108 A 
HETATM   19  C15 UNK     1      19.242   0.975  31.401  1.00  0.00     0.037 A 
HETATM   20  C14 UNK     1      19.775  -0.320  31.006  1.00  0.00    -0.001 A 
HETATM   21  C16 UNK     1      19.787  -0.659  29.657  1.00  0.00     0.089 A 
HETATM   22  C18 UNK     1      20.275  -1.236  31.935  1.00  0.00     0.014 A 
HETATM   23  O1  UNK     1      19.292   0.237  28.689  1.00  0.00    -0.274 OA
HETATM   24  C19 UNK     1      20.284  -1.883  29.212  1.00  0.00     0.038 A 
HETATM   25  C17 UNK     1      18.776   1.481  29.037  1.00  0.00     0.304 A 
HETATM   26  O3  UNK     1      18.348   2.256  28.187  1.00  0.00    -0.259 OA
HETATM   27  C21 UNK     1      20.781  -2.790  30.145  1.00  0.00     0.003 A 
HETATM   28  C20 UNK     1      20.776  -2.467  31.504  1.00  0.00     0.001 A 
ENDBRANCH   3  18
TORSDOF 4
ENDMDL
MODEL 6
REMARK VINA RESULT:      -9.5      2.060      2.777
REMARK  4 active torsions:
REMARK  status: ('A' for Active; 'I' for Inactive)
REMARK       I    between atoms: C12_17  and  N2_5 
REMARK    1  A    between atoms: C6_11  and  N2_5 
REMARK    2  A    between atoms: C1_6  and  C2_7 
REMARK    3  A    between atoms: C2_7  and  C6_11 
REMARK    4  A    between atoms: C12_17  and  C13_18 
ROOT
HETATM    1  O2  UNK     1      18.714   4.708  30.234  1.00  0.00    -0.267 OA
HETATM    2  N2  UNK     1      17.556   4.538  32.249  1.00  0.00    -0.356 N 
HETATM    3  C12 UNK     1      18.321   4.059  31.201  1.00  0.00     0.257 C 
HETATM    4  H11 UNK     1      17.254   3.911  32.989  1.00  0.00     0.162 HD
ENDROOT
BRANCH   2   5
HETATM    5  C6  UNK     1      17.109   5.909  32.338  1.00  0.00     0.127 C 
BRANCH   5   6
HETATM    6  C2  UNK     1      17.053   6.416  33.776  1.00  0.00     0.061 C 
BRANCH   6   7
HETATM    7  C1  UNK     1      17.267   7.906  33.884  1.00  0.00    -0.022 A 
HETATM    8  C3  UNK     1      16.245   8.867  33.969  1.00  0.00    -0.001 A 
HETATM    9  C5  UNK     1      16.885  10.106  34.052  1.00  0.00     0.043 A 
HETATM   10  C7  UNK     1      14.836   8.829  33.986  1.00  0.00     0.014 A 
HETATM   11  N1  UNK     1      18.240   9.864  34.016  1.00  0.00    -0.359 N 
HETATM   12  C9  UNK     1      16.185  11.313  34.151  1.00  0.00     0.030 A 
HETATM   13  C4  UNK     1      18.478   8.520  33.912  1.00  0.00     0.013 A 
HETATM   14  H5  UNK     1      18.952  10.580  34.058  1.00  0.00     0.166 HD
HETATM   15  C8  UNK     1      19.855   7.993  33.854  1.00  0.00     0.068 C 
HETATM   16  C11 UNK     1      14.788  11.250  34.165  1.00  0.00     0.002 A 
HETATM   17  C10 UNK     1      14.122  10.029  34.083  1.00  0.00     0.001 A 
ENDBRANCH   6   7
ENDBRANCH   5   6
ENDBRANCH   2   5
BRANCH   3  18
HETATM   18  C13 UNK     1      18.651   2.636  31.338  1.00  0.00     0.108 A 
HETATM   19  C15 UNK     1      19.177   2.045  30.259  1.00  0.00     0.037 A 
HETATM   20  C14 UNK     1      19.536   0.635  30.297  1.00  0.00    -0.001 A 
HETATM   21  C16 UNK     1      19.323  -0.082  31.469  1.00  0.00     0.089 A 
HETATM   22  C18 UNK     1      20.088  -0.023  29.195  1.00  0.00     0.014 A 
HETATM   23  O1  UNK     1      18.769   0.546  32.602  1.00  0.00    -0.274 OA
HETATM   24  C19 UNK     1      19.644  -1.434  31.571  1.00  0.00     0.038 A 
HETATM   25  C17 UNK     1      18.416   1.892  32.596  1.00  0.00     0.304 A 
HETATM   26  O3  UNK     1      17.932   2.430  33.587  1.00  0.00    -0.259 OA
HETATM   27  C21 UNK     1      20.194  -2.083  30.468  1.00  0.00     0.003 A 
HETATM   28  C20 UNK     1      20.416  -1.379  29.282  1.00  0.00     0.001 A 
ENDBRANCH   3  18
TORSDOF 4
ENDMDL
MODEL 7
REMARK VINA RESULT:      -9.5      6.177      9.664
REMARK  4 active torsions:
REMARK  status: ('A' for Active; 'I' for Inactive)
REMARK       I    between atoms: C12_17  and  N2_5 
REMARK    1  A    between atoms: C6_11  and  N2_5 
REMARK    2  A    between atoms: C1_6  and  C2_7 
REMARK    3  A    between atoms: C2_7  and  C6_11 
REMARK    4  A    between atoms: C12_17  and  C13_18 
ROOT
HETATM    1  O2  UNK     1      17.149  -5.921  36.810  1.00  0.00    -0.267 OA
HETATM    2  N2  UNK     1      18.913  -4.421  36.545  1.00  0.00    -0.356 N 
HETATM    3  C12 UNK     1      18.324  -5.672  36.551  1.00  0.00     0.257 C 
HETATM    4  H11 UNK     1      19.903  -4.324  36.347  1.00  0.00     0.162 HD
ENDROOT
BRANCH   2   5
HETATM    5  C6  UNK     1      18.191  -3.209  36.857  1.00  0.00     0.127 C 
BRANCH   5   6
HETATM    6  C2  UNK     1      19.007  -1.950  36.574  1.00  0.00     0.061 C 
BRANCH   6   7
HETATM    7  C1  UNK     1      18.696  -1.336  35.231  1.00  0.00    -0.022 A 
HETATM    8  C3  UNK     1      19.382  -1.612  34.036  1.00  0.00    -0.001 A 
HETATM    9  C5  UNK     1      18.770  -0.834  33.051  1.00  0.00     0.043 A 
HETATM   10  C7  UNK     1      20.463  -2.440  33.672  1.00  0.00     0.014 A 
HETATM   11  N1  UNK     1      17.758  -0.129  33.664  1.00  0.00    -0.359 N 
HETATM   12  C9  UNK     1      19.186  -0.842  31.716  1.00  0.00     0.030 A 
HETATM   13  C4  UNK     1      17.710  -0.433  34.998  1.00  0.00     0.013 A 
HETATM   14  H5  UNK     1      17.143   0.520  33.192  1.00  0.00     0.166 HD
HETATM   15  C8  UNK     1      16.710   0.192  35.885  1.00  0.00     0.068 C 
HETATM   16  C11 UNK     1      20.260  -1.671  31.378  1.00  0.00     0.002 A 
HETATM   17  C10 UNK     1      20.890  -2.458  32.340  1.00  0.00     0.001 A 
ENDBRANCH   6   7
ENDBRANCH   5   6
ENDBRANCH   2   5
BRANCH   3  18
HETATM   18  C13 UNK     1      19.261  -6.746  36.199  1.00  0.00     0.108 A 
HETATM   19  C15 UNK     1      19.195  -7.855  36.943  1.00  0.00     0.037 A 
HETATM   20  C14 UNK     1      20.084  -8.975  36.672  1.00  0.00    -0.001 A 
HETATM   21  C16 UNK     1      20.999  -8.870  35.629  1.00  0.00     0.089 A 
HETATM   22  C18 UNK     1      20.050 -10.153  37.422  1.00  0.00     0.014 A 
HETATM   23  O1  UNK     1      21.064  -7.698  34.849  1.00  0.00    -0.274 OA
HETATM   24  C19 UNK     1      21.879  -9.904  35.317  1.00  0.00     0.038 A 
HETATM   25  C17 UNK     1      20.227  -6.612  35.085  1.00  0.00     0.304 A 
HETATM   26  O3  UNK     1      20.292  -5.595  34.401  1.00  0.00    -0.259 OA
HETATM   27  C21 UNK     1      21.839 -11.076  36.071  1.00  0.00     0.003 A 
HETATM   28  C20 UNK     1      20.926 -11.200  37.121  1.00  0.00     0.001 A 
ENDBRANCH   3  18
TORSDOF 4
ENDMDL
MODEL 8
REMARK VINA RESULT:      -9.5      2.087      3.156
REMARK  4 active torsions:
REMARK  status: ('A' for Active; 'I' for Inactive)
REMARK       I    between atoms: C12_17  and  N2_5 
REMARK    1  A    between atoms: C6_11  and  N2_5 
REMARK    2  A    between atoms: C1_6  and  C2_7 
REMARK    3  A    between atoms: C2_7  and  C6_11 
REMARK    4  A    between atoms: C12_17  and  C13_18 
ROOT
HETATM    1  O2  UNK     1      17.374   2.413  30.061  1.00  0.00    -0.267 OA
HETATM    2  N2  UNK     1      19.134   3.716  30.860  1.00  0.00    -0.356 N 
HETATM    3  C12 UNK     1      18.237   2.665  30.900  1.00  0.00     0.257 C 
HETATM    4  H11 UNK     1      19.790   3.856  31.622  1.00  0.00     0.162 HD
ENDROOT
BRANCH   2   5
HETATM    5  C6  UNK     1      19.168   4.683  29.787  1.00  0.00     0.127 C 
BRANCH   5   6
HETATM    6  C2  UNK     1      19.721   6.034  30.233  1.00  0.00     0.061 C 
BRANCH   6   7
HETATM    7  C1  UNK     1      19.455   6.328  31.689  1.00  0.00    -0.022 A 
HETATM    8  C3  UNK     1      18.198   6.631  32.239  1.00  0.00    -0.001 A 
HETATM    9  C5  UNK     1      18.411   6.829  33.605  1.00  0.00     0.043 A 
HETATM   10  C7  UNK     1      16.890   6.761  31.730  1.00  0.00     0.014 A 
HETATM   11  N1  UNK     1      19.756   6.645  33.835  1.00  0.00    -0.359 N 
HETATM   12  C9  UNK     1      17.378   7.153  34.491  1.00  0.00     0.030 A 
HETATM   13  C4  UNK     1      20.399   6.338  32.666  1.00  0.00     0.013 A 
HETATM   14  H5  UNK     1      20.200   6.727  34.740  1.00  0.00     0.166 HD
HETATM   15  C8  UNK     1      21.853   6.092  32.639  1.00  0.00     0.068 C 
HETATM   16  C11 UNK     1      16.089   7.277  33.963  1.00  0.00     0.002 A 
HETATM   17  C10 UNK     1      15.847   7.085  32.605  1.00  0.00     0.001 A 
ENDBRANCH   6   7
ENDBRANCH   5   6
ENDBRANCH   2   5
BRANCH   3  18
HETATM   18  C13 UNK     1      18.401   1.818  32.087  1.00  0.00     0.108 A 
HETATM   19  C15 UNK     1      18.019   2.352  33.253  1.00  0.00     0.037 A 
HETATM   20  C14 UNK     1      18.144   1.590  34.486  1.00  0.00    -0.001 A 
HETATM   21  C16 UNK     1      18.666   0.302  34.430  1.00  0.00     0.089 A 
HETATM   22  C18 UNK     1      17.757   2.107  35.725  1.00  0.00     0.014 A 
HETATM   23  O1  UNK     1      19.067  -0.256  33.200  1.00  0.00    -0.274 OA
HETATM   24  C19 UNK     1      18.813  -0.481  35.574  1.00  0.00     0.038 A 
HETATM   25  C17 UNK     1      18.959   0.449  32.005  1.00  0.00     0.304 A 
HETATM   26  O3  UNK     1      19.313  -0.044  30.938  1.00  0.00    -0.259 OA
HETATM   27  C21 UNK     1      18.425   0.043  36.805  1.00  0.00     0.003 A 
HETATM   28  C20 UNK     1      17.898   1.334  36.881  1.00  0.00     0.001 A 
ENDBRANCH   3  18
TORSDOF 4
ENDMDL
MODEL 9
REMARK VINA RESULT:      -9.4      2.769      8.738
REMARK  4 active torsions:
REMARK  status: ('A' for Active; 'I' for Inactive)
REMARK       I    between atoms: C12_17  and  N2_5 
REMARK    1  A    between atoms: C6_11  and  N2_5 
REMARK    2  A    between atoms: C1_6  and  C2_7 
REMARK    3  A    between atoms: C2_7  and  C6_11 
REMARK    4  A    between atoms: C12_17  and  C13_18 
ROOT
HETATM    1  O2  UNK     1      19.273   5.280  33.577  1.00  0.00    -0.267 OA
HETATM    2  N2  UNK     1      18.459   5.381  31.396  1.00  0.00    -0.356 N 
HETATM    3  C12 UNK     1      18.607   5.823  32.698  1.00  0.00     0.257 C 
HETATM    4  H11 UNK     1      17.859   5.886  30.751  1.00  0.00     0.162 HD
ENDROOT
BRANCH   2   5
HETATM    5  C6  UNK     1      19.091   4.184  30.892  1.00  0.00     0.127 C 
BRANCH   5   6
HETATM    6  C2  UNK     1      18.106   3.032  30.712  1.00  0.00     0.061 C 
BRANCH   6   7
HETATM    7  C1  UNK     1      18.625   1.723  31.257  1.00  0.00    -0.022 A 
HETATM    8  C3  UNK     1      19.228   0.710  30.493  1.00  0.00    -0.001 A 
HETATM    9  C5  UNK     1      19.552  -0.310  31.391  1.00  0.00     0.043 A 
HETATM   10  C7  UNK     1      19.541   0.538  29.130  1.00  0.00     0.014 A 
HETATM   11  N1  UNK     1      19.145   0.106  32.639  1.00  0.00    -0.359 N 
HETATM   12  C9  UNK     1      20.174  -1.498  30.993  1.00  0.00     0.030 A 
HETATM   13  C4  UNK     1      18.577   1.349  32.562  1.00  0.00     0.013 A 
HETATM   14  H5  UNK     1      19.252  -0.434  33.487  1.00  0.00     0.166 HD
HETATM   15  C8  UNK     1      18.057   2.024  33.766  1.00  0.00     0.068 C 
HETATM   16  C11 UNK     1      20.474  -1.646  29.635  1.00  0.00     0.002 A 
HETATM   17  C10 UNK     1      20.162  -0.646  28.716  1.00  0.00     0.001 A 
ENDBRANCH   6   7
ENDBRANCH   5   6
ENDBRANCH   2   5
BRANCH   3  18
HETATM   18  C13 UNK     1      17.870   7.062  32.969  1.00  0.00     0.108 A 
HETATM   19  C15 UNK     1      18.601   8.111  33.365  1.00  0.00     0.037 A 
HETATM   20  C14 UNK     1      17.959   9.383  33.658  1.00  0.00    -0.001 A 
HETATM   21  C16 UNK     1      16.579   9.489  33.521  1.00  0.00     0.089 A 
HETATM   22  C18 UNK     1      18.682  10.504  34.073  1.00  0.00     0.014 A 
HETATM   23  O1  UNK     1      15.815   8.381  33.104  1.00  0.00    -0.274 OA
HETATM   24  C19 UNK     1      15.903  10.678  33.786  1.00  0.00     0.038 A 
HETATM   25  C17 UNK     1      16.400   7.152  32.816  1.00  0.00     0.304 A 
HETATM   26  O3  UNK     1      15.726   6.192  32.455  1.00  0.00    -0.259 OA
HETATM   27  C21 UNK     1      16.632  11.791  34.200  1.00  0.00     0.003 A 
HETATM   28  C20 UNK     1      18.019  11.705  34.343  1.00  0.00     0.001 A 
ENDBRANCH   3  18
TORSDOF 4
ENDMDL
MODEL 10
REMARK VINA RESULT:      -9.4      5.733      9.102
REMARK  4 active torsions:
REMARK  status: ('A' for Active; 'I' for Inactive)
REMARK       I    between atoms: C12_17  and  N2_5 
REMARK    1  A    between atoms: C6_11  and  N2_5 
REMARK    2  A    between atoms: C1_6  and  C2_7 
REMARK    3  A    between atoms: C2_7  and  C6_11 
REMARK    4  A    between atoms: C12_17  and  C13_18 
ROOT
HETATM    1  O2  UNK     1      20.247  -3.272  37.567  1.00  0.00    -0.267 OA
HETATM    2  N2  UNK     1      19.974  -3.475  35.261  1.00  0.00    -0.356 N 
HETATM    3  C12 UNK     1      20.120  -3.953  36.551  1.00  0.00     0.257 C 
HETATM    4  H11 UNK     1      19.908  -4.123  34.482  1.00  0.00     0.162 HD
ENDROOT
BRANCH   2   5
HETATM    5  C6  UNK     1      19.954  -2.067  34.939  1.00  0.00     0.127 C 
BRANCH   5   6
HETATM    6  C2  UNK     1      18.636  -1.629  34.306  1.00  0.00     0.061 C 
BRANCH   6   7
HETATM    7  C1  UNK     1      18.824  -0.660  33.165  1.00  0.00    -0.022 A 
HETATM    8  C3  UNK     1      19.397  -0.975  31.921  1.00  0.00    -0.001 A 
HETATM    9  C5  UNK     1      19.374   0.206  31.175  1.00  0.00     0.043 A 
HETATM   10  C7  UNK     1      19.938  -2.137  31.335  1.00  0.00     0.014 A 
HETATM   11  N1  UNK     1      18.802   1.174  31.969  1.00  0.00    -0.359 N 
HETATM   12  C9  UNK     1      19.866   0.284  29.868  1.00  0.00     0.030 A 
HETATM   13  C4  UNK     1      18.465   0.649  33.187  1.00  0.00     0.013 A 
HETATM   14  H5  UNK     1      18.657   2.135  31.688  1.00  0.00     0.166 HD
HETATM   15  C8  UNK     1      17.834   1.484  34.228  1.00  0.00     0.068 C 
HETATM   16  C11 UNK     1      20.398  -0.882  29.307  1.00  0.00     0.002 A 
HETATM   17  C10 UNK     1      20.435  -2.074  30.028  1.00  0.00     0.001 A 
ENDBRANCH   6   7
ENDBRANCH   5   6
ENDBRANCH   2   5
BRANCH   3  18
HETATM   18  C13 UNK     1      20.109  -5.418  36.623  1.00  0.00     0.108 A 
HETATM   19  C15 UNK     1      20.000  -5.950  37.846  1.00  0.00     0.037 A 
HETATM   20  C14 UNK     1      19.980  -7.394  38.019  1.00  0.00    -0.001 A 
HETATM   21  C16 UNK     1      20.077  -8.208  36.895  1.00  0.00     0.089 A 
HETATM   22  C18 UNK     1      19.866  -7.993  39.276  1.00  0.00     0.014 A 
HETATM   23  O1  UNK     1      20.192  -7.642  35.609  1.00  0.00    -0.274 OA
HETATM   24  C19 UNK     1      20.066  -9.598  36.991  1.00  0.00     0.038 A 
HETATM   25  C17 UNK     1      20.213  -6.265  35.413  1.00  0.00     0.304 A 
HETATM   26  O3  UNK     1      20.316  -5.781  34.290  1.00  0.00    -0.259 OA
HETATM   27  C21 UNK     1      19.952 -10.187  38.249  1.00  0.00     0.003 A 
HETATM   28  C20 UNK     1      19.853  -9.386  39.389  1.00  0.00     0.001 A 
ENDBRANCH   3  18
TORSDOF 4
ENDMDL
