MODEL 1
REMARK VINA RESULT:      -9.6      0.000      0.000
REMARK  4 active torsions:
REMARK  status: ('A' for Active; 'I' for Inactive)
REMARK    1  A    between atoms: C18_25  and  N1_6 
REMARK    2  A    between atoms: C6_13  and  N1_6 
REMARK    3  A    between atoms: C18_25  and  N2_7 
REMARK    4  A    between atoms: C8_15  and  N2_7 
ROOT
HETATM    1  N2  UNK     1      18.777  -5.157  36.101  1.00  0.00    -0.333 N 
HETATM    2  H12 UNK     1      17.898  -5.093  35.592  1.00  0.00     0.168 HD
ENDROOT
BRANCH   1   3
HETATM    3  C18 UNK     1      19.077  -3.995  36.828  1.00  0.00     0.176 C 
HETATM    4  S1  UNK     1      20.666  -3.802  37.355  1.00  0.00    -0.041 SA
BRANCH   3   5
HETATM    5  N1  UNK     1      18.053  -3.072  36.936  1.00  0.00    -0.333 N 
HETATM    6  H11 UNK     1      17.129  -3.478  36.835  1.00  0.00     0.168 HD
BRANCH   5   7
HETATM    7  C6  UNK     1      18.024  -1.695  36.674  1.00  0.00     0.037 A 
HETATM    8  C10 UNK     1      18.318  -1.221  35.395  1.00  0.00     0.069 A 
HETATM    9  C2  UNK     1      18.278   0.149  35.136  1.00  0.00     0.104 A 
HETATM   10  O1  UNK     1      18.555   0.551  33.855  1.00  0.00    -0.346 OA
HETATM   11  C3  UNK     1      17.976   1.047  36.162  1.00  0.00     0.102 A 
HETATM   12  C7  UNK     1      18.154   1.904  33.622  1.00  0.00     0.202 C 
HETATM   13  C9  UNK     1      18.606   2.790  34.766  1.00  0.00     0.202 C 
HETATM   14  O2  UNK     1      17.953   2.405  35.979  1.00  0.00    -0.346 OA
HETATM   15  C13 UNK     1      17.669   0.572  37.439  1.00  0.00     0.042 A 
HETATM   16  C15 UNK     1      17.696  -0.799  37.693  1.00  0.00     0.032 A 
ENDBRANCH   5   7
ENDBRANCH   3   5
ENDBRANCH   1   3
BRANCH   1  17
HETATM   17  C8  UNK     1      19.340  -6.432  36.110  1.00  0.00     0.036 A 
HETATM   18  C11 UNK     1      18.935  -7.369  37.055  1.00  0.00     0.067 A 
HETATM   19  C4  UNK     1      19.512  -8.640  37.045  1.00  0.00     0.092 A 
HETATM   20  C1  UNK     1      20.488  -9.009  36.117  1.00  0.00     0.004 A 
HETATM   21  O3  UNK     1      19.060  -9.545  38.025  1.00  0.00    -0.275 OA
HETATM   22  C5  UNK     1      21.042 -10.368  36.180  1.00  0.00    -0.043 A 
HETATM   23  C12 UNK     1      20.883  -8.050  35.174  1.00  0.00     0.017 A 
HETATM   24  C16 UNK     1      20.593 -11.208  37.124  1.00  0.00     0.090 A 
HETATM   25  C17 UNK     1      22.092 -10.795  35.197  1.00  0.00     0.049 C 
HETATM   26  C19 UNK     1      19.564 -10.834  38.109  1.00  0.00     0.288 A 
HETATM   27  O4  UNK     1      19.178 -11.630  38.958  1.00  0.00    -0.260 OA
HETATM   28  C14 UNK     1      20.313  -6.772  35.171  1.00  0.00     0.030 A 
ENDBRANCH   1  17
TORSDOF 4
ENDMDL
MODEL 2
REMARK VINA RESULT:      -9.6      1.298      1.982
REMARK  4 active torsions:
REMARK  status: ('A' for Active; 'I' for Inactive)
REMARK    1  A    between atoms: C18_25  and  N1_6 
REMARK    2  A    between atoms: C6_13  and  N1_6 
REMARK    3  A    between atoms: C18_25  and  N2_7 
REMARK    4  A    between atoms: C8_15  and  N2_7 
ROOT
HETATM    1  N2  UNK     1      19.005  -5.054  36.067  1.00  0.00    -0.333 N 
HETATM    2  H12 UNK     1      18.390  -4.950  35.263  1.00  0.00     0.168 HD
ENDROOT
BRANCH   1   3
HETATM    3  C18 UNK     1      19.238  -3.847  36.741  1.00  0.00     0.176 C 
HETATM    4  S1  UNK     1      20.811  -3.546  37.268  1.00  0.00    -0.041 SA
BRANCH   3   5
HETATM    5  N1  UNK     1      18.167  -2.974  36.801  1.00  0.00    -0.333 N 
HETATM    6  H11 UNK     1      17.269  -3.426  36.661  1.00  0.00     0.168 HD
BRANCH   5   7
HETATM    7  C6  UNK     1      18.081  -1.600  36.534  1.00  0.00     0.037 A 
HETATM    8  C10 UNK     1      18.421  -1.112  35.272  1.00  0.00     0.069 A 
HETATM    9  C2  UNK     1      18.325   0.254  35.008  1.00  0.00     0.104 A 
HETATM   10  O1  UNK     1      18.652   0.670  33.743  1.00  0.00    -0.346 OA
HETATM   11  C3  UNK     1      17.921   1.135  36.013  1.00  0.00     0.102 A 
HETATM   12  C7  UNK     1      18.195   2.000  33.484  1.00  0.00     0.202 C 
HETATM   13  C9  UNK     1      18.537   2.908  34.649  1.00  0.00     0.202 C 
HETATM   14  O2  UNK     1      17.838   2.490  35.825  1.00  0.00    -0.346 OA
HETATM   15  C13 UNK     1      17.568   0.645  37.272  1.00  0.00     0.042 A 
HETATM   16  C15 UNK     1      17.651  -0.723  37.531  1.00  0.00     0.032 A 
ENDBRANCH   5   7
ENDBRANCH   3   5
ENDBRANCH   1   3
BRANCH   1  17
HETATM   17  C8  UNK     1      19.285  -6.378  36.404  1.00  0.00     0.036 A 
HETATM   18  C11 UNK     1      20.221  -7.102  35.674  1.00  0.00     0.067 A 
HETATM   19  C4  UNK     1      20.486  -8.426  36.030  1.00  0.00     0.092 A 
HETATM   20  C1  UNK     1      19.841  -9.055  37.096  1.00  0.00     0.004 A 
HETATM   21  O3  UNK     1      21.445  -9.107  35.254  1.00  0.00    -0.275 OA
HETATM   22  C5  UNK     1      20.181 -10.451  37.399  1.00  0.00    -0.043 A 
HETATM   23  C12 UNK     1      18.901  -8.308  37.818  1.00  0.00     0.017 A 
HETATM   24  C16 UNK     1      21.097 -11.074  36.645  1.00  0.00     0.090 A 
HETATM   25  C17 UNK     1      19.505 -11.156  38.540  1.00  0.00     0.049 C 
HETATM   26  C19 UNK     1      21.786 -10.425  35.518  1.00  0.00     0.288 A 
HETATM   27  O4  UNK     1      22.619 -11.027  34.849  1.00  0.00    -0.260 OA
HETATM   28  C14 UNK     1      18.624  -6.980  37.474  1.00  0.00     0.030 A 
ENDBRANCH   1  17
TORSDOF 4
ENDMDL
MODEL 3
REMARK VINA RESULT:      -9.6      6.946     12.227
REMARK  4 active torsions:
REMARK  status: ('A' for Active; 'I' for Inactive)
REMARK    1  A    between atoms: C18_25  and  N1_6 
REMARK    2  A    between atoms: C6_13  and  N1_6 
REMARK    3  A    between atoms: C18_25  and  N2_7 
REMARK    4  A    between atoms: C8_15  and  N2_7 
ROOT
HETATM    1  N2  UNK     1      19.032   3.756  29.823  1.00  0.00    -0.333 N 
HETATM    2  H12 UNK     1      19.431   4.069  28.940  1.00  0.00     0.168 HD
ENDROOT
BRANCH   1   3
HETATM    3  C18 UNK     1      18.810   2.372  29.866  1.00  0.00     0.176 C 
HETATM    4  S1  UNK     1      17.855   1.704  28.648  1.00  0.00    -0.041 SA
BRANCH   3   5
HETATM    5  N1  UNK     1      19.499   1.682  30.847  1.00  0.00    -0.333 N 
HETATM    6  H11 UNK     1      20.412   1.355  30.546  1.00  0.00     0.168 HD
BRANCH   5   7
HETATM    7  C6  UNK     1      19.043   0.944  31.947  1.00  0.00     0.037 A 
HETATM    8  C10 UNK     1      18.485   1.599  33.045  1.00  0.00     0.069 A 
HETATM    9  C2  UNK     1      18.023   0.860  34.134  1.00  0.00     0.104 A 
HETATM   10  O1  UNK     1      17.466   1.560  35.173  1.00  0.00    -0.346 OA
HETATM   11  C3  UNK     1      18.147  -0.531  34.139  1.00  0.00     0.102 A 
HETATM   12  C7  UNK     1      16.729   0.709  36.054  1.00  0.00     0.202 C 
HETATM   13  C9  UNK     1      17.531  -0.536  36.376  1.00  0.00     0.202 C 
HETATM   14  O2  UNK     1      17.743  -1.310  35.192  1.00  0.00    -0.346 OA
HETATM   15  C13 UNK     1      18.693  -1.188  33.035  1.00  0.00     0.042 A 
HETATM   16  C15 UNK     1      19.142  -0.449  31.941  1.00  0.00     0.032 A 
ENDBRANCH   5   7
ENDBRANCH   3   5
ENDBRANCH   1   3
BRANCH   1  17
HETATM   17  C8  UNK     1      19.002   4.735  30.815  1.00  0.00     0.036 A 
HETATM   18  C11 UNK     1      17.812   5.030  31.472  1.00  0.00     0.067 A 
HETATM   19  C4  UNK     1      17.806   6.014  32.462  1.00  0.00     0.092 A 
HETATM   20  C1  UNK     1      18.957   6.718  32.821  1.00  0.00     0.004 A 
HETATM   21  O3  UNK     1      16.571   6.267  33.092  1.00  0.00    -0.275 OA
HETATM   22  C5  UNK     1      18.859   7.737  33.874  1.00  0.00    -0.043 A 
HETATM   23  C12 UNK     1      20.145   6.407  32.147  1.00  0.00     0.017 A 
HETATM   24  C16 UNK     1      17.671   7.957  34.456  1.00  0.00     0.090 A 
HETATM   25  C17 UNK     1      20.078   8.512  34.282  1.00  0.00     0.049 C 
HETATM   26  C19 UNK     1      16.449   7.222  34.089  1.00  0.00     0.288 A 
HETATM   27  O4  UNK     1      15.379   7.450  34.643  1.00  0.00    -0.260 OA
HETATM   28  C14 UNK     1      20.168   5.423  31.151  1.00  0.00     0.030 A 
ENDBRANCH   1  17
TORSDOF 4
ENDMDL
MODEL 4
REMARK VINA RESULT:      -9.4      2.564      3.625
REMARK  4 active torsions:
REMARK  status: ('A' for Active; 'I' for Inactive)
REMARK    1  A    between atoms: C18_25  and  N1_6 
REMARK    2  A    between atoms: C6_13  and  N1_6 
REMARK    3  A    between atoms: C18_25  and  N2_7 
REMARK    4  A    between atoms: C8_15  and  N2_7 
ROOT
HETATM    1  N2  UNK     1      18.822  -4.761  36.118  1.00  0.00    -0.333 N 
HETATM    2  H12 UNK     1      17.858  -4.603  35.833  1.00  0.00     0.168 HD
ENDROOT
BRANCH   1   3
HETATM    3  C18 UNK     1      19.536  -3.571  36.325  1.00  0.00     0.176 C 
HETATM    4  S1  UNK     1      20.838  -3.627  37.393  1.00  0.00    -0.041 SA
BRANCH   3   5
HETATM    5  N1  UNK     1      19.162  -2.500  35.535  1.00  0.00    -0.333 N 
HETATM    6  H11 UNK     1      18.237  -2.142  35.750  1.00  0.00     0.168 HD
BRANCH   5   7
HETATM    7  C6  UNK     1      19.550  -2.130  34.240  1.00  0.00     0.037 A 
HETATM    8  C10 UNK     1      18.879  -1.103  33.576  1.00  0.00     0.069 A 
HETATM    9  C2  UNK     1      19.275  -0.732  32.291  1.00  0.00     0.104 A 
HETATM   10  O1  UNK     1      18.589   0.298  31.699  1.00  0.00    -0.346 OA
HETATM   11  C3  UNK     1      20.321  -1.406  31.659  1.00  0.00     0.102 A 
HETATM   12  C7  UNK     1      19.283   0.816  30.561  1.00  0.00     0.202 C 
HETATM   13  C9  UNK     1      19.773  -0.319  29.683  1.00  0.00     0.202 C 
HETATM   14  O2  UNK     1      20.735  -1.110  30.386  1.00  0.00    -0.346 OA
HETATM   15  C13 UNK     1      21.002  -2.424  32.328  1.00  0.00     0.042 A 
HETATM   16  C15 UNK     1      20.614  -2.786  33.618  1.00  0.00     0.032 A 
ENDBRANCH   5   7
ENDBRANCH   3   5
ENDBRANCH   1   3
BRANCH   1  17
HETATM   17  C8  UNK     1      19.118  -6.089  36.423  1.00  0.00     0.036 A 
HETATM   18  C11 UNK     1      19.993  -6.813  35.621  1.00  0.00     0.067 A 
HETATM   19  C4  UNK     1      20.275  -8.141  35.946  1.00  0.00     0.092 A 
HETATM   20  C1  UNK     1      19.707  -8.775  37.053  1.00  0.00     0.004 A 
HETATM   21  O3  UNK     1      21.170  -8.822  35.097  1.00  0.00    -0.275 OA
HETATM   22  C5  UNK     1      20.059 -10.175  37.320  1.00  0.00    -0.043 A 
HETATM   23  C12 UNK     1      18.827  -8.028  37.847  1.00  0.00     0.017 A 
HETATM   24  C16 UNK     1      20.913 -10.798  36.495  1.00  0.00     0.090 A 
HETATM   25  C17 UNK     1      19.465 -10.885  38.502  1.00  0.00     0.049 C 
HETATM   26  C19 UNK     1      21.521 -10.143  35.324  1.00  0.00     0.288 A 
HETATM   27  O4  UNK     1      22.299 -10.745  34.591  1.00  0.00    -0.260 OA
HETATM   28  C14 UNK     1      18.534  -6.696  37.535  1.00  0.00     0.030 A 
ENDBRANCH   1  17
TORSDOF 4
ENDMDL
MODEL 5
REMARK VINA RESULT:      -9.3      8.473     14.780
REMARK  4 active torsions:
REMARK  status: ('A' for Active; 'I' for Inactive)
REMARK    1  A    between atoms: C18_25  and  N1_6 
REMARK    2  A    between atoms: C6_13  and  N1_6 
REMARK    3  A    between atoms: C18_25  and  N2_7 
REMARK    4  A    between atoms: C8_15  and  N2_7 
ROOT
HETATM    1  N2  UNK     1      17.956   5.672  32.796  1.00  0.00    -0.333 N 
HETATM    2  H12 UNK     1      18.087   5.076  33.612  1.00  0.00     0.168 HD
ENDROOT
BRANCH   1   3
HETATM    3  C18 UNK     1      18.278   5.032  31.591  1.00  0.00     0.176 C 
HETATM    4  S1  UNK     1      19.337   5.832  30.551  1.00  0.00    -0.041 SA
BRANCH   3   5
HETATM    5  N1  UNK     1      17.780   3.752  31.436  1.00  0.00    -0.333 N 
HETATM    6  H11 UNK     1      17.198   3.447  32.211  1.00  0.00     0.168 HD
BRANCH   5   7
HETATM    7  C6  UNK     1      18.272   2.651  30.720  1.00  0.00     0.037 A 
HETATM    8  C10 UNK     1      19.066   1.700  31.361  1.00  0.00     0.069 A 
HETATM    9  C2  UNK     1      19.546   0.602  30.647  1.00  0.00     0.104 A 
HETATM   10  O1  UNK     1      20.304  -0.309  31.336  1.00  0.00    -0.346 OA
HETATM   11  C3  UNK     1      19.257   0.471  29.287  1.00  0.00     0.102 A 
HETATM   12  C7  UNK     1      20.445  -1.537  30.619  1.00  0.00     0.202 C 
HETATM   13  C9  UNK     1      20.796  -1.262  29.170  1.00  0.00     0.202 C 
HETATM   14  O2  UNK     1      19.726  -0.567  28.524  1.00  0.00    -0.346 OA
HETATM   15  C13 UNK     1      18.451   1.416  28.649  1.00  0.00     0.042 A 
HETATM   16  C15 UNK     1      17.961   2.506  29.367  1.00  0.00     0.032 A 
ENDBRANCH   5   7
ENDBRANCH   3   5
ENDBRANCH   1   3
BRANCH   1  17
HETATM   17  C8  UNK     1      17.305   6.875  33.067  1.00  0.00     0.036 A 
HETATM   18  C11 UNK     1      18.043   8.031  33.303  1.00  0.00     0.067 A 
HETATM   19  C4  UNK     1      17.371   9.225  33.571  1.00  0.00     0.092 A 
HETATM   20  C1  UNK     1      15.978   9.303  33.613  1.00  0.00     0.004 A 
HETATM   21  O3  UNK     1      18.172  10.361  33.801  1.00  0.00    -0.275 OA
HETATM   22  C5  UNK     1      15.354  10.601  33.903  1.00  0.00    -0.043 A 
HETATM   23  C12 UNK     1      15.254   8.128  33.372  1.00  0.00     0.017 A 
HETATM   24  C16 UNK     1      16.141  11.665  34.117  1.00  0.00     0.090 A 
HETATM   25  C17 UNK     1      13.858  10.718  33.954  1.00  0.00     0.049 C 
HETATM   26  C19 UNK     1      17.611  11.598  34.077  1.00  0.00     0.288 A 
HETATM   27  O4  UNK     1      18.299  12.594  34.279  1.00  0.00    -0.260 OA
HETATM   28  C14 UNK     1      15.913   6.923  33.102  1.00  0.00     0.030 A 
ENDBRANCH   1  17
TORSDOF 4
ENDMDL
MODEL 6
REMARK VINA RESULT:      -9.3      8.438     14.658
REMARK  4 active torsions:
REMARK  status: ('A' for Active; 'I' for Inactive)
REMARK    1  A    between atoms: C18_25  and  N1_6 
REMARK    2  A    between atoms: C6_13  and  N1_6 
REMARK    3  A    between atoms: C18_25  and  N2_7 
REMARK    4  A    between atoms: C8_15  and  N2_7 
ROOT
HETATM    1  N2  UNK     1      18.214   5.675  32.833  1.00  0.00    -0.333 N 
HETATM    2  H12 UNK     1      18.104   5.020  33.604  1.00  0.00     0.168 HD
ENDROOT
BRANCH   1   3
HETATM    3  C18 UNK     1      18.519   5.047  31.617  1.00  0.00     0.176 C 
HETATM    4  S1  UNK     1      19.671   5.786  30.632  1.00  0.00    -0.041 SA
BRANCH   3   5
HETATM    5  N1  UNK     1      17.921   3.818  31.407  1.00  0.00    -0.333 N 
HETATM    6  H11 UNK     1      17.262   3.559  32.135  1.00  0.00     0.168 HD
BRANCH   5   7
HETATM    7  C6  UNK     1      18.362   2.685  30.708  1.00  0.00     0.037 A 
HETATM    8  C10 UNK     1      19.126   1.717  31.360  1.00  0.00     0.069 A 
HETATM    9  C2  UNK     1      19.555   0.587  30.663  1.00  0.00     0.104 A 
HETATM   10  O1  UNK     1      20.285  -0.339  31.363  1.00  0.00    -0.346 OA
HETATM   11  C3  UNK     1      19.247   0.441  29.309  1.00  0.00     0.102 A 
HETATM   12  C7  UNK     1      20.370  -1.586  30.669  1.00  0.00     0.202 C 
HETATM   13  C9  UNK     1      20.716  -1.353  29.212  1.00  0.00     0.202 C 
HETATM   14  O2  UNK     1      19.667  -0.630  28.562  1.00  0.00    -0.346 OA
HETATM   15  C13 UNK     1      18.471   1.403  28.661  1.00  0.00     0.042 A 
HETATM   16  C15 UNK     1      18.031   2.525  29.362  1.00  0.00     0.032 A 
ENDBRANCH   5   7
ENDBRANCH   3   5
ENDBRANCH   1   3
BRANCH   1  17
HETATM   17  C8  UNK     1      17.837   6.982  33.136  1.00  0.00     0.036 A 
HETATM   18  C11 UNK     1      16.521   7.392  32.951  1.00  0.00     0.067 A 
HETATM   19  C4  UNK     1      16.166   8.705  33.262  1.00  0.00     0.092 A 
HETATM   20  C1  UNK     1      17.087   9.631  33.755  1.00  0.00     0.004 A 
HETATM   21  O3  UNK     1      14.818   9.060  33.054  1.00  0.00    -0.275 OA
HETATM   22  C5  UNK     1      16.627  10.992  34.055  1.00  0.00    -0.043 A 
HETATM   23  C12 UNK     1      18.409   9.199  33.933  1.00  0.00     0.017 A 
HETATM   24  C16 UNK     1      15.338  11.301  33.847  1.00  0.00     0.090 A 
HETATM   25  C17 UNK     1      17.594  12.011  34.585  1.00  0.00     0.049 C 
HETATM   26  C19 UNK     1      14.354  10.337  33.329  1.00  0.00     0.288 A 
HETATM   27  O4  UNK     1      13.183  10.656  33.152  1.00  0.00    -0.260 OA
HETATM   28  C14 UNK     1      18.781   7.885  33.626  1.00  0.00     0.030 A 
ENDBRANCH   1  17
TORSDOF 4
ENDMDL
MODEL 7
REMARK VINA RESULT:      -9.2      7.278     10.203
REMARK  4 active torsions:
REMARK  status: ('A' for Active; 'I' for Inactive)
REMARK    1  A    between atoms: C18_25  and  N1_6 
REMARK    2  A    between atoms: C6_13  and  N1_6 
REMARK    3  A    between atoms: C18_25  and  N2_7 
REMARK    4  A    between atoms: C8_15  and  N2_7 
ROOT
HETATM    1  N2  UNK     1      17.753   3.955  31.518  1.00  0.00    -0.333 N 
HETATM    2  H12 UNK     1      16.779   3.916  31.812  1.00  0.00     0.168 HD
ENDROOT
BRANCH   1   3
HETATM    3  C18 UNK     1      18.320   5.229  31.661  1.00  0.00     0.176 C 
HETATM    4  S1  UNK     1      19.052   5.907  30.302  1.00  0.00    -0.041 SA
BRANCH   3   5
HETATM    5  N1  UNK     1      18.114   5.846  32.882  1.00  0.00    -0.333 N 
HETATM    6  H11 UNK     1      17.360   5.434  33.421  1.00  0.00     0.168 HD
BRANCH   5   7
HETATM    7  C6  UNK     1      18.373   7.157  33.307  1.00  0.00     0.037 A 
HETATM    8  C10 UNK     1      17.389   8.138  33.184  1.00  0.00     0.069 A 
HETATM    9  C2  UNK     1      17.647   9.439  33.617  1.00  0.00     0.104 A 
HETATM   10  O1  UNK     1      16.633  10.352  33.490  1.00  0.00    -0.346 OA
HETATM   11  C3  UNK     1      18.899   9.765  34.143  1.00  0.00     0.102 A 
HETATM   12  C7  UNK     1      16.876  11.530  34.264  1.00  0.00     0.202 C 
HETATM   13  C9  UNK     1      18.301  12.006  34.062  1.00  0.00     0.202 C 
HETATM   14  O2  UNK     1      19.224  11.032  34.555  1.00  0.00    -0.346 OA
HETATM   15  C13 UNK     1      19.879   8.781  34.278  1.00  0.00     0.042 A 
HETATM   16  C15 UNK     1      19.615   7.478  33.857  1.00  0.00     0.032 A 
ENDBRANCH   5   7
ENDBRANCH   3   5
ENDBRANCH   1   3
BRANCH   1  17
HETATM   17  C8  UNK     1      18.319   2.709  31.251  1.00  0.00     0.036 A 
HETATM   18  C11 UNK     1      18.501   1.788  32.277  1.00  0.00     0.067 A 
HETATM   19  C4  UNK     1      19.069   0.547  31.986  1.00  0.00     0.092 A 
HETATM   20  C1  UNK     1      19.466   0.192  30.696  1.00  0.00     0.004 A 
HETATM   21  O3  UNK     1      19.226  -0.344  33.067  1.00  0.00    -0.275 OA
HETATM   22  C5  UNK     1      20.055  -1.136  30.481  1.00  0.00    -0.043 A 
HETATM   23  C12 UNK     1      19.275   1.134  29.676  1.00  0.00     0.017 A 
HETATM   24  C16 UNK     1      20.192  -1.962  31.528  1.00  0.00     0.090 A 
HETATM   25  C17 UNK     1      20.492  -1.547  29.105  1.00  0.00     0.049 C 
HETATM   26  C19 UNK     1      19.778  -1.603  32.894  1.00  0.00     0.288 A 
HETATM   27  O4  UNK     1      19.920  -2.386  33.828  1.00  0.00    -0.260 OA
HETATM   28  C14 UNK     1      18.707   2.383  29.952  1.00  0.00     0.030 A 
ENDBRANCH   1  17
TORSDOF 4
ENDMDL
MODEL 8
REMARK VINA RESULT:      -9.2      7.399     10.303
REMARK  4 active torsions:
REMARK  status: ('A' for Active; 'I' for Inactive)
REMARK    1  A    between atoms: C18_25  and  N1_6 
REMARK    2  A    between atoms: C6_13  and  N1_6 
REMARK    3  A    between atoms: C18_25  and  N2_7 
REMARK    4  A    between atoms: C8_15  and  N2_7 
ROOT
HETATM    1  N2  UNK     1      17.652   4.088  31.777  1.00  0.00    -0.333 N 
HETATM    2  H12 UNK     1      16.634   4.067  31.789  1.00  0.00     0.168 HD
ENDROOT
BRANCH   1   3
HETATM    3  C18 UNK     1      18.185   5.237  32.378  1.00  0.00     0.176 C 
HETATM    4  S1  UNK     1      19.600   5.870  31.716  1.00  0.00    -0.041 SA
BRANCH   3   5
HETATM    5  N1  UNK     1      17.423   5.798  33.387  1.00  0.00    -0.333 N 
HETATM    6  H11 UNK     1      17.183   5.143  34.124  1.00  0.00     0.168 HD
BRANCH   5   7
HETATM    7  C6  UNK     1      16.538   6.885  33.377  1.00  0.00     0.037 A 
HETATM    8  C10 UNK     1      16.581   7.830  34.402  1.00  0.00     0.069 A 
HETATM    9  C2  UNK     1      15.705   8.915  34.383  1.00  0.00     0.104 A 
HETATM   10  O1  UNK     1      15.810   9.820  35.407  1.00  0.00    -0.346 OA
HETATM   11  C3  UNK     1      14.766   9.039  33.357  1.00  0.00     0.102 A 
HETATM   12  C7  UNK     1      15.126  11.041  35.112  1.00  0.00     0.202 C 
HETATM   13  C9  UNK     1      13.748  10.749  34.551  1.00  0.00     0.202 C 
HETATM   14  O2  UNK     1      13.857  10.063  33.300  1.00  0.00    -0.346 OA
HETATM   15  C13 UNK     1      14.732   8.101  32.324  1.00  0.00     0.042 A 
HETATM   16  C15 UNK     1      15.617   7.023  32.337  1.00  0.00     0.032 A 
ENDBRANCH   5   7
ENDBRANCH   3   5
ENDBRANCH   1   3
BRANCH   1  17
HETATM   17  C8  UNK     1      18.242   2.896  31.360  1.00  0.00     0.036 A 
HETATM   18  C11 UNK     1      18.467   1.870  32.272  1.00  0.00     0.067 A 
HETATM   19  C4  UNK     1      19.059   0.684  31.832  1.00  0.00     0.092 A 
HETATM   20  C1  UNK     1      19.438   0.489  30.504  1.00  0.00     0.004 A 
HETATM   21  O3  UNK     1      19.259  -0.318  32.802  1.00  0.00    -0.275 OA
HETATM   22  C5  UNK     1      20.056  -0.790  30.129  1.00  0.00    -0.043 A 
HETATM   23  C12 UNK     1      19.204   1.535  29.601  1.00  0.00     0.017 A 
HETATM   24  C16 UNK     1      20.233  -1.726  31.073  1.00  0.00     0.090 A 
HETATM   25  C17 UNK     1      20.475  -1.032  28.708  1.00  0.00     0.049 C 
HETATM   26  C19 UNK     1      19.838  -1.534  32.478  1.00  0.00     0.288 A 
HETATM   27  O4  UNK     1      20.018  -2.414  33.314  1.00  0.00    -0.260 OA
HETATM   28  C14 UNK     1      18.612   2.729  30.026  1.00  0.00     0.030 A 
ENDBRANCH   1  17
TORSDOF 4
ENDMDL
MODEL 9
REMARK VINA RESULT:      -9.0      6.295     13.144
REMARK  4 active torsions:
REMARK  status: ('A' for Active; 'I' for Inactive)
REMARK    1  A    between atoms: C18_25  and  N1_6 
REMARK    2  A    between atoms: C6_13  and  N1_6 
REMARK    3  A    between atoms: C18_25  and  N2_7 
REMARK    4  A    between atoms: C8_15  and  N2_7 
ROOT
HETATM    1  N2  UNK     1      17.525   4.278  32.578  1.00  0.00    -0.333 N 
HETATM    2  H12 UNK     1      16.535   4.114  32.748  1.00  0.00     0.168 HD
ENDROOT
BRANCH   1   3
HETATM    3  C18 UNK     1      18.125   3.269  31.810  1.00  0.00     0.176 C 
HETATM    4  S1  UNK     1      18.883   3.735  30.378  1.00  0.00    -0.041 SA
BRANCH   3   5
HETATM    5  N1  UNK     1      18.129   2.006  32.372  1.00  0.00    -0.333 N 
HETATM    6  H11 UNK     1      17.680   1.303  31.794  1.00  0.00     0.168 HD
BRANCH   5   7
HETATM    7  C6  UNK     1      18.175   1.594  33.712  1.00  0.00     0.037 A 
HETATM    8  C10 UNK     1      17.948   0.257  34.039  1.00  0.00     0.069 A 
HETATM    9  C2  UNK     1      18.003  -0.150  35.372  1.00  0.00     0.104 A 
HETATM   10  O1  UNK     1      17.793  -1.481  35.628  1.00  0.00    -0.346 OA
HETATM   11  C3  UNK     1      18.254   0.784  36.380  1.00  0.00     0.102 A 
HETATM   12  C7  UNK     1      18.208  -1.842  36.948  1.00  0.00     0.202 C 
HETATM   13  C9  UNK     1      17.700  -0.828  37.954  1.00  0.00     0.202 C 
HETATM   14  O2  UNK     1      18.289   0.452  37.709  1.00  0.00    -0.346 OA
HETATM   15  C13 UNK     1      18.494   2.119  36.051  1.00  0.00     0.042 A 
HETATM   16  C15 UNK     1      18.452   2.522  34.717  1.00  0.00     0.032 A 
ENDBRANCH   5   7
ENDBRANCH   3   5
ENDBRANCH   1   3
BRANCH   1  17
HETATM   17  C8  UNK     1      17.971   5.540  32.968  1.00  0.00     0.036 A 
HETATM   18  C11 UNK     1      17.084   6.610  33.021  1.00  0.00     0.067 A 
HETATM   19  C4  UNK     1      17.552   7.864  33.416  1.00  0.00     0.092 A 
HETATM   20  C1  UNK     1      18.886   8.088  33.760  1.00  0.00     0.004 A 
HETATM   21  O3  UNK     1      16.606   8.908  33.451  1.00  0.00    -0.275 OA
HETATM   22  C5  UNK     1      19.292   9.441  34.162  1.00  0.00    -0.043 A 
HETATM   23  C12 UNK     1      19.764   6.997  33.699  1.00  0.00     0.017 A 
HETATM   24  C16 UNK     1      18.370  10.414  34.187  1.00  0.00     0.090 A 
HETATM   25  C17 UNK     1      20.720   9.714  34.538  1.00  0.00     0.049 C 
HETATM   26  C19 UNK     1      16.960  10.194  33.827  1.00  0.00     0.288 A 
HETATM   27  O4  UNK     1      16.144  11.110  33.861  1.00  0.00    -0.260 OA
HETATM   28  C14 UNK     1      19.310   5.733  33.306  1.00  0.00     0.030 A 
ENDBRANCH   1  17
TORSDOF 4
ENDMDL
MODEL 10
REMARK VINA RESULT:      -9.0      2.783      9.438
REMARK  4 active torsions:
REMARK  status: ('A' for Active; 'I' for Inactive)
REMARK    1  A    between atoms: C18_25  and  N1_6 
REMARK    2  A    between atoms: C6_13  and  N1_6 
REMARK    3  A    between atoms: C18_25  and  N2_7 
REMARK    4  A    between atoms: C8_15  and  N2_7 
ROOT
HETATM    1  N2  UNK     1      18.379  -1.808  35.075  1.00  0.00    -0.333 N 
HETATM    2  H12 UNK     1      17.915  -2.683  34.840  1.00  0.00     0.168 HD
ENDROOT
BRANCH   1   3
HETATM    3  C18 UNK     1      18.918  -1.802  36.369  1.00  0.00     0.176 C 
HETATM    4  S1  UNK     1      18.079  -0.941  37.552  1.00  0.00    -0.041 SA
BRANCH   3   5
HETATM    5  N1  UNK     1      20.027  -2.604  36.564  1.00  0.00    -0.333 N 
HETATM    6  H11 UNK     1      20.843  -2.300  36.043  1.00  0.00     0.168 HD
BRANCH   5   7
HETATM    7  C6  UNK     1      20.135  -3.958  36.914  1.00  0.00     0.037 A 
HETATM    8  C10 UNK     1      19.167  -4.868  36.491  1.00  0.00     0.069 A 
HETATM    9  C2  UNK     1      19.283  -6.215  36.834  1.00  0.00     0.104 A 
HETATM   10  O1  UNK     1      18.311  -7.064  36.370  1.00  0.00    -0.346 OA
HETATM   11  C3  UNK     1      20.350  -6.646  37.624  1.00  0.00     0.102 A 
HETATM   12  C7  UNK     1      18.704  -8.434  36.479  1.00  0.00     0.202 C 
HETATM   13  C9  UNK     1      19.299  -8.703  37.847  1.00  0.00     0.202 C 
HETATM   14  O2  UNK     1      20.502  -7.949  38.021  1.00  0.00    -0.346 OA
HETATM   15  C13 UNK     1      21.327  -5.738  38.036  1.00  0.00     0.042 A 
HETATM   16  C15 UNK     1      21.216  -4.394  37.682  1.00  0.00     0.032 A 
ENDBRANCH   5   7
ENDBRANCH   3   5
ENDBRANCH   1   3
BRANCH   1  17
HETATM   17  C8  UNK     1      18.536  -0.938  33.996  1.00  0.00     0.036 A 
HETATM   18  C11 UNK     1      19.086  -1.396  32.803  1.00  0.00     0.067 A 
HETATM   19  C4  UNK     1      19.233  -0.507  31.736  1.00  0.00     0.092 A 
HETATM   20  C1  UNK     1      18.849   0.832  31.822  1.00  0.00     0.004 A 
HETATM   21  O3  UNK     1      19.795  -1.030  30.554  1.00  0.00    -0.275 OA
HETATM   22  C5  UNK     1      19.041   1.696  30.651  1.00  0.00    -0.043 A 
HETATM   23  C12 UNK     1      18.298   1.273  33.033  1.00  0.00     0.017 A 
HETATM   24  C16 UNK     1      19.578   1.172  29.539  1.00  0.00     0.090 A 
HETATM   25  C17 UNK     1      18.638   3.141  30.711  1.00  0.00     0.049 C 
HETATM   26  C19 UNK     1      19.988  -0.238  29.433  1.00  0.00     0.288 A 
HETATM   27  O4  UNK     1      20.476  -0.682  28.399  1.00  0.00    -0.260 OA
HETATM   28  C14 UNK     1      18.144   0.394  34.112  1.00  0.00     0.030 A 
ENDBRANCH   1  17
TORSDOF 4
ENDMDL
