MODEL 1
REMARK VINA RESULT:      -9.4      0.000      0.000
REMARK  3 active torsions:
REMARK  status: ('A' for Active; 'I' for Inactive)
REMARK    1  A    between atoms: C8_15  and  N1_6 
REMARK    2  A    between atoms: C8_15  and  N2_7 
REMARK    3  A    between atoms: C9_16  and  N2_7 
ROOT
HETATM    1  N2  UNK     1      17.463   4.221  31.923  1.00  0.00    -0.333 N 
HETATM    2  H13 UNK     1      16.449   4.141  31.978  1.00  0.00     0.168 HD
ENDROOT
BRANCH   1   3
HETATM    3  C8  UNK     1      17.965   5.446  32.273  1.00  0.00     0.174 C 
HETATM    4  S1  UNK     1      19.571   5.815  31.962  1.00  0.00    -0.041 SA
BRANCH   3   5
HETATM    5  N1  UNK     1      17.147   6.383  32.817  1.00  0.00    -0.358 N 
HETATM    6  C4  UNK     1      17.388   6.925  34.148  1.00  0.00     0.130 C 
HETATM    7  C2  UNK     1      17.359   8.451  34.127  1.00  0.00     0.088 C 
HETATM    8  C1  UNK     1      16.082   8.986  33.467  1.00  0.00     0.167 C 
HETATM    9  O1  UNK     1      14.942   8.664  34.282  1.00  0.00    -0.353 OA
HETATM   10  O2  UNK     1      16.190  10.414  33.340  1.00  0.00    -0.353 OA
HETATM   11  C3  UNK     1      15.895   8.365  32.076  1.00  0.00     0.088 C 
HETATM   12  C6  UNK     1      14.551   9.905  34.867  1.00  0.00     0.197 C 
HETATM   13  C7  UNK     1      14.948  10.917  33.829  1.00  0.00     0.197 C 
HETATM   14  C5  UNK     1      15.947   6.840  32.126  1.00  0.00     0.130 C 
ENDBRANCH   3   5
ENDBRANCH   1   3
BRANCH   1  15
HETATM   15  C9  UNK     1      18.107   3.042  31.475  1.00  0.00     0.036 A 
HETATM   16  C10 UNK     1      18.357   2.024  32.374  1.00  0.00     0.067 A 
HETATM   17  C13 UNK     1      18.992   0.869  31.912  1.00  0.00     0.092 A 
HETATM   18  C12 UNK     1      19.379   0.714  30.580  1.00  0.00     0.004 A 
HETATM   19  O3  UNK     1      19.228  -0.144  32.862  1.00  0.00    -0.275 OA
HETATM   20  C14 UNK     1      19.108   1.769  29.696  1.00  0.00     0.017 A 
HETATM   21  C15 UNK     1      20.042  -0.534  30.181  1.00  0.00    -0.043 A 
HETATM   22  C11 UNK     1      18.472   2.932  30.146  1.00  0.00     0.030 A 
HETATM   23  C16 UNK     1      20.254  -1.481  31.106  1.00  0.00     0.090 A 
HETATM   24  C17 UNK     1      20.470  -0.733  28.756  1.00  0.00     0.049 C 
HETATM   25  C18 UNK     1      19.851  -1.332  32.514  1.00  0.00     0.288 A 
HETATM   26  O4  UNK     1      20.062  -2.221  33.333  1.00  0.00    -0.260 OA
ENDBRANCH   1  15
TORSDOF 3
ENDMDL
MODEL 2
REMARK VINA RESULT:      -9.2      1.433      2.444
REMARK  3 active torsions:
REMARK  status: ('A' for Active; 'I' for Inactive)
REMARK    1  A    between atoms: C8_15  and  N1_6 
REMARK    2  A    between atoms: C8_15  and  N2_7 
REMARK    3  A    between atoms: C9_16  and  N2_7 
ROOT
HETATM    1  N2  UNK     1      17.629   4.512  31.953  1.00  0.00    -0.333 N 
HETATM    2  H13 UNK     1      16.619   4.574  32.065  1.00  0.00     0.168 HD
ENDROOT
BRANCH   1   3
HETATM    3  C8  UNK     1      18.276   5.718  31.884  1.00  0.00     0.174 C 
HETATM    4  S1  UNK     1      19.816   5.806  31.226  1.00  0.00    -0.041 SA
BRANCH   3   5
HETATM    5  N1  UNK     1      17.647   6.849  32.291  1.00  0.00    -0.358 N 
HETATM    6  C4  UNK     1      16.783   7.606  31.394  1.00  0.00     0.130 C 
HETATM    7  C2  UNK     1      15.435   7.895  32.052  1.00  0.00     0.088 C 
HETATM    8  C1  UNK     1      15.604   8.540  33.433  1.00  0.00     0.167 C 
HETATM    9  O1  UNK     1      16.169   9.855  33.289  1.00  0.00    -0.353 OA
HETATM   10  O2  UNK     1      14.314   8.641  34.058  1.00  0.00    -0.353 OA
HETATM   11  C3  UNK     1      16.531   7.690  34.314  1.00  0.00     0.088 C 
HETATM   12  C6  UNK     1      15.091  10.746  33.567  1.00  0.00     0.197 C 
HETATM   13  C7  UNK     1      14.252   9.978  34.550  1.00  0.00     0.197 C 
HETATM   14  C5  UNK     1      17.861   7.403  33.623  1.00  0.00     0.130 C 
ENDBRANCH   3   5
ENDBRANCH   1   3
BRANCH   1  15
HETATM   15  C9  UNK     1      18.117   3.185  31.877  1.00  0.00     0.036 A 
HETATM   16  C10 UNK     1      18.601   2.710  30.674  1.00  0.00     0.067 A 
HETATM   17  C13 UNK     1      19.080   1.399  30.621  1.00  0.00     0.092 A 
HETATM   18  C12 UNK     1      19.083   0.561  31.737  1.00  0.00     0.004 A 
HETATM   19  O3  UNK     1      19.564   0.955  29.374  1.00  0.00    -0.275 OA
HETATM   20  C14 UNK     1      18.585   1.079  32.941  1.00  0.00     0.017 A 
HETATM   21  C15 UNK     1      19.605  -0.804  31.590  1.00  0.00    -0.043 A 
HETATM   22  C11 UNK     1      18.102   2.391  33.009  1.00  0.00     0.030 A 
HETATM   23  C16 UNK     1      20.059  -1.199  30.392  1.00  0.00     0.090 A 
HETATM   24  C17 UNK     1      19.624  -1.730  32.771  1.00  0.00     0.049 C 
HETATM   25  C18 UNK     1      20.063  -0.327  29.206  1.00  0.00     0.288 A 
HETATM   26  O4  UNK     1      20.487  -0.724  28.126  1.00  0.00    -0.260 OA
ENDBRANCH   1  15
TORSDOF 3
ENDMDL
MODEL 3
REMARK VINA RESULT:      -8.8     23.646     25.190
REMARK  3 active torsions:
REMARK  status: ('A' for Active; 'I' for Inactive)
REMARK    1  A    between atoms: C8_15  and  N1_6 
REMARK    2  A    between atoms: C8_15  and  N2_7 
REMARK    3  A    between atoms: C9_16  and  N2_7 
ROOT
HETATM    1  N2  UNK     1       8.682   6.981   8.127  1.00  0.00    -0.333 N 
HETATM    2  H13 UNK     1       8.326   7.893   7.846  1.00  0.00     0.168 HD
ENDROOT
BRANCH   1   3
HETATM    3  C8  UNK     1       9.826   6.587   7.486  1.00  0.00     0.174 C 
HETATM    4  S1  UNK     1       9.823   6.367   5.823  1.00  0.00    -0.041 SA
BRANCH   3   5
HETATM    5  N1  UNK     1      10.977   6.432   8.188  1.00  0.00    -0.358 N 
HETATM    6  C4  UNK     1      11.338   5.153   8.788  1.00  0.00     0.130 C 
HETATM    7  C2  UNK     1      12.766   4.763   8.415  1.00  0.00     0.088 C 
HETATM    8  C1  UNK     1      13.762   5.889   8.721  1.00  0.00     0.167 C 
HETATM    9  O1  UNK     1      13.853   6.083  10.143  1.00  0.00    -0.353 OA
HETATM   10  O2  UNK     1      15.052   5.518   8.207  1.00  0.00    -0.353 OA
HETATM   11  C3  UNK     1      13.309   7.200   8.064  1.00  0.00     0.088 C 
HETATM   12  C6  UNK     1      15.126   5.551  10.503  1.00  0.00     0.197 C 
HETATM   13  C7  UNK     1      15.959   5.787   9.274  1.00  0.00     0.197 C 
HETATM   14  C5  UNK     1      11.873   7.555   8.440  1.00  0.00     0.130 C 
ENDBRANCH   3   5
ENDBRANCH   1   3
BRANCH   1  15
HETATM   15  C9  UNK     1       7.888   6.332   9.104  1.00  0.00     0.036 A 
HETATM   16  C10 UNK     1       7.476   5.032   8.887  1.00  0.00     0.067 A 
HETATM   17  C13 UNK     1       6.696   4.410   9.864  1.00  0.00     0.092 A 
HETATM   18  C12 UNK     1       6.322   5.057  11.043  1.00  0.00     0.004 A 
HETATM   19  O3  UNK     1       6.298   3.084   9.602  1.00  0.00    -0.275 OA
HETATM   20  C14 UNK     1       6.759   6.376  11.228  1.00  0.00     0.017 A 
HETATM   21  C15 UNK     1       5.499   4.327  12.015  1.00  0.00    -0.043 A 
HETATM   22  C11 UNK     1       7.542   7.012  10.257  1.00  0.00     0.030 A 
HETATM   23  C16 UNK     1       5.135   3.066  11.740  1.00  0.00     0.090 A 
HETATM   24  C17 UNK     1       5.081   4.994  13.293  1.00  0.00     0.049 C 
HETATM   25  C18 UNK     1       5.521   2.370  10.502  1.00  0.00     0.288 A 
HETATM   26  O4  UNK     1       5.169   1.216  10.285  1.00  0.00    -0.260 OA
ENDBRANCH   1  15
TORSDOF 3
ENDMDL
MODEL 4
REMARK VINA RESULT:      -8.5     23.196     24.283
REMARK  3 active torsions:
REMARK  status: ('A' for Active; 'I' for Inactive)
REMARK    1  A    between atoms: C8_15  and  N1_6 
REMARK    2  A    between atoms: C8_15  and  N2_7 
REMARK    3  A    between atoms: C9_16  and  N2_7 
ROOT
HETATM    1  N2  UNK     1      10.047   7.758   8.829  1.00  0.00    -0.333 N 
HETATM    2  H13 UNK     1       9.667   8.700   8.908  1.00  0.00     0.168 HD
ENDROOT
BRANCH   1   3
HETATM    3  C8  UNK     1       9.129   6.790   8.518  1.00  0.00     0.174 C 
HETATM    4  S1  UNK     1       8.976   6.257   6.935  1.00  0.00    -0.041 SA
BRANCH   3   5
HETATM    5  N1  UNK     1       8.386   6.220   9.501  1.00  0.00    -0.358 N 
HETATM    6  C4  UNK     1       7.442   7.000  10.292  1.00  0.00     0.130 C 
HETATM    7  C2  UNK     1       6.076   6.320  10.333  1.00  0.00     0.088 C 
HETATM    8  C1  UNK     1       6.183   4.854  10.772  1.00  0.00     0.167 C 
HETATM    9  O1  UNK     1       6.605   4.788  12.145  1.00  0.00    -0.353 OA
HETATM   10  O2  UNK     1       4.892   4.235  10.639  1.00  0.00    -0.353 OA
HETATM   11  C3  UNK     1       7.199   4.105   9.898  1.00  0.00     0.088 C 
HETATM   12  C6  UNK     1       5.441   4.387  12.864  1.00  0.00     0.197 C 
HETATM   13  C7  UNK     1       4.693   3.544  11.870  1.00  0.00     0.197 C 
HETATM   14  C5  UNK     1       8.549   4.817   9.862  1.00  0.00     0.130 C 
ENDBRANCH   3   5
ENDBRANCH   1   3
BRANCH   1  15
HETATM   15  C9  UNK     1      11.438   7.678   9.082  1.00  0.00     0.036 A 
HETATM   16  C10 UNK     1      12.039   6.438   9.172  1.00  0.00     0.067 A 
HETATM   17  C13 UNK     1      13.412   6.381   9.421  1.00  0.00     0.092 A 
HETATM   18  C12 UNK     1      14.189   7.529   9.580  1.00  0.00     0.004 A 
HETATM   19  O3  UNK     1      13.985   5.096   9.505  1.00  0.00    -0.275 OA
HETATM   20  C14 UNK     1      13.543   8.771   9.482  1.00  0.00     0.017 A 
HETATM   21  C15 UNK     1      15.626   7.376   9.840  1.00  0.00    -0.043 A 
HETATM   22  C11 UNK     1      12.168   8.843   9.233  1.00  0.00     0.030 A 
HETATM   23  C16 UNK     1      16.144   6.142   9.915  1.00  0.00     0.090 A 
HETATM   24  C17 UNK     1      16.490   8.592  10.015  1.00  0.00     0.049 C 
HETATM   25  C18 UNK     1      15.338   4.921   9.748  1.00  0.00     0.288 A 
HETATM   26  O4  UNK     1      15.847   3.808   9.824  1.00  0.00    -0.260 OA
ENDBRANCH   1  15
TORSDOF 3
ENDMDL
MODEL 5
REMARK VINA RESULT:      -8.5      7.235     10.601
REMARK  3 active torsions:
REMARK  status: ('A' for Active; 'I' for Inactive)
REMARK    1  A    between atoms: C8_15  and  N1_6 
REMARK    2  A    between atoms: C8_15  and  N2_7 
REMARK    3  A    between atoms: C9_16  and  N2_7 
ROOT
HETATM    1  N2  UNK     1      20.226  -3.021  36.643  1.00  0.00    -0.333 N 
HETATM    2  H13 UNK     1      21.072  -2.560  36.970  1.00  0.00     0.168 HD
ENDROOT
BRANCH   1   3
HETATM    3  C8  UNK     1      19.360  -2.216  35.952  1.00  0.00     0.174 C 
HETATM    4  S1  UNK     1      17.912  -1.743  36.655  1.00  0.00    -0.041 SA
BRANCH   3   5
HETATM    5  N1  UNK     1      19.700  -1.751  34.724  1.00  0.00    -0.358 N 
HETATM    6  C4  UNK     1      20.997  -2.049  34.128  1.00  0.00     0.130 C 
HETATM    7  C2  UNK     1      20.833  -2.582  32.707  1.00  0.00     0.088 C 
HETATM    8  C1  UNK     1      19.961  -1.656  31.850  1.00  0.00     0.167 C 
HETATM    9  O1  UNK     1      20.642  -0.407  31.638  1.00  0.00    -0.353 OA
HETATM   10  O2  UNK     1      19.720  -2.289  30.582  1.00  0.00    -0.353 OA
HETATM   11  C3  UNK     1      18.620  -1.383  32.546  1.00  0.00     0.088 C 
HETATM   12  C6  UNK     1      21.053  -0.444  30.273  1.00  0.00     0.197 C 
HETATM   13  C7  UNK     1      19.990  -1.277  29.614  1.00  0.00     0.197 C 
HETATM   14  C5  UNK     1      18.816  -0.870  33.970  1.00  0.00     0.130 C 
ENDBRANCH   3   5
ENDBRANCH   1   3
BRANCH   1  15
HETATM   15  C9  UNK     1      20.143  -4.389  37.002  1.00  0.00     0.036 A 
HETATM   16  C10 UNK     1      21.033  -4.901  37.925  1.00  0.00     0.067 A 
HETATM   17  C13 UNK     1      20.933  -6.251  38.267  1.00  0.00     0.092 A 
HETATM   18  C12 UNK     1      19.970  -7.092  37.709  1.00  0.00     0.004 A 
HETATM   19  O3  UNK     1      21.861  -6.733  39.212  1.00  0.00    -0.275 OA
HETATM   20  C14 UNK     1      19.083  -6.536  36.776  1.00  0.00     0.017 A 
HETATM   21  C15 UNK     1      19.937  -8.500  38.126  1.00  0.00    -0.043 A 
HETATM   22  C11 UNK     1      19.171  -5.184  36.424  1.00  0.00     0.030 A 
HETATM   23  C16 UNK     1      20.832  -8.931  39.027  1.00  0.00     0.090 A 
HETATM   24  C17 UNK     1      18.913  -9.430  37.545  1.00  0.00     0.049 C 
HETATM   25  C18 UNK     1      21.854  -8.056  39.625  1.00  0.00     0.288 A 
HETATM   26  O4  UNK     1      22.657  -8.486  40.447  1.00  0.00    -0.260 OA
ENDBRANCH   1  15
TORSDOF 3
ENDMDL
MODEL 6
REMARK VINA RESULT:      -8.5     23.737     25.569
REMARK  3 active torsions:
REMARK  status: ('A' for Active; 'I' for Inactive)
REMARK    1  A    between atoms: C8_15  and  N1_6 
REMARK    2  A    between atoms: C8_15  and  N2_7 
REMARK    3  A    between atoms: C9_16  and  N2_7 
ROOT
HETATM    1  N2  UNK     1      14.670   7.377  10.388  1.00  0.00    -0.333 N 
HETATM    2  H13 UNK     1      14.351   7.507  11.346  1.00  0.00     0.168 HD
ENDROOT
BRANCH   1   3
HETATM    3  C8  UNK     1      14.280   6.200   9.805  1.00  0.00     0.174 C 
HETATM    4  S1  UNK     1      15.269   4.849   9.901  1.00  0.00    -0.041 SA
BRANCH   3   5
HETATM    5  N1  UNK     1      13.068   6.111   9.203  1.00  0.00    -0.358 N 
HETATM    6  C4  UNK     1      12.015   7.086   9.461  1.00  0.00     0.130 C 
HETATM    7  C2  UNK     1      11.436   7.621   8.153  1.00  0.00     0.088 C 
HETATM    8  C1  UNK     1      11.006   6.485   7.216  1.00  0.00     0.167 C 
HETATM    9  O1  UNK     1       9.890   5.780   7.786  1.00  0.00    -0.353 OA
HETATM   10  O2  UNK     1      10.619   7.049   5.952  1.00  0.00    -0.353 OA
HETATM   11  C3  UNK     1      12.163   5.499   7.000  1.00  0.00     0.088 C 
HETATM   12  C6  UNK     1       8.770   6.173   6.995  1.00  0.00     0.197 C 
HETATM   13  C7  UNK     1       9.374   6.427   5.642  1.00  0.00     0.197 C 
HETATM   14  C5  UNK     1      12.733   4.997   8.324  1.00  0.00     0.130 C 
ENDBRANCH   3   5
ENDBRANCH   1   3
BRANCH   1  15
HETATM   15  C9  UNK     1      15.460   8.445   9.897  1.00  0.00     0.036 A 
HETATM   16  C10 UNK     1      14.867   9.429   9.131  1.00  0.00     0.067 A 
HETATM   17  C13 UNK     1      15.663  10.474   8.658  1.00  0.00     0.092 A 
HETATM   18  C12 UNK     1      17.029  10.553   8.932  1.00  0.00     0.004 A 
HETATM   19  O3  UNK     1      15.018  11.457   7.881  1.00  0.00    -0.275 OA
HETATM   20  C14 UNK     1      17.596   9.535   9.713  1.00  0.00     0.017 A 
HETATM   21  C15 UNK     1      17.791  11.687   8.393  1.00  0.00    -0.043 A 
HETATM   22  C11 UNK     1      16.810   8.482  10.194  1.00  0.00     0.030 A 
HETATM   23  C16 UNK     1      17.151  12.607   7.658  1.00  0.00     0.090 A 
HETATM   24  C17 UNK     1      19.262  11.801   8.671  1.00  0.00     0.049 C 
HETATM   25  C18 UNK     1      15.711  12.539   7.360  1.00  0.00     0.288 A 
HETATM   26  O4  UNK     1      15.160  13.400   6.683  1.00  0.00    -0.260 OA
ENDBRANCH   1  15
TORSDOF 3
ENDMDL
MODEL 7
REMARK VINA RESULT:      -8.5      4.577      8.995
REMARK  3 active torsions:
REMARK  status: ('A' for Active; 'I' for Inactive)
REMARK    1  A    between atoms: C8_15  and  N1_6 
REMARK    2  A    between atoms: C8_15  and  N2_7 
REMARK    3  A    between atoms: C9_16  and  N2_7 
ROOT
HETATM    1  N2  UNK     1      18.224   1.373  35.329  1.00  0.00    -0.333 N 
HETATM    2  H13 UNK     1      18.885   1.617  36.064  1.00  0.00     0.168 HD
ENDROOT
BRANCH   1   3
HETATM    3  C8  UNK     1      17.423   0.297  35.607  1.00  0.00     0.174 C 
HETATM    4  S1  UNK     1      15.754   0.466  35.589  1.00  0.00    -0.041 SA
BRANCH   3   5
HETATM    5  N1  UNK     1      17.979  -0.919  35.837  1.00  0.00    -0.358 N 
HETATM    6  C4  UNK     1      18.957  -1.496  34.923  1.00  0.00     0.130 C 
HETATM    7  C2  UNK     1      20.194  -1.973  35.680  1.00  0.00     0.088 C 
HETATM    8  C1  UNK     1      19.824  -2.897  36.848  1.00  0.00     0.167 C 
HETATM    9  O1  UNK     1      19.275  -4.126  36.340  1.00  0.00    -0.353 OA
HETATM   10  O2  UNK     1      21.011  -3.182  37.607  1.00  0.00    -0.353 OA
HETATM   11  C3  UNK     1      18.787  -2.224  37.758  1.00  0.00     0.088 C 
HETATM   12  C6  UNK     1      20.295  -5.098  36.560  1.00  0.00     0.197 C 
HETATM   13  C7  UNK     1      20.991  -4.595  37.795  1.00  0.00     0.197 C 
HETATM   14  C5  UNK     1      17.571  -1.741  36.971  1.00  0.00     0.130 C 
ENDBRANCH   3   5
ENDBRANCH   1   3
BRANCH   1  15
HETATM   15  C9  UNK     1      18.310   2.201  34.183  1.00  0.00     0.036 A 
HETATM   16  C10 UNK     1      18.237   1.630  32.929  1.00  0.00     0.067 A 
HETATM   17  C13 UNK     1      18.322   2.464  31.812  1.00  0.00     0.092 A 
HETATM   18  C12 UNK     1      18.478   3.846  31.924  1.00  0.00     0.004 A 
HETATM   19  O3  UNK     1      18.244   1.839  30.551  1.00  0.00    -0.275 OA
HETATM   20  C14 UNK     1      18.547   4.390  33.215  1.00  0.00     0.017 A 
HETATM   21  C15 UNK     1      18.559   4.648  30.696  1.00  0.00    -0.043 A 
HETATM   22  C11 UNK     1      18.463   3.566  34.343  1.00  0.00     0.030 A 
HETATM   23  C16 UNK     1      18.482   4.027  29.511  1.00  0.00     0.090 A 
HETATM   24  C17 UNK     1      18.725   6.137  30.783  1.00  0.00     0.049 C 
HETATM   25  C18 UNK     1      18.317   2.570  29.375  1.00  0.00     0.288 A 
HETATM   26  O4  UNK     1      18.251   2.038  28.273  1.00  0.00    -0.260 OA
ENDBRANCH   1  15
TORSDOF 3
ENDMDL
MODEL 8
REMARK VINA RESULT:      -8.5      7.227     10.322
REMARK  3 active torsions:
REMARK  status: ('A' for Active; 'I' for Inactive)
REMARK    1  A    between atoms: C8_15  and  N1_6 
REMARK    2  A    between atoms: C8_15  and  N2_7 
REMARK    3  A    between atoms: C9_16  and  N2_7 
ROOT
HETATM    1  N2  UNK     1      18.701  -3.684  36.319  1.00  0.00    -0.333 N 
HETATM    2  H13 UNK     1      17.742  -3.997  36.183  1.00  0.00     0.168 HD
ENDROOT
BRANCH   1   3
HETATM    3  C8  UNK     1      18.897  -2.338  36.161  1.00  0.00     0.174 C 
HETATM    4  S1  UNK     1      18.662  -1.299  37.457  1.00  0.00    -0.041 SA
BRANCH   3   5
HETATM    5  N1  UNK     1      19.339  -1.852  34.974  1.00  0.00    -0.358 N 
HETATM    6  C4  UNK     1      20.658  -2.192  34.455  1.00  0.00     0.130 C 
HETATM    7  C2  UNK     1      20.566  -2.673  33.009  1.00  0.00     0.088 C 
HETATM    8  C1  UNK     1      19.795  -1.682  32.128  1.00  0.00     0.167 C 
HETATM    9  O1  UNK     1      20.543  -0.460  32.003  1.00  0.00    -0.353 OA
HETATM   10  O2  UNK     1      19.612  -2.265  30.827  1.00  0.00    -0.353 OA
HETATM   11  C3  UNK     1      18.424  -1.370  32.744  1.00  0.00     0.088 C 
HETATM   12  C6  UNK     1      21.042  -0.474  30.667  1.00  0.00     0.197 C 
HETATM   13  C7  UNK     1      19.990  -1.237  29.913  1.00  0.00     0.197 C 
HETATM   14  C5  UNK     1      18.546  -0.909  34.194  1.00  0.00     0.130 C 
ENDBRANCH   3   5
ENDBRANCH   1   3
BRANCH   1  15
HETATM   15  C9  UNK     1      19.607  -4.730  36.621  1.00  0.00     0.036 A 
HETATM   16  C10 UNK     1      19.690  -5.818  35.775  1.00  0.00     0.067 A 
HETATM   17  C13 UNK     1      20.591  -6.838  36.089  1.00  0.00     0.092 A 
HETATM   18  C12 UNK     1      21.403  -6.792  37.223  1.00  0.00     0.004 A 
HETATM   19  O3  UNK     1      20.644  -7.930  35.199  1.00  0.00    -0.275 OA
HETATM   20  C14 UNK     1      21.290  -5.671  38.059  1.00  0.00     0.017 A 
HETATM   21  C15 UNK     1      22.322  -7.909  37.478  1.00  0.00    -0.043 A 
HETATM   22  C11 UNK     1      20.392  -4.641  37.755  1.00  0.00     0.030 A 
HETATM   23  C16 UNK     1      22.351  -8.934  36.614  1.00  0.00     0.090 A 
HETATM   24  C17 UNK     1      23.208  -7.889  38.688  1.00  0.00     0.049 C 
HETATM   25  C18 UNK     1      21.502  -8.997  35.413  1.00  0.00     0.288 A 
HETATM   26  O4  UNK     1      21.556  -9.952  34.646  1.00  0.00    -0.260 OA
ENDBRANCH   1  15
TORSDOF 3
ENDMDL
MODEL 9
REMARK VINA RESULT:      -8.5      7.450     10.745
REMARK  3 active torsions:
REMARK  status: ('A' for Active; 'I' for Inactive)
REMARK    1  A    between atoms: C8_15  and  N1_6 
REMARK    2  A    between atoms: C8_15  and  N2_7 
REMARK    3  A    between atoms: C9_16  and  N2_7 
ROOT
HETATM    1  N2  UNK     1      19.284  -4.991  36.410  1.00  0.00    -0.333 N 
HETATM    2  H13 UNK     1      18.472  -4.778  35.833  1.00  0.00     0.168 HD
ENDROOT
BRANCH   1   3
HETATM    3  C8  UNK     1      20.006  -3.899  36.814  1.00  0.00     0.174 C 
HETATM    4  S1  UNK     1      21.364  -4.101  37.777  1.00  0.00    -0.041 SA
BRANCH   3   5
HETATM    5  N1  UNK     1      19.656  -2.659  36.387  1.00  0.00    -0.358 N 
HETATM    6  C4  UNK     1      20.217  -2.087  35.169  1.00  0.00     0.130 C 
HETATM    7  C2  UNK     1      19.112  -1.547  34.263  1.00  0.00     0.088 C 
HETATM    8  C1  UNK     1      18.175  -0.594  35.016  1.00  0.00     0.167 C 
HETATM    9  O1  UNK     1      18.888   0.599  35.383  1.00  0.00    -0.353 OA
HETATM   10  O2  UNK     1      17.077  -0.248  34.155  1.00  0.00    -0.353 OA
HETATM   11  C3  UNK     1      17.634  -1.265  36.287  1.00  0.00     0.088 C 
HETATM   12  C6  UNK     1      18.383   1.608  34.511  1.00  0.00     0.197 C 
HETATM   13  C7  UNK     1      16.968   1.170  34.259  1.00  0.00     0.197 C 
HETATM   14  C5  UNK     1      18.759  -1.811  37.162  1.00  0.00     0.130 C 
ENDBRANCH   3   5
ENDBRANCH   1   3
BRANCH   1  15
HETATM   15  C9  UNK     1      19.481  -6.375  36.636  1.00  0.00     0.036 A 
HETATM   16  C10 UNK     1      20.350  -7.077  35.824  1.00  0.00     0.067 A 
HETATM   17  C13 UNK     1      20.531  -8.440  36.065  1.00  0.00     0.092 A 
HETATM   18  C12 UNK     1      19.865  -9.110  37.092  1.00  0.00     0.004 A 
HETATM   19  O3  UNK     1      21.426  -9.118  35.213  1.00  0.00    -0.275 OA
HETATM   20  C14 UNK     1      18.990  -8.364  37.895  1.00  0.00     0.017 A 
HETATM   21  C15 UNK     1      20.114 -10.546  37.273  1.00  0.00    -0.043 A 
HETATM   22  C11 UNK     1      18.800  -6.997  37.665  1.00  0.00     0.030 A 
HETATM   23  C16 UNK     1      20.971 -11.165  36.448  1.00  0.00     0.090 A 
HETATM   24  C17 UNK     1      19.414 -11.296  38.369  1.00  0.00     0.049 C 
HETATM   25  C18 UNK     1      21.682 -10.472  35.361  1.00  0.00     0.288 A 
HETATM   26  O4  UNK     1      22.459 -11.072  34.626  1.00  0.00    -0.260 OA
ENDBRANCH   1  15
TORSDOF 3
ENDMDL
MODEL 10
REMARK VINA RESULT:      -8.4      7.562     10.756
REMARK  3 active torsions:
REMARK  status: ('A' for Active; 'I' for Inactive)
REMARK    1  A    between atoms: C8_15  and  N1_6 
REMARK    2  A    between atoms: C8_15  and  N2_7 
REMARK    3  A    between atoms: C9_16  and  N2_7 
ROOT
HETATM    1  N2  UNK     1      19.371  -5.093  36.228  1.00  0.00    -0.333 N 
HETATM    2  H13 UNK     1      18.499  -4.898  35.741  1.00  0.00     0.168 HD
ENDROOT
BRANCH   1   3
HETATM    3  C8  UNK     1      19.997  -3.995  36.755  1.00  0.00     0.174 C 
HETATM    4  S1  UNK     1      21.246  -4.189  37.858  1.00  0.00    -0.041 SA
BRANCH   3   5
HETATM    5  N1  UNK     1      19.646  -2.751  36.341  1.00  0.00    -0.358 N 
HETATM    6  C4  UNK     1      20.216  -2.161  35.136  1.00  0.00     0.130 C 
HETATM    7  C2  UNK     1      19.118  -1.614  34.227  1.00  0.00     0.088 C 
HETATM    8  C1  UNK     1      18.170  -0.674  34.984  1.00  0.00     0.167 C 
HETATM    9  O1  UNK     1      18.875   0.517  35.372  1.00  0.00    -0.353 OA
HETATM   10  O2  UNK     1      17.079  -0.321  34.117  1.00  0.00    -0.353 OA
HETATM   11  C3  UNK     1      17.620  -1.363  36.240  1.00  0.00     0.088 C 
HETATM   12  C6  UNK     1      18.374   1.535  34.508  1.00  0.00     0.197 C 
HETATM   13  C7  UNK     1      16.963   1.095  34.238  1.00  0.00     0.197 C 
HETATM   14  C5  UNK     1      18.739  -1.916  37.119  1.00  0.00     0.130 C 
ENDBRANCH   3   5
ENDBRANCH   1   3
BRANCH   1  15
HETATM   15  C9  UNK     1      19.736  -6.462  36.222  1.00  0.00     0.036 A 
HETATM   16  C10 UNK     1      19.275  -7.289  37.227  1.00  0.00     0.067 A 
HETATM   17  C13 UNK     1      19.645  -8.636  37.202  1.00  0.00     0.092 A 
HETATM   18  C12 UNK     1      20.461  -9.166  36.201  1.00  0.00     0.004 A 
HETATM   19  O3  UNK     1      19.153  -9.444  38.246  1.00  0.00    -0.275 OA
HETATM   20  C14 UNK     1      20.909  -8.295  35.197  1.00  0.00     0.017 A 
HETATM   21  C15 UNK     1      20.801 -10.594  36.253  1.00  0.00    -0.043 A 
HETATM   22  C11 UNK     1      20.546  -6.943  35.210  1.00  0.00     0.030 A 
HETATM   23  C16 UNK     1      20.318 -11.339  37.258  1.00  0.00     0.090 A 
HETATM   24  C17 UNK     1      21.675 -11.195  35.192  1.00  0.00     0.049 C 
HETATM   25  C18 UNK     1      19.457 -10.795  38.320  1.00  0.00     0.288 A 
HETATM   26  O4  UNK     1      19.035 -11.508  39.224  1.00  0.00    -0.260 OA
ENDBRANCH   1  15
TORSDOF 3
ENDMDL
