MODEL 1
REMARK VINA RESULT:      -8.5      0.000      0.000
REMARK  4 active torsions:
REMARK  status: ('A' for Active; 'I' for Inactive)
REMARK    1  A    between atoms: C7_12  and  O2_2 
REMARK    2  A    between atoms: C9_14  and  O4_4 
REMARK    3  A    between atoms: C15_20  and  O5_5 
REMARK    4  A    between atoms: C3_8  and  C4_9 
ROOT
HETATM    1  O1  UNK     1      19.073  -0.997  17.820  1.00  0.00    -0.306 OA
HETATM    2  O3  UNK     1      19.224   2.224  15.330  1.00  0.00    -0.287 OA
HETATM    3  C1  UNK     1      19.130   1.416  17.549  1.00  0.00     0.051 A 
HETATM    4  C2  UNK     1      19.081   0.272  18.343  1.00  0.00     0.126 A 
HETATM    5  C3  UNK     1      19.108  -1.144  16.442  1.00  0.00     0.090 A 
HETATM    6  C5  UNK     1      19.177   1.264  16.086  1.00  0.00     0.187 A 
HETATM    7  C6  UNK     1      19.163  -0.122  15.574  1.00  0.00     0.093 A 
HETATM    8  C7  UNK     1      19.038   0.388  19.732  1.00  0.00     0.134 A 
HETATM    9  C8  UNK     1      19.136   2.684  18.135  1.00  0.00     0.021 A 
HETATM   10  C9  UNK     1      19.043   1.653  20.322  1.00  0.00     0.101 A 
HETATM   11  C10 UNK     1      19.092   2.798  19.526  1.00  0.00     0.040 A 
ENDROOT
BRANCH   5  12
HETATM   12  C4  UNK     1      19.101  -2.549  15.989  1.00  0.00    -0.002 A 
HETATM   13  C11 UNK     1      17.910  -3.142  15.561  1.00  0.00     0.017 A 
HETATM   14  C13 UNK     1      17.903  -4.470  15.133  1.00  0.00     0.037 A 
HETATM   15  C15 UNK     1      19.086  -5.209  15.131  1.00  0.00     0.065 A 
HETATM   16  C14 UNK     1      20.277  -4.620  15.557  1.00  0.00     0.037 A 
HETATM   17  C12 UNK     1      20.284  -3.292  15.985  1.00  0.00     0.017 A 
BRANCH  15  18
HETATM   18  O5  UNK     1      19.078  -6.504  14.713  1.00  0.00    -0.361 OA
HETATM   19  H10 UNK     1      18.227  -6.908  14.954  1.00  0.00     0.217 HD
ENDBRANCH  15  18
ENDBRANCH   5  12
BRANCH   8  20
HETATM   20  O2  UNK     1      18.989  -0.726  20.516  1.00  0.00    -0.356 OA
HETATM   21  H8  UNK     1      18.111  -0.771  20.934  1.00  0.00     0.218 HD
ENDBRANCH   8  20
BRANCH  10  22
HETATM   22  O4  UNK     1      19.001   1.784  21.678  1.00  0.00    -0.358 OA
HETATM   23  H9  UNK     1      19.307   0.956  22.085  1.00  0.00     0.217 HD
ENDBRANCH  10  22
TORSDOF 4
ENDMDL
MODEL 2
REMARK VINA RESULT:      -8.2     15.526     18.285
REMARK  4 active torsions:
REMARK  status: ('A' for Active; 'I' for Inactive)
REMARK    1  A    between atoms: C7_12  and  O2_2 
REMARK    2  A    between atoms: C9_14  and  O4_4 
REMARK    3  A    between atoms: C15_20  and  O5_5 
REMARK    4  A    between atoms: C3_8  and  C4_9 
ROOT
HETATM    1  O1  UNK     1      17.529   8.588  32.922  1.00  0.00    -0.306 OA
HETATM    2  O3  UNK     1      14.093   6.645  31.910  1.00  0.00    -0.287 OA
HETATM    3  C1  UNK     1      15.100   8.538  32.905  1.00  0.00     0.051 A 
HETATM    4  C2  UNK     1      16.312   9.148  33.221  1.00  0.00     0.126 A 
HETATM    5  C3  UNK     1      17.550   7.357  32.284  1.00  0.00     0.090 A 
HETATM    6  C5  UNK     1      15.119   7.236  32.219  1.00  0.00     0.187 A 
HETATM    7  C6  UNK     1      16.452   6.674  31.923  1.00  0.00     0.093 A 
HETATM    8  C7  UNK     1      16.323  10.383  33.869  1.00  0.00     0.134 A 
HETATM    9  C8  UNK     1      13.891   9.155  33.233  1.00  0.00     0.021 A 
HETATM   10  C9  UNK     1      15.117  11.003  34.200  1.00  0.00     0.101 A 
HETATM   11  C10 UNK     1      13.904  10.390  33.883  1.00  0.00     0.040 A 
ENDROOT
BRANCH   5  12
HETATM   12  C4  UNK     1      18.908   6.849  32.006  1.00  0.00    -0.002 A 
HETATM   13  C11 UNK     1      19.901   6.929  32.985  1.00  0.00     0.017 A 
HETATM   14  C13 UNK     1      21.185   6.450  32.722  1.00  0.00     0.037 A 
HETATM   15  C15 UNK     1      21.479   5.889  31.479  1.00  0.00     0.065 A 
HETATM   16  C14 UNK     1      20.490   5.807  30.499  1.00  0.00     0.037 A 
HETATM   17  C12 UNK     1      19.206   6.287  30.762  1.00  0.00     0.017 A 
BRANCH  15  18
HETATM   18  O5  UNK     1      22.731   5.422  31.223  1.00  0.00    -0.361 OA
HETATM   19  H10 UNK     1      22.781   5.145  30.292  1.00  0.00     0.217 HD
ENDBRANCH  15  18
ENDBRANCH   5  12
BRANCH   8  20
HETATM   20  O2  UNK     1      17.505  10.987  34.182  1.00  0.00    -0.356 OA
HETATM   21  H8  UNK     1      17.380  11.951  34.133  1.00  0.00     0.218 HD
ENDBRANCH   8  20
BRANCH  10  22
HETATM   22  O4  UNK     1      15.110  12.210  34.833  1.00  0.00    -0.358 OA
HETATM   23  H9  UNK     1      14.203  12.560  34.837  1.00  0.00     0.217 HD
ENDBRANCH  10  22
TORSDOF 4
ENDMDL
MODEL 3
REMARK VINA RESULT:      -8.0     13.198     17.090
REMARK  4 active torsions:
REMARK  status: ('A' for Active; 'I' for Inactive)
REMARK    1  A    between atoms: C7_12  and  O2_2 
REMARK    2  A    between atoms: C9_14  and  O4_4 
REMARK    3  A    between atoms: C15_20  and  O5_5 
REMARK    4  A    between atoms: C3_8  and  C4_9 
ROOT
HETATM    1  O1  UNK     1      18.248   1.570  32.861  1.00  0.00    -0.306 OA
HETATM    2  O3  UNK     1      18.452   5.569  33.616  1.00  0.00    -0.287 OA
HETATM    3  C1  UNK     1      18.398   3.839  32.006  1.00  0.00     0.051 A 
HETATM    4  C2  UNK     1      18.325   2.460  31.819  1.00  0.00     0.126 A 
HETATM    5  C3  UNK     1      18.251   2.067  34.155  1.00  0.00     0.090 A 
HETATM    6  C5  UNK     1      18.392   4.370  33.378  1.00  0.00     0.187 A 
HETATM    7  C6  UNK     1      18.311   3.372  34.464  1.00  0.00     0.093 A 
HETATM    8  C7  UNK     1      18.327   1.930  30.529  1.00  0.00     0.134 A 
HETATM    9  C8  UNK     1      18.475   4.698  30.908  1.00  0.00     0.021 A 
HETATM   10  C9  UNK     1      18.404   2.785  29.428  1.00  0.00     0.101 A 
HETATM   11  C10 UNK     1      18.478   4.166  29.618  1.00  0.00     0.040 A 
ENDROOT
BRANCH   5  12
HETATM   12  C4  UNK     1      18.159   1.025  35.197  1.00  0.00    -0.002 A 
HETATM   13  C11 UNK     1      17.824   1.372  36.509  1.00  0.00     0.017 A 
HETATM   14  C13 UNK     1      17.737   0.388  37.494  1.00  0.00     0.037 A 
HETATM   15  C15 UNK     1      17.985  -0.947  37.171  1.00  0.00     0.065 A 
HETATM   16  C14 UNK     1      18.320  -1.297  35.862  1.00  0.00     0.037 A 
HETATM   17  C12 UNK     1      18.407  -0.312  34.877  1.00  0.00     0.017 A 
BRANCH  15  18
HETATM   18  O5  UNK     1      17.901  -1.906  38.132  1.00  0.00    -0.361 OA
HETATM   19  H10 UNK     1      17.809  -2.774  37.704  1.00  0.00     0.217 HD
ENDBRANCH  15  18
ENDBRANCH   5  12
BRANCH   8  20
HETATM   20  O2  UNK     1      18.255   0.582  30.337  1.00  0.00    -0.356 OA
HETATM   21  H8  UNK     1      17.595   0.405  29.644  1.00  0.00     0.218 HD
ENDBRANCH   8  20
BRANCH  10  22
HETATM   22  O4  UNK     1      18.408   2.284  28.161  1.00  0.00    -0.358 OA
HETATM   23  H9  UNK     1      18.549   1.323  28.202  1.00  0.00     0.217 HD
ENDBRANCH  10  22
TORSDOF 4
ENDMDL
MODEL 4
REMARK VINA RESULT:      -8.0     12.675     16.707
REMARK  4 active torsions:
REMARK  status: ('A' for Active; 'I' for Inactive)
REMARK    1  A    between atoms: C7_12  and  O2_2 
REMARK    2  A    between atoms: C9_14  and  O4_4 
REMARK    3  A    between atoms: C15_20  and  O5_5 
REMARK    4  A    between atoms: C3_8  and  C4_9 
ROOT
HETATM    1  O1  UNK     1      19.063  -0.045  32.755  1.00  0.00    -0.306 OA
HETATM    2  O3  UNK     1      18.511   2.919  30.015  1.00  0.00    -0.287 OA
HETATM    3  C1  UNK     1      19.285   0.732  30.465  1.00  0.00     0.051 A 
HETATM    4  C2  UNK     1      19.445  -0.239  31.451  1.00  0.00     0.126 A 
HETATM    5  C3  UNK     1      18.503   1.173  33.105  1.00  0.00     0.090 A 
HETATM    6  C5  UNK     1      18.682   2.023  30.830  1.00  0.00     0.187 A 
HETATM    7  C6  UNK     1      18.292   2.183  32.246  1.00  0.00     0.093 A 
HETATM    8  C7  UNK     1      20.012  -1.473  31.131  1.00  0.00     0.134 A 
HETATM    9  C8  UNK     1      19.692   0.480  29.152  1.00  0.00     0.021 A 
HETATM   10  C9  UNK     1      20.420  -1.729  29.821  1.00  0.00     0.101 A 
HETATM   11  C10 UNK     1      20.261  -0.755  28.834  1.00  0.00     0.040 A 
ENDROOT
BRANCH   5  12
HETATM   12  C4  UNK     1      18.125   1.273  34.528  1.00  0.00    -0.002 A 
HETATM   13  C11 UNK     1      18.913   2.013  35.413  1.00  0.00     0.017 A 
HETATM   14  C13 UNK     1      18.557   2.107  36.759  1.00  0.00     0.037 A 
HETATM   15  C15 UNK     1      17.410   1.461  37.224  1.00  0.00     0.065 A 
HETATM   16  C14 UNK     1      16.621   0.721  36.343  1.00  0.00     0.037 A 
HETATM   17  C12 UNK     1      16.978   0.627  34.997  1.00  0.00     0.017 A 
BRANCH  15  18
HETATM   18  O5  UNK     1      17.063   1.553  38.536  1.00  0.00    -0.361 OA
HETATM   19  H10 UNK     1      16.884   0.660  38.878  1.00  0.00     0.217 HD
ENDBRANCH  15  18
ENDBRANCH   5  12
BRANCH   8  20
HETATM   20  O2  UNK     1      20.171  -2.428  32.090  1.00  0.00    -0.356 OA
HETATM   21  H8  UNK     1      20.735  -2.064  32.796  1.00  0.00     0.218 HD
ENDBRANCH   8  20
BRANCH  10  22
HETATM   22  O4  UNK     1      20.976  -2.928  29.492  1.00  0.00    -0.358 OA
HETATM   23  H9  UNK     1      20.268  -3.584  29.372  1.00  0.00     0.217 HD
ENDBRANCH  10  22
TORSDOF 4
ENDMDL
MODEL 5
REMARK VINA RESULT:      -8.0     13.254     17.248
REMARK  4 active torsions:
REMARK  status: ('A' for Active; 'I' for Inactive)
REMARK    1  A    between atoms: C7_12  and  O2_2 
REMARK    2  A    between atoms: C9_14  and  O4_4 
REMARK    3  A    between atoms: C15_20  and  O5_5 
REMARK    4  A    between atoms: C3_8  and  C4_9 
ROOT
HETATM    1  O1  UNK     1      18.544  -0.099  32.771  1.00  0.00    -0.306 OA
HETATM    2  O3  UNK     1      20.854  -3.356  33.583  1.00  0.00    -0.287 OA
HETATM    3  C1  UNK     1      20.052  -1.826  31.970  1.00  0.00     0.051 A 
HETATM    4  C2  UNK     1      19.245  -0.710  31.761  1.00  0.00     0.126 A 
HETATM    5  C3  UNK     1      18.639  -0.623  34.051  1.00  0.00     0.090 A 
HETATM    6  C5  UNK     1      20.163  -2.379  33.328  1.00  0.00     0.187 A 
HETATM    7  C6  UNK     1      19.387  -1.688  34.379  1.00  0.00     0.093 A 
HETATM    8  C7  UNK     1      19.125  -0.165  30.483  1.00  0.00     0.134 A 
HETATM    9  C8  UNK     1      20.744  -2.407  30.904  1.00  0.00     0.021 A 
HETATM   10  C9  UNK     1      19.814  -0.742  29.415  1.00  0.00     0.101 A 
HETATM   11  C10 UNK     1      20.620  -1.861  29.626  1.00  0.00     0.040 A 
ENDROOT
BRANCH   5  12
HETATM   12  C4  UNK     1      17.850   0.113  35.059  1.00  0.00    -0.002 A 
HETATM   13  C11 UNK     1      16.473  -0.099  35.164  1.00  0.00     0.017 A 
HETATM   14  C13 UNK     1      15.728   0.596  36.117  1.00  0.00     0.037 A 
HETATM   15  C15 UNK     1      16.357   1.505  36.968  1.00  0.00     0.065 A 
HETATM   16  C14 UNK     1      17.731   1.720  36.866  1.00  0.00     0.037 A 
HETATM   17  C12 UNK     1      18.477   1.025  35.913  1.00  0.00     0.017 A 
BRANCH  15  18
HETATM   18  O5  UNK     1      15.629   2.183  37.896  1.00  0.00    -0.361 OA
HETATM   19  H10 UNK     1      16.143   2.242  38.719  1.00  0.00     0.217 HD
ENDBRANCH  15  18
ENDBRANCH   5  12
BRANCH   8  20
HETATM   20  O2  UNK     1      18.337   0.928  30.271  1.00  0.00    -0.356 OA
HETATM   21  H8  UNK     1      18.520   1.270  29.378  1.00  0.00     0.218 HD
ENDBRANCH   8  20
BRANCH  10  22
HETATM   22  O4  UNK     1      19.706  -0.222  28.160  1.00  0.00    -0.358 OA
HETATM   23  H9  UNK     1      19.748  -0.946  27.513  1.00  0.00     0.217 HD
ENDBRANCH  10  22
TORSDOF 4
ENDMDL
MODEL 6
REMARK VINA RESULT:      -7.9     11.415     13.794
REMARK  4 active torsions:
REMARK  status: ('A' for Active; 'I' for Inactive)
REMARK    1  A    between atoms: C7_12  and  O2_2 
REMARK    2  A    between atoms: C9_14  and  O4_4 
REMARK    3  A    between atoms: C15_20  and  O5_5 
REMARK    4  A    between atoms: C3_8  and  C4_9 
ROOT
HETATM    1  O1  UNK     1      11.913   5.711   9.479  1.00  0.00    -0.306 OA
HETATM    2  O3  UNK     1      10.435   7.297   6.029  1.00  0.00    -0.287 OA
HETATM    3  C1  UNK     1      10.033   6.010   7.970  1.00  0.00     0.051 A 
HETATM    4  C2  UNK     1      10.601   5.498   9.134  1.00  0.00     0.126 A 
HETATM    5  C3  UNK     1      12.706   6.463   8.626  1.00  0.00     0.090 A 
HETATM    6  C5  UNK     1      10.869   6.815   7.066  1.00  0.00     0.187 A 
HETATM    7  C6  UNK     1      12.273   7.014   7.480  1.00  0.00     0.093 A 
HETATM    8  C7  UNK     1       9.830   4.732  10.009  1.00  0.00     0.134 A 
HETATM    9  C8  UNK     1       8.692   5.761   7.669  1.00  0.00     0.021 A 
HETATM   10  C9  UNK     1       8.490   4.481   9.712  1.00  0.00     0.101 A 
HETATM   11  C10 UNK     1       7.923   4.993   8.545  1.00  0.00     0.040 A 
ENDROOT
BRANCH   5  12
HETATM   12  C4  UNK     1      14.095   6.635   9.095  1.00  0.00    -0.002 A 
HETATM   13  C11 UNK     1      14.949   5.532   9.176  1.00  0.00     0.017 A 
HETATM   14  C13 UNK     1      16.263   5.694   9.619  1.00  0.00     0.037 A 
HETATM   15  C15 UNK     1      16.725   6.959   9.983  1.00  0.00     0.065 A 
HETATM   16  C14 UNK     1      15.875   8.062   9.904  1.00  0.00     0.037 A 
HETATM   17  C12 UNK     1      14.562   7.900   9.461  1.00  0.00     0.017 A 
BRANCH  15  18
HETATM   18  O5  UNK     1      18.005   7.116  10.416  1.00  0.00    -0.361 OA
HETATM   19  H10 UNK     1      18.596   6.583   9.856  1.00  0.00     0.217 HD
ENDBRANCH  15  18
ENDBRANCH   5  12
BRANCH   8  20
HETATM   20  O2  UNK     1      10.379   4.228  11.151  1.00  0.00    -0.356 OA
HETATM   21  H8  UNK     1       9.825   4.500  11.904  1.00  0.00     0.218 HD
ENDBRANCH   8  20
BRANCH  10  22
HETATM   22  O4  UNK     1       7.723   3.734  10.556  1.00  0.00    -0.358 OA
HETATM   23  H9  UNK     1       8.246   2.979  10.874  1.00  0.00     0.217 HD
ENDBRANCH  10  22
TORSDOF 4
ENDMDL
MODEL 7
REMARK VINA RESULT:      -7.9      1.985      6.572
REMARK  4 active torsions:
REMARK  status: ('A' for Active; 'I' for Inactive)
REMARK    1  A    between atoms: C7_12  and  O2_2 
REMARK    2  A    between atoms: C9_14  and  O4_4 
REMARK    3  A    between atoms: C15_20  and  O5_5 
REMARK    4  A    between atoms: C3_8  and  C4_9 
ROOT
HETATM    1  O1  UNK     1      20.457  -2.003  17.763  1.00  0.00    -0.306 OA
HETATM    2  O3  UNK     1      17.960  -2.215  14.550  1.00  0.00    -0.287 OA
HETATM    3  C1  UNK     1      19.832  -3.101  15.688  1.00  0.00     0.051 A 
HETATM    4  C2  UNK     1      20.647  -2.973  16.811  1.00  0.00     0.126 A 
HETATM    5  C3  UNK     1      19.411  -1.108  17.594  1.00  0.00     0.090 A 
HETATM    6  C5  UNK     1      18.716  -2.159  15.510  1.00  0.00     0.187 A 
HETATM    7  C6  UNK     1      18.555  -1.132  16.560  1.00  0.00     0.093 A 
HETATM    8  C7  UNK     1      21.711  -3.854  17.005  1.00  0.00     0.134 A 
HETATM    9  C8  UNK     1      20.072  -4.108  14.751  1.00  0.00     0.021 A 
HETATM   10  C9  UNK     1      21.955  -4.862  16.071  1.00  0.00     0.101 A 
HETATM   11  C10 UNK     1      21.138  -4.988  14.946  1.00  0.00     0.040 A 
ENDROOT
BRANCH   5  12
HETATM   12  C4  UNK     1      19.294  -0.112  18.677  1.00  0.00    -0.002 A 
HETATM   13  C11 UNK     1      19.528  -0.486  20.003  1.00  0.00     0.017 A 
HETATM   14  C13 UNK     1      19.417   0.455  21.027  1.00  0.00     0.037 A 
HETATM   15  C15 UNK     1      19.072   1.774  20.728  1.00  0.00     0.065 A 
HETATM   16  C14 UNK     1      18.837   2.151  19.405  1.00  0.00     0.037 A 
HETATM   17  C12 UNK     1      18.948   1.209  18.381  1.00  0.00     0.017 A 
BRANCH  15  18
HETATM   18  O5  UNK     1      18.963   2.691  21.727  1.00  0.00    -0.361 OA
HETATM   19  H10 UNK     1      19.394   3.517  21.445  1.00  0.00     0.217 HD
ENDBRANCH  15  18
ENDBRANCH   5  12
BRANCH   8  20
HETATM   20  O2  UNK     1      22.513  -3.736  18.101  1.00  0.00    -0.356 OA
HETATM   21  H8  UNK     1      22.047  -3.200  18.767  1.00  0.00     0.218 HD
ENDBRANCH   8  20
BRANCH  10  22
HETATM   22  O4  UNK     1      22.991  -5.731  16.245  1.00  0.00    -0.358 OA
HETATM   23  H9  UNK     1      23.634  -5.337  16.858  1.00  0.00     0.217 HD
ENDBRANCH  10  22
TORSDOF 4
ENDMDL
MODEL 8
REMARK VINA RESULT:      -7.9     13.990     16.899
REMARK  4 active torsions:
REMARK  status: ('A' for Active; 'I' for Inactive)
REMARK    1  A    between atoms: C7_12  and  O2_2 
REMARK    2  A    between atoms: C9_14  and  O4_4 
REMARK    3  A    between atoms: C15_20  and  O5_5 
REMARK    4  A    between atoms: C3_8  and  C4_9 
ROOT
HETATM    1  O1  UNK     1      16.675   5.730  32.319  1.00  0.00    -0.306 OA
HETATM    2  O3  UNK     1      19.503   8.190  33.916  1.00  0.00    -0.287 OA
HETATM    3  C1  UNK     1      17.260   7.905  33.230  1.00  0.00     0.051 A 
HETATM    4  C2  UNK     1      16.342   7.012  32.680  1.00  0.00     0.126 A 
HETATM    5  C3  UNK     1      17.983   5.311  32.504  1.00  0.00     0.090 A 
HETATM    6  C5  UNK     1      18.647   7.460  33.436  1.00  0.00     0.187 A 
HETATM    7  C6  UNK     1      18.955   6.074  33.029  1.00  0.00     0.093 A 
HETATM    8  C7  UNK     1      15.020   7.407  32.475  1.00  0.00     0.134 A 
HETATM    9  C8  UNK     1      16.865   9.198  33.579  1.00  0.00     0.021 A 
HETATM   10  C9  UNK     1      14.622   8.699  32.822  1.00  0.00     0.101 A 
HETATM   11  C10 UNK     1      15.542   9.592  33.372  1.00  0.00     0.040 A 
ENDROOT
BRANCH   5  12
HETATM   12  C4  UNK     1      18.230   3.916  32.088  1.00  0.00    -0.002 A 
HETATM   13  C11 UNK     1      18.170   2.883  33.027  1.00  0.00     0.017 A 
HETATM   14  C13 UNK     1      18.404   1.564  32.634  1.00  0.00     0.037 A 
HETATM   15  C15 UNK     1      18.698   1.275  31.302  1.00  0.00     0.065 A 
HETATM   16  C14 UNK     1      18.758   2.304  30.361  1.00  0.00     0.037 A 
HETATM   17  C12 UNK     1      18.525   3.622  30.754  1.00  0.00     0.017 A 
BRANCH  15  18
HETATM   18  O5  UNK     1      18.926  -0.011  30.919  1.00  0.00    -0.361 OA
HETATM   19  H10 UNK     1      19.549  -0.012  30.172  1.00  0.00     0.217 HD
ENDBRANCH  15  18
ENDBRANCH   5  12
BRANCH   8  20
HETATM   20  O2  UNK     1      14.117   6.540  31.938  1.00  0.00    -0.356 OA
HETATM   21  H8  UNK     1      13.597   6.148  32.662  1.00  0.00     0.218 HD
ENDBRANCH   8  20
BRANCH  10  22
HETATM   22  O4  UNK     1      13.334   9.102  32.628  1.00  0.00    -0.358 OA
HETATM   23  H9  UNK     1      12.734   8.410  32.955  1.00  0.00     0.217 HD
ENDBRANCH  10  22
TORSDOF 4
ENDMDL
MODEL 9
REMARK VINA RESULT:      -7.8     17.738     20.755
REMARK  4 active torsions:
REMARK  status: ('A' for Active; 'I' for Inactive)
REMARK    1  A    between atoms: C7_12  and  O2_2 
REMARK    2  A    between atoms: C9_14  and  O4_4 
REMARK    3  A    between atoms: C15_20  and  O5_5 
REMARK    4  A    between atoms: C3_8  and  C4_9 
ROOT
HETATM    1  O1  UNK     1      20.551  -6.149  35.729  1.00  0.00    -0.306 OA
HETATM    2  O3  UNK     1      20.650  -7.345  39.623  1.00  0.00    -0.287 OA
HETATM    3  C1  UNK     1      20.924  -7.922  37.347  1.00  0.00     0.051 A 
HETATM    4  C2  UNK     1      20.872  -7.447  36.038  1.00  0.00     0.126 A 
HETATM    5  C3  UNK     1      20.257  -5.277  36.765  1.00  0.00     0.090 A 
HETATM    6  C5  UNK     1      20.622  -6.997  38.450  1.00  0.00     0.187 A 
HETATM    7  C6  UNK     1      20.278  -5.612  38.065  1.00  0.00     0.093 A 
HETATM    8  C7  UNK     1      21.156  -8.303  34.974  1.00  0.00     0.134 A 
HETATM    9  C8  UNK     1      21.257  -9.254  37.603  1.00  0.00     0.021 A 
HETATM   10  C9  UNK     1      21.490  -9.635  35.225  1.00  0.00     0.101 A 
HETATM   11  C10 UNK     1      21.539 -10.109  36.537  1.00  0.00     0.040 A 
ENDROOT
BRANCH   5  12
HETATM   12  C4  UNK     1      19.931  -3.907  36.322  1.00  0.00    -0.002 A 
HETATM   13  C11 UNK     1      20.256  -3.493  35.027  1.00  0.00     0.017 A 
HETATM   14  C13 UNK     1      19.947  -2.198  34.608  1.00  0.00     0.037 A 
HETATM   15  C15 UNK     1      19.313  -1.314  35.481  1.00  0.00     0.065 A 
HETATM   16  C14 UNK     1      18.988  -1.724  36.774  1.00  0.00     0.037 A 
HETATM   17  C12 UNK     1      19.296  -3.019  37.194  1.00  0.00     0.017 A 
BRANCH  15  18
HETATM   18  O5  UNK     1      19.013  -0.052  35.072  1.00  0.00    -0.361 OA
HETATM   19  H10 UNK     1      19.245   0.038  34.131  1.00  0.00     0.217 HD
ENDBRANCH  15  18
ENDBRANCH   5  12
BRANCH   8  20
HETATM   20  O2  UNK     1      21.108  -7.846  33.690  1.00  0.00    -0.356 OA
HETATM   21  H8  UNK     1      20.219  -7.486  33.525  1.00  0.00     0.218 HD
ENDBRANCH   8  20
BRANCH  10  22
HETATM   22  O4  UNK     1      21.769 -10.484  34.197  1.00  0.00    -0.358 OA
HETATM   23  H9  UNK     1      21.397 -10.120  33.376  1.00  0.00     0.217 HD
ENDBRANCH  10  22
TORSDOF 4
ENDMDL
MODEL 10
REMARK VINA RESULT:      -7.8     12.879     16.462
REMARK  4 active torsions:
REMARK  status: ('A' for Active; 'I' for Inactive)
REMARK    1  A    between atoms: C7_12  and  O2_2 
REMARK    2  A    between atoms: C9_14  and  O4_4 
REMARK    3  A    between atoms: C15_20  and  O5_5 
REMARK    4  A    between atoms: C3_8  and  C4_9 
ROOT
HETATM    1  O1  UNK     1      19.058  -0.180  32.731  1.00  0.00    -0.306 OA
HETATM    2  O3  UNK     1      20.945  -2.889  30.342  1.00  0.00    -0.287 OA
HETATM    3  C1  UNK     1      19.850  -0.802  30.520  1.00  0.00     0.051 A 
HETATM    4  C2  UNK     1      19.216   0.080  31.392  1.00  0.00     0.126 A 
HETATM    5  C3  UNK     1      19.544  -1.378  33.232  1.00  0.00     0.090 A 
HETATM    6  C5  UNK     1      20.375  -2.070  31.050  1.00  0.00     0.187 A 
HETATM    7  C6  UNK     1      20.178  -2.304  32.495  1.00  0.00     0.093 A 
HETATM    8  C7  UNK     1      18.710   1.290  30.916  1.00  0.00     0.134 A 
HETATM    9  C8  UNK     1      19.983  -0.484  29.166  1.00  0.00     0.021 A 
HETATM   10  C9  UNK     1      18.840   1.611  29.564  1.00  0.00     0.101 A 
HETATM   11  C10 UNK     1      19.475   0.726  28.692  1.00  0.00     0.040 A 
ENDROOT
BRANCH   5  12
HETATM   12  C4  UNK     1      19.326  -1.554  34.681  1.00  0.00    -0.002 A 
HETATM   13  C11 UNK     1      18.381  -0.770  35.348  1.00  0.00     0.017 A 
HETATM   14  C13 UNK     1      18.174  -0.936  36.718  1.00  0.00     0.037 A 
HETATM   15  C15 UNK     1      18.913  -1.885  37.426  1.00  0.00     0.065 A 
HETATM   16  C14 UNK     1      19.857  -2.669  36.763  1.00  0.00     0.037 A 
HETATM   17  C12 UNK     1      20.064  -2.503  35.393  1.00  0.00     0.017 A 
BRANCH  15  18
HETATM   18  O5  UNK     1      18.711  -2.046  38.762  1.00  0.00    -0.361 OA
HETATM   19  H10 UNK     1      18.391  -1.207  39.136  1.00  0.00     0.217 HD
ENDBRANCH  15  18
ENDBRANCH   5  12
BRANCH   8  20
HETATM   20  O2  UNK     1      18.089   2.159  31.763  1.00  0.00    -0.356 OA
HETATM   21  H8  UNK     1      17.160   2.250  31.484  1.00  0.00     0.218 HD
ENDBRANCH   8  20
BRANCH  10  22
HETATM   22  O4  UNK     1      18.351   2.788  29.082  1.00  0.00    -0.358 OA
HETATM   23  H9  UNK     1      18.260   3.418  29.818  1.00  0.00     0.217 HD
ENDBRANCH  10  22
TORSDOF 4
ENDMDL
