MODEL 1
REMARK VINA RESULT:      -9.6      0.000      0.000
REMARK  2 active torsions:
REMARK  status: ('A' for Active; 'I' for Inactive)
REMARK    1  A    between atoms: C1_5  and  N1_4 
REMARK       I    between atoms: C11_15  and  N1_4 
REMARK    2  A    between atoms: C11_15  and  C5_9 
ROOT
HETATM    1  O2  UNK     1      17.570   3.283  32.811  1.00  0.00    -0.267 OA
HETATM    2  N1  UNK     1      18.665   4.776  31.349  1.00  0.00    -0.323 N 
HETATM    3  C11 UNK     1      18.239   3.540  31.811  1.00  0.00     0.262 C 
HETATM    4  H5  UNK     1      19.236   4.819  30.509  1.00  0.00     0.169 HD
ENDROOT
BRANCH   3   5
HETATM    5  C5  UNK     1      18.686   2.446  30.940  1.00  0.00     0.108 A 
HETATM    6  C10 UNK     1      19.099   1.331  31.554  1.00  0.00     0.037 A 
HETATM    7  C4  UNK     1      19.560   0.192  30.776  1.00  0.00    -0.001 A 
HETATM    8  C13 UNK     1      20.001  -0.990  31.375  1.00  0.00     0.014 A 
HETATM    9  C9  UNK     1      19.564   0.284  29.388  1.00  0.00     0.089 A 
HETATM   10  C17 UNK     1      20.435  -2.056  30.582  1.00  0.00     0.001 A 
HETATM   11  C18 UNK     1      20.431  -1.946  29.189  1.00  0.00     0.003 A 
HETATM   12  C16 UNK     1      19.994  -0.770  28.584  1.00  0.00     0.038 A 
HETATM   13  O1  UNK     1      19.127   1.460  28.747  1.00  0.00    -0.274 OA
HETATM   14  C12 UNK     1      18.681   2.566  29.465  1.00  0.00     0.304 A 
HETATM   15  O3  UNK     1      18.303   3.585  28.898  1.00  0.00    -0.259 OA
ENDBRANCH   3   5
BRANCH   2  16
HETATM   16  C1  UNK     1      18.409   6.013  31.949  1.00  0.00     0.036 A 
HETATM   17  C6  UNK     1      19.354   6.581  32.801  1.00  0.00     0.036 A 
HETATM   18  C3  UNK     1      19.098   7.814  33.400  1.00  0.00    -0.059 A 
HETATM   19  C15 UNK     1      20.109   8.425  34.312  1.00  0.00     0.048 C 
HETATM   20  C8  UNK     1      17.898   8.477  33.146  1.00  0.00     0.013 A 
HETATM   21  C2  UNK     1      16.952   7.907  32.292  1.00  0.00    -0.059 A 
HETATM   22  C14 UNK     1      15.669   8.616  32.022  1.00  0.00     0.048 C 
HETATM   23  C7  UNK     1      17.209   6.674  31.693  1.00  0.00     0.036 A 
ENDBRANCH   2  16
TORSDOF 2
ENDMDL
MODEL 2
REMARK VINA RESULT:      -9.2      1.127      2.736
REMARK  2 active torsions:
REMARK  status: ('A' for Active; 'I' for Inactive)
REMARK    1  A    between atoms: C1_5  and  N1_4 
REMARK       I    between atoms: C11_15  and  N1_4 
REMARK    2  A    between atoms: C11_15  and  C5_9 
ROOT
HETATM    1  O2  UNK     1      18.318   4.491  30.252  1.00  0.00    -0.267 OA
HETATM    2  N1  UNK     1      18.437   4.601  32.606  1.00  0.00    -0.323 N 
HETATM    3  C11 UNK     1      18.475   3.986  31.362  1.00  0.00     0.262 C 
HETATM    4  H5  UNK     1      18.566   4.034  33.440  1.00  0.00     0.169 HD
ENDROOT
BRANCH   3   5
HETATM    5  C5  UNK     1      18.741   2.546  31.472  1.00  0.00     0.108 A 
HETATM    6  C10 UNK     1      19.330   1.972  30.417  1.00  0.00     0.037 A 
HETATM    7  C4  UNK     1      19.635   0.549  30.432  1.00  0.00    -0.001 A 
HETATM    8  C13 UNK     1      20.248  -0.092  29.353  1.00  0.00     0.014 A 
HETATM    9  C9  UNK     1      19.305  -0.197  31.558  1.00  0.00     0.089 A 
HETATM   10  C17 UNK     1      20.519  -1.461  29.416  1.00  0.00     0.001 A 
HETATM   11  C18 UNK     1      20.180  -2.196  30.556  1.00  0.00     0.003 A 
HETATM   12  C16 UNK     1      19.569  -1.563  31.636  1.00  0.00     0.038 A 
HETATM   13  O1  UNK     1      18.685   0.414  32.666  1.00  0.00    -0.274 OA
HETATM   14  C12 UNK     1      18.381   1.772  32.681  1.00  0.00     0.304 A 
HETATM   15  O3  UNK     1      17.841   2.295  33.649  1.00  0.00    -0.259 OA
ENDBRANCH   3   5
BRANCH   2  16
HETATM   16  C1  UNK     1      18.205   5.958  32.847  1.00  0.00     0.036 A 
HETATM   17  C6  UNK     1      17.017   6.548  32.418  1.00  0.00     0.036 A 
HETATM   18  C3  UNK     1      16.787   7.902  32.657  1.00  0.00    -0.059 A 
HETATM   19  C15 UNK     1      15.515   8.535  32.201  1.00  0.00     0.048 C 
HETATM   20  C8  UNK     1      17.744   8.665  33.326  1.00  0.00     0.013 A 
HETATM   21  C2  UNK     1      18.933   8.073  33.755  1.00  0.00    -0.059 A 
HETATM   22  C14 UNK     1      19.956   8.890  34.468  1.00  0.00     0.048 C 
HETATM   23  C7  UNK     1      19.163   6.719  33.515  1.00  0.00     0.036 A 
ENDBRANCH   2  16
TORSDOF 2
ENDMDL
MODEL 3
REMARK VINA RESULT:      -9.2      1.128      2.044
REMARK  2 active torsions:
REMARK  status: ('A' for Active; 'I' for Inactive)
REMARK    1  A    between atoms: C1_5  and  N1_4 
REMARK       I    between atoms: C11_15  and  N1_4 
REMARK    2  A    between atoms: C11_15  and  C5_9 
ROOT
HETATM    1  O2  UNK     1      18.333   4.493  30.256  1.00  0.00    -0.267 OA
HETATM    2  N1  UNK     1      18.443   4.602  32.610  1.00  0.00    -0.323 N 
HETATM    3  C11 UNK     1      18.485   3.987  31.366  1.00  0.00     0.262 C 
HETATM    4  H5  UNK     1      18.568   4.035  33.444  1.00  0.00     0.169 HD
ENDROOT
BRANCH   3   5
HETATM    5  C5  UNK     1      18.747   2.547  31.477  1.00  0.00     0.108 A 
HETATM    6  C10 UNK     1      19.334   1.970  30.422  1.00  0.00     0.037 A 
HETATM    7  C4  UNK     1      19.635   0.546  30.437  1.00  0.00    -0.001 A 
HETATM    8  C13 UNK     1      20.245  -0.098  29.358  1.00  0.00     0.014 A 
HETATM    9  C9  UNK     1      19.303  -0.199  31.563  1.00  0.00     0.089 A 
HETATM   10  C17 UNK     1      20.513  -1.467  29.422  1.00  0.00     0.001 A 
HETATM   11  C18 UNK     1      20.172  -2.200  30.562  1.00  0.00     0.003 A 
HETATM   12  C16 UNK     1      19.564  -1.565  31.642  1.00  0.00     0.038 A 
HETATM   13  O1  UNK     1      18.686   0.415  32.672  1.00  0.00    -0.274 OA
HETATM   14  C12 UNK     1      18.386   1.774  32.686  1.00  0.00     0.304 A 
HETATM   15  O3  UNK     1      17.848   2.299  33.655  1.00  0.00    -0.259 OA
ENDBRANCH   3   5
BRANCH   2  16
HETATM   16  C1  UNK     1      18.213   5.960  32.850  1.00  0.00     0.036 A 
HETATM   17  C6  UNK     1      19.170   6.717  33.525  1.00  0.00     0.036 A 
HETATM   18  C3  UNK     1      18.939   8.071  33.766  1.00  0.00    -0.059 A 
HETATM   19  C15 UNK     1      19.962   8.885  34.486  1.00  0.00     0.048 C 
HETATM   20  C8  UNK     1      17.754   8.666  33.333  1.00  0.00     0.013 A 
HETATM   21  C2  UNK     1      16.798   7.906  32.658  1.00  0.00    -0.059 A 
HETATM   22  C14 UNK     1      15.532   8.542  32.196  1.00  0.00     0.048 C 
HETATM   23  C7  UNK     1      17.029   6.552  32.417  1.00  0.00     0.036 A 
ENDBRANCH   2  16
TORSDOF 2
ENDMDL
MODEL 4
REMARK VINA RESULT:      -8.9      7.993     11.984
REMARK  2 active torsions:
REMARK  status: ('A' for Active; 'I' for Inactive)
REMARK    1  A    between atoms: C1_5  and  N1_4 
REMARK       I    between atoms: C11_15  and  N1_4 
REMARK    2  A    between atoms: C11_15  and  C5_9 
ROOT
HETATM    1  O2  UNK     1      20.151  -5.201  35.246  1.00  0.00    -0.267 OA
HETATM    2  N1  UNK     1      19.939  -4.876  37.573  1.00  0.00    -0.323 N 
HETATM    3  C11 UNK     1      19.933  -4.505  36.236  1.00  0.00     0.262 C 
HETATM    4  H5  UNK     1      19.758  -4.170  38.281  1.00  0.00     0.169 HD
ENDROOT
BRANCH   3   5
HETATM    5  C5  UNK     1      19.619  -3.081  36.065  1.00  0.00     0.108 A 
HETATM    6  C10 UNK     1      18.878  -2.520  37.027  1.00  0.00     0.037 A 
HETATM    7  C4  UNK     1      18.515  -1.113  36.947  1.00  0.00    -0.001 A 
HETATM    8  C13 UNK     1      17.741  -0.486  37.926  1.00  0.00     0.014 A 
HETATM    9  C9  UNK     1      18.952  -0.367  35.857  1.00  0.00     0.089 A 
HETATM   10  C17 UNK     1      17.420   0.868  37.803  1.00  0.00     0.001 A 
HETATM   11  C18 UNK     1      17.868   1.602  36.701  1.00  0.00     0.003 A 
HETATM   12  C16 UNK     1      18.639   0.984  35.720  1.00  0.00     0.038 A 
HETATM   13  O1  UNK     1      19.733  -0.964  34.848  1.00  0.00    -0.274 OA
HETATM   14  C12 UNK     1      20.096  -2.306  34.897  1.00  0.00     0.304 A 
HETATM   15  O3  UNK     1      20.775  -2.817  34.014  1.00  0.00    -0.259 OA
ENDBRANCH   3   5
BRANCH   2  16
HETATM   16  C1  UNK     1      20.203  -6.155  38.072  1.00  0.00     0.036 A 
HETATM   17  C6  UNK     1      21.331  -6.374  38.861  1.00  0.00     0.036 A 
HETATM   18  C3  UNK     1      21.594  -7.651  39.357  1.00  0.00    -0.059 A 
HETATM   19  C15 UNK     1      22.799  -7.888  40.204  1.00  0.00     0.048 C 
HETATM   20  C8  UNK     1      20.730  -8.706  39.064  1.00  0.00     0.013 A 
HETATM   21  C2  UNK     1      19.601  -8.484  38.273  1.00  0.00    -0.059 A 
HETATM   22  C14 UNK     1      18.679  -9.612  37.959  1.00  0.00     0.048 C 
HETATM   23  C7  UNK     1      19.338  -7.208  37.777  1.00  0.00     0.036 A 
ENDBRANCH   2  16
TORSDOF 2
ENDMDL
MODEL 5
REMARK VINA RESULT:      -8.9      7.420     11.977
REMARK  2 active torsions:
REMARK  status: ('A' for Active; 'I' for Inactive)
REMARK    1  A    between atoms: C1_5  and  N1_4 
REMARK       I    between atoms: C11_15  and  N1_4 
REMARK    2  A    between atoms: C11_15  and  C5_9 
ROOT
HETATM    1  O2  UNK     1      21.319  -4.382  37.270  1.00  0.00    -0.267 OA
HETATM    2  N1  UNK     1      19.565  -5.379  36.047  1.00  0.00    -0.323 N 
HETATM    3  C11 UNK     1      20.320  -4.331  36.555  1.00  0.00     0.262 C 
HETATM    4  H5  UNK     1      18.746  -5.168  35.483  1.00  0.00     0.169 HD
ENDROOT
BRANCH   3   5
HETATM    5  C5  UNK     1      19.793  -3.025  36.138  1.00  0.00     0.108 A 
HETATM    6  C10 UNK     1      19.088  -2.353  37.055  1.00  0.00     0.037 A 
HETATM    7  C4  UNK     1      18.525  -1.049  36.737  1.00  0.00    -0.001 A 
HETATM    8  C13 UNK     1      17.781  -0.313  37.662  1.00  0.00     0.014 A 
HETATM    9  C9  UNK     1      18.735  -0.518  35.469  1.00  0.00     0.089 A 
HETATM   10  C17 UNK     1      17.262   0.934  37.307  1.00  0.00     0.001 A 
HETATM   11  C18 UNK     1      17.483   1.452  36.028  1.00  0.00     0.003 A 
HETATM   12  C16 UNK     1      18.223   0.724  35.100  1.00  0.00     0.038 A 
HETATM   13  O1  UNK     1      19.479  -1.231  34.508  1.00  0.00    -0.274 OA
HETATM   14  C12 UNK     1      20.029  -2.479  34.783  1.00  0.00     0.304 A 
HETATM   15  O3  UNK     1      20.675  -3.092  33.941  1.00  0.00    -0.259 OA
ENDBRANCH   3   5
BRANCH   2  16
HETATM   16  C1  UNK     1      19.799  -6.741  36.258  1.00  0.00     0.036 A 
HETATM   17  C6  UNK     1      19.225  -7.383  37.354  1.00  0.00     0.036 A 
HETATM   18  C3  UNK     1      19.460  -8.742  37.564  1.00  0.00    -0.059 A 
HETATM   19  C15 UNK     1      18.846  -9.432  38.736  1.00  0.00     0.048 C 
HETATM   20  C8  UNK     1      20.268  -9.456  36.680  1.00  0.00     0.013 A 
HETATM   21  C2  UNK     1      20.842  -8.810  35.583  1.00  0.00    -0.059 A 
HETATM   22  C14 UNK     1      21.706  -9.574  34.638  1.00  0.00     0.048 C 
HETATM   23  C7  UNK     1      20.606  -7.452  35.373  1.00  0.00     0.036 A 
ENDBRANCH   2  16
TORSDOF 2
ENDMDL
MODEL 6
REMARK VINA RESULT:      -8.7      3.400      4.368
REMARK  2 active torsions:
REMARK  status: ('A' for Active; 'I' for Inactive)
REMARK    1  A    between atoms: C1_5  and  N1_4 
REMARK       I    between atoms: C11_15  and  N1_4 
REMARK    2  A    between atoms: C11_15  and  C5_9 
ROOT
HETATM    1  O2  UNK     1      17.891   3.384  32.046  1.00  0.00    -0.267 OA
HETATM    2  N1  UNK     1      18.249   4.428  34.131  1.00  0.00    -0.323 N 
HETATM    3  C11 UNK     1      18.099   3.361  33.257  1.00  0.00     0.262 C 
HETATM    4  H5  UNK     1      18.397   4.240  35.119  1.00  0.00     0.169 HD
ENDROOT
BRANCH   3   5
HETATM    5  C5  UNK     1      18.218   2.070  33.947  1.00  0.00     0.108 A 
HETATM    6  C10 UNK     1      17.971   2.077  35.262  1.00  0.00     0.037 A 
HETATM    7  C4  UNK     1      18.062   0.845  36.032  1.00  0.00    -0.001 A 
HETATM    8  C13 UNK     1      17.816   0.806  37.406  1.00  0.00     0.014 A 
HETATM    9  C9  UNK     1      18.407  -0.332  35.378  1.00  0.00     0.089 A 
HETATM   10  C17 UNK     1      17.916  -0.402  38.100  1.00  0.00     0.001 A 
HETATM   11  C18 UNK     1      18.264  -1.575  37.426  1.00  0.00     0.003 A 
HETATM   12  C16 UNK     1      18.511  -1.545  36.056  1.00  0.00     0.038 A 
HETATM   13  O1  UNK     1      18.664  -0.334  33.992  1.00  0.00    -0.274 OA
HETATM   14  C12 UNK     1      18.585   0.828  33.230  1.00  0.00     0.304 A 
HETATM   15  O3  UNK     1      18.811   0.818  32.025  1.00  0.00    -0.259 OA
ENDBRANCH   3   5
BRANCH   2  16
HETATM   16  C1  UNK     1      18.190   5.784  33.793  1.00  0.00     0.036 A 
HETATM   17  C6  UNK     1      19.155   6.664  34.279  1.00  0.00     0.036 A 
HETATM   18  C3  UNK     1      19.095   8.016  33.943  1.00  0.00    -0.059 A 
HETATM   19  C15 UNK     1      20.128   8.960  34.460  1.00  0.00     0.048 C 
HETATM   20  C8  UNK     1      18.070   8.486  33.122  1.00  0.00     0.013 A 
HETATM   21  C2  UNK     1      17.104   7.603  32.637  1.00  0.00    -0.059 A 
HETATM   22  C14 UNK     1      16.008   8.107  31.761  1.00  0.00     0.048 C 
HETATM   23  C7  UNK     1      17.165   6.251  32.973  1.00  0.00     0.036 A 
ENDBRANCH   2  16
TORSDOF 2
ENDMDL
MODEL 7
REMARK VINA RESULT:      -8.7      7.957      9.953
REMARK  2 active torsions:
REMARK  status: ('A' for Active; 'I' for Inactive)
REMARK    1  A    between atoms: C1_5  and  N1_4 
REMARK       I    between atoms: C11_15  and  N1_4 
REMARK    2  A    between atoms: C11_15  and  C5_9 
ROOT
HETATM    1  O2  UNK     1      20.915  -3.094  37.635  1.00  0.00    -0.267 OA
HETATM    2  N1  UNK     1      18.945  -3.183  36.340  1.00  0.00    -0.323 N 
HETATM    3  C11 UNK     1      20.033  -3.700  37.029  1.00  0.00     0.262 C 
HETATM    4  H5  UNK     1      18.311  -3.823  35.868  1.00  0.00     0.169 HD
ENDROOT
BRANCH   3   5
HETATM    5  C5  UNK     1      20.066  -5.167  36.979  1.00  0.00     0.108 A 
HETATM    6  C10 UNK     1      19.997  -5.800  38.155  1.00  0.00     0.037 A 
HETATM    7  C4  UNK     1      20.022  -7.254  38.208  1.00  0.00    -0.001 A 
HETATM    8  C13 UNK     1      19.955  -7.957  39.413  1.00  0.00     0.014 A 
HETATM    9  C9  UNK     1      20.116  -7.969  37.019  1.00  0.00     0.089 A 
HETATM   10  C17 UNK     1      19.982  -9.354  39.411  1.00  0.00     0.001 A 
HETATM   11  C18 UNK     1      20.077 -10.055  38.206  1.00  0.00     0.003 A 
HETATM   12  C16 UNK     1      20.145  -9.361  37.000  1.00  0.00     0.038 A 
HETATM   13  O1  UNK     1      20.187  -7.295  35.783  1.00  0.00    -0.274 OA
HETATM   14  C12 UNK     1      20.165  -5.906  35.701  1.00  0.00     0.304 A 
HETATM   15  O3  UNK     1      20.228  -5.329  34.621  1.00  0.00    -0.259 OA
ENDBRANCH   3   5
BRANCH   2  16
HETATM   16  C1  UNK     1      18.628  -1.829  36.197  1.00  0.00     0.036 A 
HETATM   17  C6  UNK     1      18.687  -1.231  34.939  1.00  0.00     0.036 A 
HETATM   18  C3  UNK     1      18.372   0.120  34.797  1.00  0.00    -0.059 A 
HETATM   19  C15 UNK     1      18.433   0.762  33.451  1.00  0.00     0.048 C 
HETATM   20  C8  UNK     1      17.998   0.871  35.911  1.00  0.00     0.013 A 
HETATM   21  C2  UNK     1      17.940   0.270  37.169  1.00  0.00    -0.059 A 
HETATM   22  C14 UNK     1      17.541   1.074  38.360  1.00  0.00     0.048 C 
HETATM   23  C7  UNK     1      18.255  -1.081  37.312  1.00  0.00     0.036 A 
ENDBRANCH   2  16
TORSDOF 2
ENDMDL
MODEL 8
REMARK VINA RESULT:      -8.6      7.969      9.926
REMARK  2 active torsions:
REMARK  status: ('A' for Active; 'I' for Inactive)
REMARK    1  A    between atoms: C1_5  and  N1_4 
REMARK       I    between atoms: C11_15  and  N1_4 
REMARK    2  A    between atoms: C11_15  and  C5_9 
ROOT
HETATM    1  O2  UNK     1      20.963  -3.126  37.569  1.00  0.00    -0.267 OA
HETATM    2  N1  UNK     1      18.951  -3.210  36.341  1.00  0.00    -0.323 N 
HETATM    3  C11 UNK     1      20.057  -3.730  36.998  1.00  0.00     0.262 C 
HETATM    4  H5  UNK     1      18.296  -3.848  35.897  1.00  0.00     0.169 HD
ENDROOT
BRANCH   3   5
HETATM    5  C5  UNK     1      20.075  -5.197  36.961  1.00  0.00     0.108 A 
HETATM    6  C10 UNK     1      20.014  -5.819  38.144  1.00  0.00     0.037 A 
HETATM    7  C4  UNK     1      20.025  -7.273  38.209  1.00  0.00    -0.001 A 
HETATM    8  C13 UNK     1      19.966  -7.964  39.422  1.00  0.00     0.014 A 
HETATM    9  C9  UNK     1      20.099  -7.999  37.026  1.00  0.00     0.089 A 
HETATM   10  C17 UNK     1      19.980  -9.361  39.431  1.00  0.00     0.001 A 
HETATM   11  C18 UNK     1      20.054 -10.074  38.232  1.00  0.00     0.003 A 
HETATM   12  C16 UNK     1      20.114  -9.392  37.019  1.00  0.00     0.038 A 
HETATM   13  O1  UNK     1      20.162  -7.337  35.783  1.00  0.00    -0.274 OA
HETATM   14  C12 UNK     1      20.153  -5.949  35.688  1.00  0.00     0.304 A 
HETATM   15  O3  UNK     1      20.208  -5.382  34.603  1.00  0.00    -0.259 OA
ENDBRANCH   3   5
BRANCH   2  16
HETATM   16  C1  UNK     1      18.641  -1.854  36.195  1.00  0.00     0.036 A 
HETATM   17  C6  UNK     1      18.267  -1.103  37.309  1.00  0.00     0.036 A 
HETATM   18  C3  UNK     1      17.957   0.249  37.162  1.00  0.00    -0.059 A 
HETATM   19  C15 UNK     1      17.559   1.056  38.353  1.00  0.00     0.048 C 
HETATM   20  C8  UNK     1      18.020   0.848  35.904  1.00  0.00     0.013 A 
HETATM   21  C2  UNK     1      18.394   0.094  34.791  1.00  0.00    -0.059 A 
HETATM   22  C14 UNK     1      18.461   0.734  33.446  1.00  0.00     0.048 C 
HETATM   23  C7  UNK     1      18.705  -1.258  34.937  1.00  0.00     0.036 A 
ENDBRANCH   2  16
TORSDOF 2
ENDMDL
MODEL 9
REMARK VINA RESULT:      -8.4     14.502     16.085
REMARK  2 active torsions:
REMARK  status: ('A' for Active; 'I' for Inactive)
REMARK    1  A    between atoms: C1_5  and  N1_4 
REMARK       I    between atoms: C11_15  and  N1_4 
REMARK    2  A    between atoms: C11_15  and  C5_9 
ROOT
HETATM    1  O2  UNK     1      25.827  -9.072  39.452  1.00  0.00    -0.267 OA
HETATM    2  N1  UNK     1      24.615  -7.711  37.954  1.00  0.00    -0.323 N 
HETATM    3  C11 UNK     1      25.692  -8.071  38.751  1.00  0.00     0.262 C 
HETATM    4  H5  UNK     1      24.649  -6.830  37.448  1.00  0.00     0.169 HD
ENDROOT
BRANCH   3   5
HETATM    5  C5  UNK     1      26.769  -7.074  38.698  1.00  0.00     0.108 A 
HETATM    6  C10 UNK     1      28.012  -7.552  38.574  1.00  0.00     0.037 A 
HETATM    7  C4  UNK     1      29.145  -6.642  38.512  1.00  0.00    -0.001 A 
HETATM    8  C13 UNK     1      30.460  -7.097  38.386  1.00  0.00     0.014 A 
HETATM    9  C9  UNK     1      28.913  -5.273  38.583  1.00  0.00     0.089 A 
HETATM   10  C17 UNK     1      31.514  -6.182  38.330  1.00  0.00     0.001 A 
HETATM   11  C18 UNK     1      31.261  -4.809  38.402  1.00  0.00     0.003 A 
HETATM   12  C16 UNK     1      29.953  -4.348  38.529  1.00  0.00     0.038 A 
HETATM   13  O1  UNK     1      27.600  -4.775  38.712  1.00  0.00    -0.274 OA
HETATM   14  C12 UNK     1      26.497  -5.621  38.774  1.00  0.00     0.304 A 
HETATM   15  O3  UNK     1      25.359  -5.179  38.887  1.00  0.00    -0.259 OA
ENDBRANCH   3   5
BRANCH   2  16
HETATM   16  C1  UNK     1      23.434  -8.441  37.787  1.00  0.00     0.036 A 
HETATM   17  C6  UNK     1      23.318  -9.342  36.730  1.00  0.00     0.036 A 
HETATM   18  C3  UNK     1      22.140 -10.068  36.562  1.00  0.00    -0.059 A 
HETATM   19  C15 UNK     1      22.014 -11.035  35.432  1.00  0.00     0.048 C 
HETATM   20  C8  UNK     1      21.079  -9.894  37.450  1.00  0.00     0.013 A 
HETATM   21  C2  UNK     1      21.197  -8.991  38.508  1.00  0.00    -0.059 A 
HETATM   22  C14 UNK     1      20.063  -8.803  39.457  1.00  0.00     0.048 C 
HETATM   23  C7  UNK     1      22.376  -8.264  38.676  1.00  0.00     0.036 A 
ENDBRANCH   2  16
TORSDOF 2
ENDMDL
MODEL 10
REMARK VINA RESULT:      -8.4      2.967      4.387
REMARK  2 active torsions:
REMARK  status: ('A' for Active; 'I' for Inactive)
REMARK    1  A    between atoms: C1_5  and  N1_4 
REMARK       I    between atoms: C11_15  and  N1_4 
REMARK    2  A    between atoms: C11_15  and  C5_9 
ROOT
HETATM    1  O2  UNK     1      18.302   4.653  31.915  1.00  0.00    -0.267 OA
HETATM    2  N1  UNK     1      18.190   5.308  34.179  1.00  0.00    -0.323 N 
HETATM    3  C11 UNK     1      18.243   4.413  33.119  1.00  0.00     0.262 C 
HETATM    4  H5  UNK     1      18.122   4.946  35.126  1.00  0.00     0.169 HD
ENDROOT
BRANCH   3   5
HETATM    5  C5  UNK     1      18.222   3.019  33.579  1.00  0.00     0.108 A 
HETATM    6  C10 UNK     1      18.124   2.834  34.901  1.00  0.00     0.037 A 
HETATM    7  C4  UNK     1      18.094   1.488  35.453  1.00  0.00    -0.001 A 
HETATM    8  C13 UNK     1      17.996   1.248  36.826  1.00  0.00     0.014 A 
HETATM    9  C9  UNK     1      18.168   0.404  34.585  1.00  0.00     0.089 A 
HETATM   10  C17 UNK     1      17.971  -0.064  37.306  1.00  0.00     0.001 A 
HETATM   11  C18 UNK     1      18.046  -1.141  36.419  1.00  0.00     0.003 A 
HETATM   12  C16 UNK     1      18.145  -0.910  35.049  1.00  0.00     0.038 A 
HETATM   13  O1  UNK     1      18.269   0.605  33.194  1.00  0.00    -0.274 OA
HETATM   14  C12 UNK     1      18.300   1.880  32.637  1.00  0.00     0.304 A 
HETATM   15  O3  UNK     1      18.389   2.046  31.426  1.00  0.00    -0.259 OA
ENDBRANCH   3   5
BRANCH   2  16
HETATM   16  C1  UNK     1      18.192   6.702  34.080  1.00  0.00     0.036 A 
HETATM   17  C6  UNK     1      17.026   7.376  33.721  1.00  0.00     0.036 A 
HETATM   18  C3  UNK     1      17.029   8.766  33.622  1.00  0.00    -0.059 A 
HETATM   19  C15 UNK     1      15.781   9.490  33.240  1.00  0.00     0.048 C 
HETATM   20  C8  UNK     1      18.198   9.482  33.881  1.00  0.00     0.013 A 
HETATM   21  C2  UNK     1      19.365   8.806  34.240  1.00  0.00    -0.059 A 
HETATM   22  C14 UNK     1      20.614   9.572  34.516  1.00  0.00     0.048 C 
HETATM   23  C7  UNK     1      19.361   7.415  34.340  1.00  0.00     0.036 A 
ENDBRANCH   2  16
TORSDOF 2
ENDMDL
