MODEL 1
REMARK VINA RESULT:      -7.5      0.000      0.000
REMARK  3 active torsions:
REMARK  status: ('A' for Active; 'I' for Inactive)
REMARK    1  A    between atoms: C4_8  and  O2_2 
REMARK    2  A    between atoms: C9_13  and  O3_3 
REMARK    3  A    between atoms: C3_7  and  C6_10 
ROOT
HETATM    1  O1  UNK     1      18.038   3.676  33.472  1.00  0.00    -0.306 OA
HETATM    2  O4  UNK     1      19.059   2.826  29.620  1.00  0.00    -0.284 OA
HETATM    3  C1  UNK     1      18.631   2.024  31.797  1.00  0.00     0.053 A 
HETATM    4  C2  UNK     1      18.281   2.380  33.096  1.00  0.00     0.090 A 
HETATM    5  C3  UNK     1      18.133   4.671  32.513  1.00  0.00     0.123 A 
HETATM    6  C4  UNK     1      18.470   4.463  31.228  1.00  0.00     0.154 A 
HETATM    7  C5  UNK     1      18.748   3.078  30.776  1.00  0.00     0.221 A 
HETATM    8  C7  UNK     1      18.867   0.685  31.471  1.00  0.00     0.055 A 
HETATM    9  C8  UNK     1      18.166   1.399  34.083  1.00  0.00     0.041 A 
HETATM   10  C9  UNK     1      18.751  -0.293  32.458  1.00  0.00     0.069 A 
HETATM   11  C10 UNK     1      18.401   0.062  33.762  1.00  0.00     0.039 A 
ENDROOT
BRANCH   5  12
HETATM   12  C6  UNK     1      17.846   6.015  33.047  1.00  0.00     0.001 A 
HETATM   13  C11 UNK     1      16.573   6.566  32.903  1.00  0.00     0.014 A 
HETATM   14  C13 UNK     1      16.301   7.837  33.408  1.00  0.00     0.001 A 
HETATM   15  C15 UNK     1      17.303   8.558  34.060  1.00  0.00     0.000 A 
HETATM   16  C14 UNK     1      18.576   8.006  34.205  1.00  0.00     0.001 A 
HETATM   17  C12 UNK     1      18.848   6.734  33.699  1.00  0.00     0.014 A 
ENDBRANCH   5  12
BRANCH   6  18
HETATM   18  O2  UNK     1      18.587   5.480  30.305  1.00  0.00    -0.350 OA
HETATM   19  C16 UNK     1      19.932   5.900  30.187  1.00  0.00     0.210 C 
ENDBRANCH   6  18
BRANCH  10  20
HETATM   20  O3  UNK     1      18.979  -1.600  32.150  1.00  0.00    -0.356 OA
HETATM   21  C17 UNK     1      20.086  -1.882  31.296  1.00  0.00     0.210 C 
ENDBRANCH  10  20
TORSDOF 3
ENDMDL
MODEL 2
REMARK VINA RESULT:      -7.4     23.049     25.161
REMARK  3 active torsions:
REMARK  status: ('A' for Active; 'I' for Inactive)
REMARK    1  A    between atoms: C4_8  and  O2_2 
REMARK    2  A    between atoms: C9_13  and  O3_3 
REMARK    3  A    between atoms: C3_7  and  C6_10 
ROOT
HETATM    1  O1  UNK     1      12.931   8.454   8.132  1.00  0.00    -0.306 OA
HETATM    2  O4  UNK     1      14.842   5.834  10.600  1.00  0.00    -0.284 OA
HETATM    3  C1  UNK     1      14.876   7.908   9.477  1.00  0.00     0.053 A 
HETATM    4  C2  UNK     1      14.173   8.758   8.628  1.00  0.00     0.090 A 
HETATM    5  C3  UNK     1      12.348   7.253   8.503  1.00  0.00     0.123 A 
HETATM    6  C4  UNK     1      12.923   6.341   9.307  1.00  0.00     0.154 A 
HETATM    7  C5  UNK     1      14.268   6.625   9.863  1.00  0.00     0.221 A 
HETATM    8  C7  UNK     1      16.139   8.271   9.952  1.00  0.00     0.055 A 
HETATM    9  C8  UNK     1      14.729   9.980   8.246  1.00  0.00     0.041 A 
HETATM   10  C9  UNK     1      16.693   9.493   9.569  1.00  0.00     0.069 A 
HETATM   11  C10 UNK     1      15.989  10.346   8.717  1.00  0.00     0.039 A 
ENDROOT
BRANCH   5  12
HETATM   12  C6  UNK     1      11.017   7.050   7.903  1.00  0.00     0.001 A 
HETATM   13  C11 UNK     1      10.905   6.660   6.568  1.00  0.00     0.014 A 
HETATM   14  C13 UNK     1       9.647   6.467   6.000  1.00  0.00     0.001 A 
HETATM   15  C15 UNK     1       8.498   6.664   6.767  1.00  0.00     0.000 A 
HETATM   16  C14 UNK     1       8.609   7.054   8.102  1.00  0.00     0.001 A 
HETATM   17  C12 UNK     1       9.869   7.246   8.670  1.00  0.00     0.014 A 
ENDBRANCH   5  12
BRANCH   6  18
HETATM   18  O2  UNK     1      12.328   5.141   9.631  1.00  0.00    -0.350 OA
HETATM   19  C16 UNK     1      12.513   4.193   8.598  1.00  0.00     0.210 C 
ENDBRANCH   6  18
BRANCH  10  20
HETATM   20  O3  UNK     1      17.923   9.855  10.027  1.00  0.00    -0.356 OA
HETATM   21  C17 UNK     1      18.326  11.205   9.807  1.00  0.00     0.210 C 
ENDBRANCH  10  20
TORSDOF 3
ENDMDL
MODEL 3
REMARK VINA RESULT:      -7.4     23.048     25.171
REMARK  3 active torsions:
REMARK  status: ('A' for Active; 'I' for Inactive)
REMARK    1  A    between atoms: C4_8  and  O2_2 
REMARK    2  A    between atoms: C9_13  and  O3_3 
REMARK    3  A    between atoms: C3_7  and  C6_10 
ROOT
HETATM    1  O1  UNK     1      12.943   8.449   8.115  1.00  0.00    -0.306 OA
HETATM    2  O4  UNK     1      14.843   5.837  10.599  1.00  0.00    -0.284 OA
HETATM    3  C1  UNK     1      14.880   7.910   9.474  1.00  0.00     0.053 A 
HETATM    4  C2  UNK     1      14.180   8.758   8.619  1.00  0.00     0.090 A 
HETATM    5  C3  UNK     1      12.361   7.247   8.483  1.00  0.00     0.123 A 
HETATM    6  C4  UNK     1      12.932   6.338   9.292  1.00  0.00     0.154 A 
HETATM    7  C5  UNK     1      14.273   6.625   9.857  1.00  0.00     0.221 A 
HETATM    8  C7  UNK     1      16.139   8.277   9.958  1.00  0.00     0.055 A 
HETATM    9  C8  UNK     1      14.736   9.980   8.239  1.00  0.00     0.041 A 
HETATM   10  C9  UNK     1      16.692   9.500   9.577  1.00  0.00     0.069 A 
HETATM   11  C10 UNK     1      15.992  10.351   8.719  1.00  0.00     0.039 A 
ENDROOT
BRANCH   5  12
HETATM   12  C6  UNK     1      11.034   7.040   7.874  1.00  0.00     0.001 A 
HETATM   13  C11 UNK     1       9.880   7.219   8.636  1.00  0.00     0.014 A 
HETATM   14  C13 UNK     1       8.626   7.024   8.060  1.00  0.00     0.001 A 
HETATM   15  C15 UNK     1       8.524   6.650   6.720  1.00  0.00     0.000 A 
HETATM   16  C14 UNK     1       9.678   6.473   5.957  1.00  0.00     0.001 A 
HETATM   17  C12 UNK     1      10.933   6.668   6.533  1.00  0.00     0.014 A 
ENDBRANCH   5  12
BRANCH   6  18
HETATM   18  O2  UNK     1      12.338   5.136   9.613  1.00  0.00    -0.350 OA
HETATM   19  C16 UNK     1      12.523   4.191   8.578  1.00  0.00     0.210 C 
ENDBRANCH   6  18
BRANCH  10  20
HETATM   20  O3  UNK     1      17.918   9.866  10.043  1.00  0.00    -0.356 OA
HETATM   21  C17 UNK     1      18.317  11.218   9.828  1.00  0.00     0.210 C 
ENDBRANCH  10  20
TORSDOF 3
ENDMDL
MODEL 4
REMARK VINA RESULT:      -7.3      1.480      1.779
REMARK  3 active torsions:
REMARK  status: ('A' for Active; 'I' for Inactive)
REMARK    1  A    between atoms: C4_8  and  O2_2 
REMARK    2  A    between atoms: C9_13  and  O3_3 
REMARK    3  A    between atoms: C3_7  and  C6_10 
ROOT
HETATM    1  O1  UNK     1      18.421   4.112  34.632  1.00  0.00    -0.306 OA
HETATM    2  O4  UNK     1      18.182   2.051  31.126  1.00  0.00    -0.284 OA
HETATM    3  C1  UNK     1      18.345   1.979  33.477  1.00  0.00     0.053 A 
HETATM    4  C2  UNK     1      18.427   2.741  34.640  1.00  0.00     0.090 A 
HETATM    5  C3  UNK     1      18.317   4.766  33.415  1.00  0.00     0.123 A 
HETATM    6  C4  UNK     1      18.241   4.150  32.222  1.00  0.00     0.154 A 
HETATM    7  C5  UNK     1      18.249   2.668  32.180  1.00  0.00     0.221 A 
HETATM    8  C7  UNK     1      18.355   0.583  33.546  1.00  0.00     0.055 A 
HETATM    9  C8  UNK     1      18.521   2.112  35.882  1.00  0.00     0.041 A 
HETATM   10  C9  UNK     1      18.448  -0.044  34.788  1.00  0.00     0.069 A 
HETATM   11  C10 UNK     1      18.531   0.719  35.955  1.00  0.00     0.039 A 
ENDROOT
BRANCH   5  12
HETATM   12  C6  UNK     1      18.322   6.234  33.548  1.00  0.00     0.001 A 
HETATM   13  C11 UNK     1      17.160   6.961  33.291  1.00  0.00     0.014 A 
HETATM   14  C13 UNK     1      17.163   8.350  33.417  1.00  0.00     0.001 A 
HETATM   15  C15 UNK     1      18.329   9.013  33.801  1.00  0.00     0.000 A 
HETATM   16  C14 UNK     1      19.491   8.285  34.059  1.00  0.00     0.001 A 
HETATM   17  C12 UNK     1      19.487   6.896  33.933  1.00  0.00     0.014 A 
ENDBRANCH   5  12
BRANCH   6  18
HETATM   18  O2  UNK     1      18.171   4.831  31.026  1.00  0.00    -0.350 OA
HETATM   19  C16 UNK     1      19.464   5.078  30.511  1.00  0.00     0.210 C 
ENDBRANCH   6  18
BRANCH  10  20
HETATM   20  O3  UNK     1      18.459  -1.403  34.865  1.00  0.00    -0.356 OA
HETATM   21  C17 UNK     1      19.618  -2.013  35.428  1.00  0.00     0.210 C 
ENDBRANCH  10  20
TORSDOF 3
ENDMDL
MODEL 5
REMARK VINA RESULT:      -7.2      1.868      6.886
REMARK  3 active torsions:
REMARK  status: ('A' for Active; 'I' for Inactive)
REMARK    1  A    between atoms: C4_8  and  O2_2 
REMARK    2  A    between atoms: C9_13  and  O3_3 
REMARK    3  A    between atoms: C3_7  and  C6_10 
ROOT
HETATM    1  O1  UNK     1      18.776   3.521  30.815  1.00  0.00    -0.306 OA
HETATM    2  O4  UNK     1      18.137   2.913  34.792  1.00  0.00    -0.284 OA
HETATM    3  C1  UNK     1      18.226   4.436  32.994  1.00  0.00     0.053 A 
HETATM    4  C2  UNK     1      18.458   4.578  31.628  1.00  0.00     0.090 A 
HETATM    5  C3  UNK     1      18.856   2.256  31.375  1.00  0.00     0.123 A 
HETATM    6  C4  UNK     1      18.663   1.985  32.678  1.00  0.00     0.154 A 
HETATM    7  C5  UNK     1      18.324   3.097  33.598  1.00  0.00     0.221 A 
HETATM    8  C7  UNK     1      17.905   5.550  33.775  1.00  0.00     0.055 A 
HETATM    9  C8  UNK     1      18.374   5.837  31.032  1.00  0.00     0.041 A 
HETATM   10  C9  UNK     1      17.821   6.807  33.177  1.00  0.00     0.069 A 
HETATM   11  C10 UNK     1      18.054   6.951  31.808  1.00  0.00     0.039 A 
ENDROOT
BRANCH   5  12
HETATM   12  C6  UNK     1      19.203   1.213  30.393  1.00  0.00     0.001 A 
HETATM   13  C11 UNK     1      20.220   0.300  30.674  1.00  0.00     0.014 A 
HETATM   14  C13 UNK     1      20.548  -0.687  29.746  1.00  0.00     0.001 A 
HETATM   15  C15 UNK     1      19.858  -0.764  28.536  1.00  0.00     0.000 A 
HETATM   16  C14 UNK     1      18.840   0.147  28.255  1.00  0.00     0.001 A 
HETATM   17  C12 UNK     1      18.512   1.136  29.184  1.00  0.00     0.014 A 
ENDBRANCH   5  12
BRANCH   6  18
HETATM   18  O2  UNK     1      18.782   0.719  33.209  1.00  0.00    -0.350 OA
HETATM   19  C16 UNK     1      17.580   0.323  33.840  1.00  0.00     0.210 C 
ENDBRANCH   6  18
BRANCH  10  20
HETATM   20  O3  UNK     1      17.509   7.898  33.930  1.00  0.00    -0.356 OA
HETATM   21  C17 UNK     1      16.838   7.664  35.166  1.00  0.00     0.210 C 
ENDBRANCH  10  20
TORSDOF 3
ENDMDL
MODEL 6
REMARK VINA RESULT:      -7.2      2.634      7.203
REMARK  3 active torsions:
REMARK  status: ('A' for Active; 'I' for Inactive)
REMARK    1  A    between atoms: C4_8  and  O2_2 
REMARK    2  A    between atoms: C9_13  and  O3_3 
REMARK    3  A    between atoms: C3_7  and  C6_10 
ROOT
HETATM    1  O1  UNK     1      16.483   5.911  32.415  1.00  0.00    -0.306 OA
HETATM    2  O4  UNK     1      18.871   7.824  35.105  1.00  0.00    -0.284 OA
HETATM    3  C1  UNK     1      16.769   7.686  34.045  1.00  0.00     0.053 A 
HETATM    4  C2  UNK     1      16.005   6.991  33.111  1.00  0.00     0.090 A 
HETATM    5  C3  UNK     1      17.779   5.487  32.662  1.00  0.00     0.123 A 
HETATM    6  C4  UNK     1      18.622   6.074  33.529  1.00  0.00     0.154 A 
HETATM    7  C5  UNK     1      18.151   7.249  34.301  1.00  0.00     0.221 A 
HETATM    8  C7  UNK     1      16.228   8.780  34.726  1.00  0.00     0.055 A 
HETATM    9  C8  UNK     1      14.692   7.387  32.849  1.00  0.00     0.041 A 
HETATM   10  C9  UNK     1      14.916   9.174  34.463  1.00  0.00     0.069 A 
HETATM   11  C10 UNK     1      14.149   8.478  33.526  1.00  0.00     0.039 A 
ENDROOT
BRANCH   5  12
HETATM   12  C6  UNK     1      18.167   4.319  31.850  1.00  0.00     0.001 A 
HETATM   13  C11 UNK     1      18.108   3.038  32.398  1.00  0.00     0.014 A 
HETATM   14  C13 UNK     1      18.474   1.933  31.630  1.00  0.00     0.001 A 
HETATM   15  C15 UNK     1      18.899   2.108  30.313  1.00  0.00     0.000 A 
HETATM   16  C14 UNK     1      18.957   3.389  29.765  1.00  0.00     0.001 A 
HETATM   17  C12 UNK     1      18.590   4.495  30.533  1.00  0.00     0.014 A 
ENDBRANCH   5  12
BRANCH   6  18
HETATM   18  O2  UNK     1      19.917   5.646  33.728  1.00  0.00    -0.350 OA
HETATM   19  C16 UNK     1      20.818   6.377  32.919  1.00  0.00     0.210 C 
ENDBRANCH   6  18
BRANCH  10  20
HETATM   20  O3  UNK     1      14.381  10.238  35.121  1.00  0.00    -0.356 OA
HETATM   21  C17 UNK     1      13.639  11.176  34.344  1.00  0.00     0.210 C 
ENDBRANCH  10  20
TORSDOF 3
ENDMDL
MODEL 7
REMARK VINA RESULT:      -7.1     22.885     25.097
REMARK  3 active torsions:
REMARK  status: ('A' for Active; 'I' for Inactive)
REMARK    1  A    between atoms: C4_8  and  O2_2 
REMARK    2  A    between atoms: C9_13  and  O3_3 
REMARK    3  A    between atoms: C3_7  and  C6_10 
ROOT
HETATM    1  O1  UNK     1      13.549   8.091   7.919  1.00  0.00    -0.306 OA
HETATM    2  O4  UNK     1      10.473   9.100  10.394  1.00  0.00    -0.284 OA
HETATM    3  C1  UNK     1      11.235   7.789   8.587  1.00  0.00     0.053 A 
HETATM    4  C2  UNK     1      12.325   7.491   7.773  1.00  0.00     0.090 A 
HETATM    5  C3  UNK     1      13.710   9.026   8.928  1.00  0.00     0.123 A 
HETATM    6  C4  UNK     1      12.739   9.410   9.776  1.00  0.00     0.154 A 
HETATM    7  C5  UNK     1      11.396   8.792   9.652  1.00  0.00     0.221 A 
HETATM    8  C7  UNK     1      10.011   7.145   8.393  1.00  0.00     0.055 A 
HETATM    9  C8  UNK     1      12.197   6.545   6.754  1.00  0.00     0.041 A 
HETATM   10  C9  UNK     1       9.885   6.199   7.374  1.00  0.00     0.069 A 
HETATM   11  C10 UNK     1      10.976   5.900   6.556  1.00  0.00     0.039 A 
ENDROOT
BRANCH   5  12
HETATM   12  C6  UNK     1      15.070   9.593   8.976  1.00  0.00     0.001 A 
HETATM   13  C11 UNK     1      16.053   8.984   9.756  1.00  0.00     0.014 A 
HETATM   14  C13 UNK     1      17.339   9.519   9.801  1.00  0.00     0.001 A 
HETATM   15  C15 UNK     1      17.645  10.664   9.065  1.00  0.00     0.000 A 
HETATM   16  C14 UNK     1      16.662  11.273   8.285  1.00  0.00     0.001 A 
HETATM   17  C12 UNK     1      15.375  10.737   8.240  1.00  0.00     0.014 A 
ENDBRANCH   5  12
BRANCH   6  18
HETATM   18  O2  UNK     1      12.924  10.367  10.750  1.00  0.00    -0.350 OA
HETATM   19  C16 UNK     1      13.199   9.767  12.000  1.00  0.00     0.210 C 
ENDBRANCH   6  18
BRANCH  10  20
HETATM   20  O3  UNK     1       8.696   5.566   7.177  1.00  0.00    -0.356 OA
HETATM   21  C17 UNK     1       7.852   5.401   8.314  1.00  0.00     0.210 C 
ENDBRANCH  10  20
TORSDOF 3
ENDMDL
MODEL 8
REMARK VINA RESULT:      -7.0     24.127     25.805
REMARK  3 active torsions:
REMARK  status: ('A' for Active; 'I' for Inactive)
REMARK    1  A    between atoms: C4_8  and  O2_2 
REMARK    2  A    between atoms: C9_13  and  O3_3 
REMARK    3  A    between atoms: C3_7  and  C6_10 
ROOT
HETATM    1  O1  UNK     1       7.774   4.545   9.100  1.00  0.00    -0.306 OA
HETATM    2  O4  UNK     1       5.815   7.658  10.853  1.00  0.00    -0.284 OA
HETATM    3  C1  UNK     1       6.054   5.322  10.626  1.00  0.00     0.053 A 
HETATM    4  C2  UNK     1       6.760   4.304   9.992  1.00  0.00     0.090 A 
HETATM    5  C3  UNK     1       8.117   5.859   8.830  1.00  0.00     0.123 A 
HETATM    6  C4  UNK     1       7.511   6.933   9.367  1.00  0.00     0.154 A 
HETATM    7  C5  UNK     1       6.405   6.721  10.332  1.00  0.00     0.221 A 
HETATM    8  C7  UNK     1       5.030   5.017  11.526  1.00  0.00     0.055 A 
HETATM    9  C8  UNK     1       6.445   2.969  10.252  1.00  0.00     0.041 A 
HETATM   10  C9  UNK     1       4.717   3.683  11.785  1.00  0.00     0.069 A 
HETATM   11  C10 UNK     1       5.423   2.660  11.150  1.00  0.00     0.039 A 
ENDROOT
BRANCH   5  12
HETATM   12  C6  UNK     1       9.220   5.978   7.859  1.00  0.00     0.001 A 
HETATM   13  C11 UNK     1      10.543   5.876   8.289  1.00  0.00     0.014 A 
HETATM   14  C13 UNK     1      11.586   5.987   7.370  1.00  0.00     0.001 A 
HETATM   15  C15 UNK     1      11.307   6.201   6.020  1.00  0.00     0.000 A 
HETATM   16  C14 UNK     1       9.984   6.302   5.590  1.00  0.00     0.001 A 
HETATM   17  C12 UNK     1       8.940   6.190   6.509  1.00  0.00     0.014 A 
ENDBRANCH   5  12
BRANCH   6  18
HETATM   18  O2  UNK     1       7.856   8.229   9.052  1.00  0.00    -0.350 OA
HETATM   19  C16 UNK     1       8.763   8.753  10.002  1.00  0.00     0.210 C 
ENDBRANCH   6  18
BRANCH  10  20
HETATM   20  O3  UNK     1       3.721   3.375  12.661  1.00  0.00    -0.356 OA
HETATM   21  C17 UNK     1       4.059   2.529  13.758  1.00  0.00     0.210 C 
ENDBRANCH  10  20
TORSDOF 3
ENDMDL
MODEL 9
REMARK VINA RESULT:      -7.0      3.941      8.754
REMARK  3 active torsions:
REMARK  status: ('A' for Active; 'I' for Inactive)
REMARK    1  A    between atoms: C4_8  and  O2_2 
REMARK    2  A    between atoms: C9_13  and  O3_3 
REMARK    3  A    between atoms: C3_7  and  C6_10 
ROOT
HETATM    1  O1  UNK     1      18.065   9.062  33.228  1.00  0.00    -0.306 OA
HETATM    2  O4  UNK     1      14.216   9.441  34.508  1.00  0.00    -0.284 OA
HETATM    3  C1  UNK     1      16.355  10.411  34.299  1.00  0.00     0.053 A 
HETATM    4  C2  UNK     1      17.656  10.218  33.842  1.00  0.00     0.090 A 
HETATM    5  C3  UNK     1      17.139   8.048  33.046  1.00  0.00     0.123 A 
HETATM    6  C4  UNK     1      15.857   8.103  33.447  1.00  0.00     0.154 A 
HETATM    7  C5  UNK     1      15.371   9.332  34.121  1.00  0.00     0.221 A 
HETATM    8  C7  UNK     1      15.995  11.611  34.917  1.00  0.00     0.055 A 
HETATM    9  C8  UNK     1      18.609  11.225  34.001  1.00  0.00     0.041 A 
HETATM   10  C9  UNK     1      16.949  12.617  35.075  1.00  0.00     0.069 A 
HETATM   11  C10 UNK     1      18.254  12.425  34.618  1.00  0.00     0.039 A 
ENDROOT
BRANCH   5  12
HETATM   12  C6  UNK     1      17.707   6.865  32.374  1.00  0.00     0.001 A 
HETATM   13  C11 UNK     1      18.162   6.959  31.060  1.00  0.00     0.014 A 
HETATM   14  C13 UNK     1      18.700   5.841  30.425  1.00  0.00     0.001 A 
HETATM   15  C15 UNK     1      18.783   4.625  31.105  1.00  0.00     0.000 A 
HETATM   16  C14 UNK     1      18.328   4.530  32.420  1.00  0.00     0.001 A 
HETATM   17  C12 UNK     1      17.790   5.650  33.055  1.00  0.00     0.014 A 
ENDBRANCH   5  12
BRANCH   6  18
HETATM   18  O2  UNK     1      14.969   7.063  33.278  1.00  0.00    -0.350 OA
HETATM   19  C16 UNK     1      14.261   7.198  32.061  1.00  0.00     0.210 C 
ENDBRANCH   6  18
BRANCH  10  20
HETATM   20  O3  UNK     1      16.607  13.790  35.676  1.00  0.00    -0.356 OA
HETATM   21  C17 UNK     1      15.872  13.705  36.895  1.00  0.00     0.210 C 
ENDBRANCH  10  20
TORSDOF 3
ENDMDL
MODEL 10
REMARK VINA RESULT:      -6.9      1.795      3.290
REMARK  3 active torsions:
REMARK  status: ('A' for Active; 'I' for Inactive)
REMARK    1  A    between atoms: C4_8  and  O2_2 
REMARK    2  A    between atoms: C9_13  and  O3_3 
REMARK    3  A    between atoms: C3_7  and  C6_10 
ROOT
HETATM    1  O1  UNK     1      18.082   2.987  33.580  1.00  0.00    -0.306 OA
HETATM    2  O4  UNK     1      19.058  -0.319  31.409  1.00  0.00    -0.284 OA
HETATM    3  C1  UNK     1      18.451   0.590  33.499  1.00  0.00     0.053 A 
HETATM    4  C2  UNK     1      18.127   1.757  34.185  1.00  0.00     0.090 A 
HETATM    5  C3  UNK     1      18.358   3.068  32.225  1.00  0.00     0.123 A 
HETATM    6  C4  UNK     1      18.693   2.021  31.451  1.00  0.00     0.154 A 
HETATM    7  C5  UNK     1      18.760   0.672  32.062  1.00  0.00     0.221 A 
HETATM    8  C7  UNK     1      18.482  -0.637  34.167  1.00  0.00     0.055 A 
HETATM    9  C8  UNK     1      17.832   1.707  35.548  1.00  0.00     0.041 A 
HETATM   10  C9  UNK     1      18.186  -0.685  35.530  1.00  0.00     0.069 A 
HETATM   11  C10 UNK     1      17.862   0.485  36.219  1.00  0.00     0.039 A 
ENDROOT
BRANCH   5  12
HETATM   12  C6  UNK     1      18.273   4.443  31.702  1.00  0.00     0.001 A 
HETATM   13  C11 UNK     1      19.073   4.832  30.627  1.00  0.00     0.014 A 
HETATM   14  C13 UNK     1      18.993   6.132  30.131  1.00  0.00     0.001 A 
HETATM   15  C15 UNK     1      18.111   7.046  30.709  1.00  0.00     0.000 A 
HETATM   16  C14 UNK     1      17.311   6.658  31.783  1.00  0.00     0.001 A 
HETATM   17  C12 UNK     1      17.391   5.356  32.279  1.00  0.00     0.014 A 
ENDBRANCH   5  12
BRANCH   6  18
HETATM   18  O2  UNK     1      18.993   2.141  30.111  1.00  0.00    -0.350 OA
HETATM   19  C16 UNK     1      17.875   1.808  29.312  1.00  0.00     0.210 C 
ENDBRANCH   6  18
BRANCH  10  20
HETATM   20  O3  UNK     1      18.213  -1.876  36.189  1.00  0.00    -0.356 OA
HETATM   21  C17 UNK     1      18.163  -1.830  37.614  1.00  0.00     0.210 C 
ENDBRANCH  10  20
TORSDOF 3
ENDMDL
