MODEL 1
REMARK VINA RESULT:      -8.7      0.000      0.000
REMARK  3 active torsions:
REMARK  status: ('A' for Active; 'I' for Inactive)
REMARK    1  A    between atoms: C7_11  and  O2_2 
REMARK    2  A    between atoms: C13_17  and  O4_4 
REMARK    3  A    between atoms: C3_7  and  C4_8 
ROOT
HETATM    1  O1  UNK     1      18.756  -0.607  33.701  1.00  0.00    -0.309 OA
HETATM    2  O3  UNK     1      20.616  -3.642  35.683  1.00  0.00    -0.287 OA
HETATM    3  C1  UNK     1      19.114  -1.820  35.774  1.00  0.00     0.081 A 
HETATM    4  C2  UNK     1      18.511  -0.803  35.036  1.00  0.00     0.093 A 
HETATM    5  C3  UNK     1      19.649  -1.454  33.062  1.00  0.00     0.090 A 
HETATM    6  C5  UNK     1      20.054  -2.726  35.098  1.00  0.00     0.190 A 
HETATM    7  C6  UNK     1      20.287  -2.472  33.661  1.00  0.00     0.094 A 
HETATM    8  C7  UNK     1      18.825  -1.974  37.133  1.00  0.00     0.082 A 
HETATM    9  C8  UNK     1      17.615   0.069  35.653  1.00  0.00     0.038 A 
HETATM   10  C11 UNK     1      17.929  -1.099  37.747  1.00  0.00     0.037 A 
HETATM   11  C12 UNK     1      17.325  -0.079  37.010  1.00  0.00     0.006 A 
ENDROOT
BRANCH   5  12
HETATM   12  C4  UNK     1      19.836  -1.158  31.628  1.00  0.00     0.001 A 
HETATM   13  C10 UNK     1      20.293  -2.153  30.760  1.00  0.00     0.014 A 
HETATM   14  C14 UNK     1      20.468  -1.875  29.404  1.00  0.00     0.004 A 
HETATM   15  C15 UNK     1      20.187  -0.600  28.912  1.00  0.00     0.036 A 
HETATM   16  C13 UNK     1      19.731   0.397  29.776  1.00  0.00     0.066 A 
HETATM   17  C9  UNK     1      19.555   0.118  31.131  1.00  0.00     0.050 A 
BRANCH  16  18
HETATM   18  O4  UNK     1      19.455   1.639  29.293  1.00  0.00    -0.361 OA
HETATM   19  H10 UNK     1      19.983   1.790  28.492  1.00  0.00     0.217 HD
ENDBRANCH  16  18
ENDBRANCH   5  12
BRANCH   8  20
HETATM   20  O2  UNK     1      19.388  -2.951  37.897  1.00  0.00    -0.360 OA
HETATM   21  H9  UNK     1      19.549  -3.746  37.367  1.00  0.00     0.217 HD
ENDBRANCH   8  20
TORSDOF 3
ENDMDL
MODEL 2
REMARK VINA RESULT:      -8.3      2.190      6.158
REMARK  3 active torsions:
REMARK  status: ('A' for Active; 'I' for Inactive)
REMARK    1  A    between atoms: C7_11  and  O2_2 
REMARK    2  A    between atoms: C13_17  and  O4_4 
REMARK    3  A    between atoms: C3_7  and  C4_8 
ROOT
HETATM    1  O1  UNK     1      18.554   0.460  32.488  1.00  0.00    -0.309 OA
HETATM    2  O3  UNK     1      20.486  -3.127  32.423  1.00  0.00    -0.287 OA
HETATM    3  C1  UNK     1      19.829  -1.189  31.241  1.00  0.00     0.081 A 
HETATM    4  C2  UNK     1      19.153   0.027  31.333  1.00  0.00     0.093 A 
HETATM    5  C3  UNK     1      18.618  -0.353  33.610  1.00  0.00     0.090 A 
HETATM    6  C5  UNK     1      19.907  -2.049  32.432  1.00  0.00     0.190 A 
HETATM    7  C6  UNK     1      19.243  -1.540  33.649  1.00  0.00     0.094 A 
HETATM    8  C7  UNK     1      20.422  -1.579  30.038  1.00  0.00     0.082 A 
HETATM    9  C8  UNK     1      19.066   0.861  30.219  1.00  0.00     0.038 A 
HETATM   10  C11 UNK     1      20.333  -0.742  28.925  1.00  0.00     0.037 A 
HETATM   11  C12 UNK     1      19.656   0.476  29.015  1.00  0.00     0.006 A 
ENDROOT
BRANCH   5  12
HETATM   12  C4  UNK     1      17.945   0.210  34.797  1.00  0.00     0.001 A 
HETATM   13  C10 UNK     1      16.595  -0.064  35.033  1.00  0.00     0.014 A 
HETATM   14  C14 UNK     1      15.959   0.466  36.156  1.00  0.00     0.004 A 
HETATM   15  C15 UNK     1      16.669   1.273  37.045  1.00  0.00     0.036 A 
HETATM   16  C13 UNK     1      18.017   1.549  36.812  1.00  0.00     0.066 A 
HETATM   17  C9  UNK     1      18.653   1.018  35.690  1.00  0.00     0.050 A 
BRANCH  16  18
HETATM   18  O4  UNK     1      18.710   2.334  37.681  1.00  0.00    -0.361 OA
HETATM   19  H10 UNK     1      19.332   1.779  38.180  1.00  0.00     0.217 HD
ENDBRANCH  16  18
ENDBRANCH   5  12
BRANCH   8  20
HETATM   20  O2  UNK     1      21.093  -2.756  29.898  1.00  0.00    -0.360 OA
HETATM   21  H9  UNK     1      21.763  -2.686  29.201  1.00  0.00     0.217 HD
ENDBRANCH   8  20
TORSDOF 3
ENDMDL
MODEL 3
REMARK VINA RESULT:      -8.3      1.514      6.915
REMARK  3 active torsions:
REMARK  status: ('A' for Active; 'I' for Inactive)
REMARK    1  A    between atoms: C7_11  and  O2_2 
REMARK    2  A    between atoms: C13_17  and  O4_4 
REMARK    3  A    between atoms: C3_7  and  C4_8 
ROOT
HETATM    1  O1  UNK     1      19.096  -0.528  33.209  1.00  0.00    -0.309 OA
HETATM    2  O3  UNK     1      18.448   2.792  30.939  1.00  0.00    -0.287 OA
HETATM    3  C1  UNK     1      19.235   0.567  31.045  1.00  0.00     0.081 A 
HETATM    4  C2  UNK     1      19.429  -0.534  31.878  1.00  0.00     0.093 A 
HETATM    5  C3  UNK     1      18.552   0.626  33.748  1.00  0.00     0.090 A 
HETATM    6  C5  UNK     1      18.649   1.791  31.612  1.00  0.00     0.190 A 
HETATM    7  C6  UNK     1      18.311   1.747  33.050  1.00  0.00     0.094 A 
HETATM    8  C7  UNK     1      19.592   0.504  29.696  1.00  0.00     0.082 A 
HETATM    9  C8  UNK     1      19.982  -1.707  31.365  1.00  0.00     0.038 A 
HETATM   10  C11 UNK     1      20.145  -0.671  29.186  1.00  0.00     0.037 A 
HETATM   11  C12 UNK     1      20.341  -1.775  30.018  1.00  0.00     0.006 A 
ENDROOT
BRANCH   5  12
HETATM   12  C4  UNK     1      18.227   0.522  35.185  1.00  0.00     0.001 A 
HETATM   13  C10 UNK     1      17.954   1.675  35.927  1.00  0.00     0.014 A 
HETATM   14  C14 UNK     1      17.646   1.577  37.284  1.00  0.00     0.004 A 
HETATM   15  C15 UNK     1      17.611   0.328  37.904  1.00  0.00     0.036 A 
HETATM   16  C13 UNK     1      17.883  -0.825  37.166  1.00  0.00     0.066 A 
HETATM   17  C9  UNK     1      18.190  -0.727  35.809  1.00  0.00     0.050 A 
BRANCH  16  18
HETATM   18  O4  UNK     1      17.845  -2.044  37.771  1.00  0.00    -0.361 OA
HETATM   19  H10 UNK     1      18.741  -2.422  37.773  1.00  0.00     0.217 HD
ENDBRANCH  16  18
ENDBRANCH   5  12
BRANCH   8  20
HETATM   20  O2  UNK     1      19.423   1.552  28.843  1.00  0.00    -0.360 OA
HETATM   21  H9  UNK     1      19.478   2.393  29.321  1.00  0.00     0.217 HD
ENDBRANCH   8  20
TORSDOF 3
ENDMDL
MODEL 4
REMARK VINA RESULT:      -8.1      4.742      6.741
REMARK  3 active torsions:
REMARK  status: ('A' for Active; 'I' for Inactive)
REMARK    1  A    between atoms: C7_11  and  O2_2 
REMARK    2  A    between atoms: C13_17  and  O4_4 
REMARK    3  A    between atoms: C3_7  and  C4_8 
ROOT
HETATM    1  O1  UNK     1      17.983   3.113  33.265  1.00  0.00    -0.309 OA
HETATM    2  O3  UNK     1      19.199   1.708  29.640  1.00  0.00    -0.287 OA
HETATM    3  C1  UNK     1      18.692   1.235  31.899  1.00  0.00     0.081 A 
HETATM    4  C2  UNK     1      18.270   1.781  33.110  1.00  0.00     0.093 A 
HETATM    5  C3  UNK     1      18.127   3.952  32.171  1.00  0.00     0.090 A 
HETATM    6  C5  UNK     1      18.837   2.120  30.733  1.00  0.00     0.190 A 
HETATM    7  C6  UNK     1      18.519   3.546  30.953  1.00  0.00     0.094 A 
HETATM    8  C7  UNK     1      18.969  -0.131  31.798  1.00  0.00     0.082 A 
HETATM    9  C8  UNK     1      18.123   0.963  34.230  1.00  0.00     0.038 A 
HETATM   10  C11 UNK     1      18.822  -0.946  32.920  1.00  0.00     0.037 A 
HETATM   11  C12 UNK     1      18.400  -0.401  34.134  1.00  0.00     0.006 A 
ENDROOT
BRANCH   5  12
HETATM   12  C4  UNK     1      17.788   5.362  32.448  1.00  0.00     0.001 A 
HETATM   13  C10 UNK     1      17.931   5.877  33.739  1.00  0.00     0.014 A 
HETATM   14  C14 UNK     1      17.612   7.209  34.002  1.00  0.00     0.004 A 
HETATM   15  C15 UNK     1      17.149   8.032  32.974  1.00  0.00     0.036 A 
HETATM   16  C13 UNK     1      17.005   7.521  31.683  1.00  0.00     0.066 A 
HETATM   17  C9  UNK     1      17.324   6.189  31.421  1.00  0.00     0.050 A 
BRANCH  16  18
HETATM   18  O4  UNK     1      16.555   8.325  30.681  1.00  0.00    -0.361 OA
HETATM   19  H10 UNK     1      16.969   9.200  30.769  1.00  0.00     0.217 HD
ENDBRANCH  16  18
ENDBRANCH   5  12
BRANCH   8  20
HETATM   20  O2  UNK     1      19.384  -0.711  30.638  1.00  0.00    -0.360 OA
HETATM   21  H9  UNK     1      18.822  -0.435  29.899  1.00  0.00     0.217 HD
ENDBRANCH   8  20
TORSDOF 3
ENDMDL
MODEL 5
REMARK VINA RESULT:      -8.1     25.393     27.320
REMARK  3 active torsions:
REMARK  status: ('A' for Active; 'I' for Inactive)
REMARK    1  A    between atoms: C7_11  and  O2_2 
REMARK    2  A    between atoms: C13_17  and  O4_4 
REMARK    3  A    between atoms: C3_7  and  C4_8 
ROOT
HETATM    1  O1  UNK     1      13.207   7.875   8.519  1.00  0.00    -0.309 OA
HETATM    2  O3  UNK     1      15.750   4.808   9.371  1.00  0.00    -0.287 OA
HETATM    3  C1  UNK     1      15.346   7.136   9.400  1.00  0.00     0.081 A 
HETATM    4  C2  UNK     1      14.429   8.137   9.085  1.00  0.00     0.093 A 
HETATM    5  C3  UNK     1      12.876   6.558   8.242  1.00  0.00     0.090 A 
HETATM    6  C5  UNK     1      14.995   5.736   9.116  1.00  0.00     0.190 A 
HETATM    7  C6  UNK     1      13.670   5.507   8.504  1.00  0.00     0.094 A 
HETATM    8  C7  UNK     1      16.576   7.461   9.977  1.00  0.00     0.082 A 
HETATM    9  C8  UNK     1      14.737   9.472   9.345  1.00  0.00     0.038 A 
HETATM   10  C11 UNK     1      16.882   8.797  10.235  1.00  0.00     0.037 A 
HETATM   11  C12 UNK     1      15.965   9.802   9.920  1.00  0.00     0.006 A 
ENDROOT
BRANCH   5  12
HETATM   12  C4  UNK     1      11.539   6.389   7.639  1.00  0.00     0.001 A 
HETATM   13  C10 UNK     1      11.401   6.321   6.250  1.00  0.00     0.014 A 
HETATM   14  C14 UNK     1      10.138   6.160   5.679  1.00  0.00     0.004 A 
HETATM   15  C15 UNK     1       9.010   6.068   6.494  1.00  0.00     0.036 A 
HETATM   16  C13 UNK     1       9.145   6.137   7.882  1.00  0.00     0.066 A 
HETATM   17  C9  UNK     1      10.407   6.297   8.452  1.00  0.00     0.050 A 
BRANCH  16  18
HETATM   18  O4  UNK     1       8.043   6.045   8.676  1.00  0.00    -0.361 OA
HETATM   19  H10 UNK     1       7.421   5.412   8.280  1.00  0.00     0.217 HD
ENDBRANCH  16  18
ENDBRANCH   5  12
BRANCH   8  20
HETATM   20  O2  UNK     1      17.506   6.520  10.303  1.00  0.00    -0.360 OA
HETATM   21  H9  UNK     1      18.202   6.483   9.630  1.00  0.00     0.217 HD
ENDBRANCH   8  20
TORSDOF 3
ENDMDL
MODEL 6
REMARK VINA RESULT:      -8.1     15.104     17.923
REMARK  3 active torsions:
REMARK  status: ('A' for Active; 'I' for Inactive)
REMARK    1  A    between atoms: C7_11  and  O2_2 
REMARK    2  A    between atoms: C13_17  and  O4_4 
REMARK    3  A    between atoms: C3_7  and  C4_8 
ROOT
HETATM    1  O1  UNK     1      19.258   0.496  15.498  1.00  0.00    -0.309 OA
HETATM    2  O3  UNK     1      18.778  -0.906  19.293  1.00  0.00    -0.287 OA
HETATM    3  C1  UNK     1      19.123   0.955  17.879  1.00  0.00     0.081 A 
HETATM    4  C2  UNK     1      19.280   1.368  16.557  1.00  0.00     0.093 A 
HETATM    5  C3  UNK     1      19.080  -0.854  15.758  1.00  0.00     0.090 A 
HETATM    6  C5  UNK     1      18.926  -0.475  18.157  1.00  0.00     0.190 A 
HETATM    7  C6  UNK     1      18.913  -1.373  16.984  1.00  0.00     0.094 A 
HETATM    8  C7  UNK     1      19.153   1.889  18.919  1.00  0.00     0.082 A 
HETATM    9  C8  UNK     1      19.468   2.719  16.266  1.00  0.00     0.038 A 
HETATM   10  C11 UNK     1      19.342   3.239  18.624  1.00  0.00     0.037 A 
HETATM   11  C12 UNK     1      19.499   3.654  17.301  1.00  0.00     0.006 A 
ENDROOT
BRANCH   5  12
HETATM   12  C4  UNK     1      19.068  -1.700  14.548  1.00  0.00     0.001 A 
HETATM   13  C10 UNK     1      19.120  -3.092  14.667  1.00  0.00     0.014 A 
HETATM   14  C14 UNK     1      19.107  -3.893  13.525  1.00  0.00     0.004 A 
HETATM   15  C15 UNK     1      19.044  -3.306  12.261  1.00  0.00     0.036 A 
HETATM   16  C13 UNK     1      18.992  -1.917  12.139  1.00  0.00     0.066 A 
HETATM   17  C9  UNK     1      19.004  -1.116  13.281  1.00  0.00     0.050 A 
BRANCH  16  18
HETATM   18  O4  UNK     1      18.927  -1.345  10.905  1.00  0.00    -0.361 OA
HETATM   19  H10 UNK     1      19.371  -0.481  10.935  1.00  0.00     0.217 HD
ENDBRANCH  16  18
ENDBRANCH   5  12
BRANCH   8  20
HETATM   20  O2  UNK     1      19.006   1.536  20.226  1.00  0.00    -0.360 OA
HETATM   21  H9  UNK     1      19.463   2.166  20.802  1.00  0.00     0.217 HD
ENDBRANCH   8  20
TORSDOF 3
ENDMDL
MODEL 7
REMARK VINA RESULT:      -8.0      3.706      6.086
REMARK  3 active torsions:
REMARK  status: ('A' for Active; 'I' for Inactive)
REMARK    1  A    between atoms: C7_11  and  O2_2 
REMARK    2  A    between atoms: C13_17  and  O4_4 
REMARK    3  A    between atoms: C3_7  and  C4_8 
ROOT
HETATM    1  O1  UNK     1      19.258   2.036  30.438  1.00  0.00    -0.309 OA
HETATM    2  O3  UNK     1      18.518   0.030  33.906  1.00  0.00    -0.287 OA
HETATM    3  C1  UNK     1      19.308  -0.050  31.680  1.00  0.00     0.081 A 
HETATM    4  C2  UNK     1      19.537   0.696  30.525  1.00  0.00     0.093 A 
HETATM    5  C3  UNK     1      18.717   2.672  31.544  1.00  0.00     0.090 A 
HETATM    6  C5  UNK     1      18.742   0.623  32.859  1.00  0.00     0.190 A 
HETATM    7  C6  UNK     1      18.456   2.065  32.713  1.00  0.00     0.094 A 
HETATM    8  C7  UNK     1      19.613  -1.413  31.713  1.00  0.00     0.082 A 
HETATM    9  C8  UNK     1      20.074   0.082  29.394  1.00  0.00     0.038 A 
HETATM   10  C11 UNK     1      20.149  -2.025  30.580  1.00  0.00     0.037 A 
HETATM   11  C12 UNK     1      20.379  -1.279  29.422  1.00  0.00     0.006 A 
ENDROOT
BRANCH   5  12
HETATM   12  C4  UNK     1      18.460   4.111  31.342  1.00  0.00     0.001 A 
HETATM   13  C10 UNK     1      19.030   4.779  30.255  1.00  0.00     0.014 A 
HETATM   14  C14 UNK     1      18.786   6.139  30.062  1.00  0.00     0.004 A 
HETATM   15  C15 UNK     1      17.973   6.836  30.957  1.00  0.00     0.036 A 
HETATM   16  C13 UNK     1      17.402   6.173  32.043  1.00  0.00     0.066 A 
HETATM   17  C9  UNK     1      17.645   4.813  32.235  1.00  0.00     0.050 A 
BRANCH  16  18
HETATM   18  O4  UNK     1      16.607   6.853  32.913  1.00  0.00    -0.361 OA
HETATM   19  H10 UNK     1      16.538   6.346  33.739  1.00  0.00     0.217 HD
ENDBRANCH  16  18
ENDBRANCH   5  12
BRANCH   8  20
HETATM   20  O2  UNK     1      19.406  -2.185  32.816  1.00  0.00    -0.360 OA
HETATM   21  H9  UNK     1      20.101  -2.031  33.474  1.00  0.00     0.217 HD
ENDBRANCH   8  20
TORSDOF 3
ENDMDL
MODEL 8
REMARK VINA RESULT:      -8.0     14.446     17.379
REMARK  3 active torsions:
REMARK  status: ('A' for Active; 'I' for Inactive)
REMARK    1  A    between atoms: C7_11  and  O2_2 
REMARK    2  A    between atoms: C13_17  and  O4_4 
REMARK    3  A    between atoms: C3_7  and  C4_8 
ROOT
HETATM    1  O1  UNK     1      19.044  -1.112  17.649  1.00  0.00    -0.309 OA
HETATM    2  O3  UNK     1      19.192   2.314  15.449  1.00  0.00    -0.287 OA
HETATM    3  C1  UNK     1      19.052   1.316  17.586  1.00  0.00     0.081 A 
HETATM    4  C2  UNK     1      19.007   0.106  18.278  1.00  0.00     0.093 A 
HETATM    5  C3  UNK     1      19.123  -1.139  16.265  1.00  0.00     0.090 A 
HETATM    6  C5  UNK     1      19.144   1.291  16.119  1.00  0.00     0.190 A 
HETATM    7  C6  UNK     1      19.179  -0.045  15.490  1.00  0.00     0.094 A 
HETATM    8  C7  UNK     1      19.011   2.528  18.280  1.00  0.00     0.082 A 
HETATM    9  C8  UNK     1      18.920   0.102  19.670  1.00  0.00     0.038 A 
HETATM   10  C11 UNK     1      18.924   2.520  19.672  1.00  0.00     0.037 A 
HETATM   11  C12 UNK     1      18.878   1.310  20.367  1.00  0.00     0.006 A 
ENDROOT
BRANCH   5  12
HETATM   12  C4  UNK     1      19.162  -2.499  15.693  1.00  0.00     0.001 A 
HETATM   13  C10 UNK     1      17.994  -3.082  15.192  1.00  0.00     0.014 A 
HETATM   14  C14 UNK     1      18.030  -4.367  14.649  1.00  0.00     0.004 A 
HETATM   15  C15 UNK     1      19.233  -5.073  14.607  1.00  0.00     0.036 A 
HETATM   16  C13 UNK     1      20.400  -4.494  15.107  1.00  0.00     0.066 A 
HETATM   17  C9  UNK     1      20.364  -3.210  15.648  1.00  0.00     0.050 A 
BRANCH  16  18
HETATM   18  O4  UNK     1      21.573  -5.183  15.063  1.00  0.00    -0.361 OA
HETATM   19  H10 UNK     1      21.502  -5.884  14.393  1.00  0.00     0.217 HD
ENDBRANCH  16  18
ENDBRANCH   5  12
BRANCH   8  20
HETATM   20  O2  UNK     1      19.052   3.735  17.651  1.00  0.00    -0.360 OA
HETATM   21  H9  UNK     1      18.164   4.002  17.369  1.00  0.00     0.217 HD
ENDBRANCH   8  20
TORSDOF 3
ENDMDL
MODEL 9
REMARK VINA RESULT:      -7.9      1.805      6.609
REMARK  3 active torsions:
REMARK  status: ('A' for Active; 'I' for Inactive)
REMARK    1  A    between atoms: C7_11  and  O2_2 
REMARK    2  A    between atoms: C13_17  and  O4_4 
REMARK    3  A    between atoms: C3_7  and  C4_8 
ROOT
HETATM    1  O1  UNK     1      18.331   1.374  33.107  1.00  0.00    -0.309 OA
HETATM    2  O3  UNK     1      19.645  -2.008  31.255  1.00  0.00    -0.287 OA
HETATM    3  C1  UNK     1      19.040   0.268  31.065  1.00  0.00     0.081 A 
HETATM    4  C2  UNK     1      18.590   1.389  31.761  1.00  0.00     0.093 A 
HETATM    5  C3  UNK     1      18.518   0.190  33.803  1.00  0.00     0.090 A 
HETATM    6  C5  UNK     1      19.248  -0.988  31.801  1.00  0.00     0.190 A 
HETATM    7  C6  UNK     1      18.952  -0.952  33.248  1.00  0.00     0.094 A 
HETATM    8  C7  UNK     1      19.288   0.341  29.692  1.00  0.00     0.082 A 
HETATM    9  C8  UNK     1      18.385   2.592  31.085  1.00  0.00     0.038 A 
HETATM   10  C11 UNK     1      19.082   1.546  29.020  1.00  0.00     0.037 A 
HETATM   11  C12 UNK     1      18.631   2.670  29.714  1.00  0.00     0.006 A 
ENDROOT
BRANCH   5  12
HETATM   12  C4  UNK     1      18.215   0.287  35.245  1.00  0.00     0.001 A 
HETATM   13  C10 UNK     1      17.849   1.516  35.802  1.00  0.00     0.014 A 
HETATM   14  C14 UNK     1      17.560   1.608  37.164  1.00  0.00     0.004 A 
HETATM   15  C15 UNK     1      17.638   0.474  37.973  1.00  0.00     0.036 A 
HETATM   16  C13 UNK     1      18.003  -0.754  37.419  1.00  0.00     0.066 A 
HETATM   17  C9  UNK     1      18.291  -0.846  36.057  1.00  0.00     0.050 A 
BRANCH  16  18
HETATM   18  O4  UNK     1      18.076  -1.860  38.209  1.00  0.00    -0.361 OA
HETATM   19  H10 UNK     1      18.789  -1.738  38.857  1.00  0.00     0.217 HD
ENDBRANCH  16  18
ENDBRANCH   5  12
BRANCH   8  20
HETATM   20  O2  UNK     1      19.728  -0.725  28.968  1.00  0.00    -0.360 OA
HETATM   21  H9  UNK     1      19.043  -1.409  28.919  1.00  0.00     0.217 HD
ENDBRANCH   8  20
TORSDOF 3
ENDMDL
MODEL 10
REMARK VINA RESULT:      -7.9      5.335      7.585
REMARK  3 active torsions:
REMARK  status: ('A' for Active; 'I' for Inactive)
REMARK    1  A    between atoms: C7_11  and  O2_2 
REMARK    2  A    between atoms: C13_17  and  O4_4 
REMARK    3  A    between atoms: C3_7  and  C4_8 
ROOT
HETATM    1  O1  UNK     1      18.103   4.383  31.345  1.00  0.00    -0.309 OA
HETATM    2  O3  UNK     1      18.602   1.656  34.331  1.00  0.00    -0.287 OA
HETATM    3  C1  UNK     1      18.654   2.114  32.013  1.00  0.00     0.081 A 
HETATM    4  C2  UNK     1      18.468   3.096  31.042  1.00  0.00     0.093 A 
HETATM    5  C3  UNK     1      17.904   4.716  32.676  1.00  0.00     0.090 A 
HETATM    6  C5  UNK     1      18.453   2.467  33.427  1.00  0.00     0.190 A 
HETATM    7  C6  UNK     1      18.058   3.863  33.700  1.00  0.00     0.094 A 
HETATM    8  C7  UNK     1      19.028   0.818  31.646  1.00  0.00     0.082 A 
HETATM    9  C8  UNK     1      18.654   2.787  29.694  1.00  0.00     0.038 A 
HETATM   10  C11 UNK     1      19.212   0.513  30.298  1.00  0.00     0.037 A 
HETATM   11  C12 UNK     1      19.026   1.494  29.323  1.00  0.00     0.006 A 
ENDROOT
BRANCH   5  12
HETATM   12  C4  UNK     1      17.519   6.126  32.889  1.00  0.00     0.001 A 
HETATM   13  C10 UNK     1      17.917   6.792  34.051  1.00  0.00     0.014 A 
HETATM   14  C14 UNK     1      17.555   8.124  34.253  1.00  0.00     0.004 A 
HETATM   15  C15 UNK     1      16.794   8.794  33.295  1.00  0.00     0.036 A 
HETATM   16  C13 UNK     1      16.395   8.131  32.133  1.00  0.00     0.066 A 
HETATM   17  C9  UNK     1      16.757   6.800  31.931  1.00  0.00     0.050 A 
BRANCH  16  18
HETATM   18  O4  UNK     1      15.654   8.786  31.198  1.00  0.00    -0.361 OA
HETATM   19  H10 UNK     1      15.379   8.153  30.514  1.00  0.00     0.217 HD
ENDBRANCH  16  18
ENDBRANCH   5  12
BRANCH   8  20
HETATM   20  O2  UNK     1      19.221  -0.176  32.557  1.00  0.00    -0.360 OA
HETATM   21  H9  UNK     1      19.415   0.197  33.431  1.00  0.00     0.217 HD
ENDBRANCH   8  20
TORSDOF 3
ENDMDL
