MODEL 1
REMARK VINA RESULT:      -8.3      0.000      0.000
REMARK  6 active torsions:
REMARK  status: ('A' for Active; 'I' for Inactive)
REMARK    1  A    between atoms: C16_22  and  O2_2 
REMARK    2  A    between atoms: C7_13  and  O2_2 
REMARK    3  A    between atoms: C15_21  and  O4_4 
REMARK    4  A    between atoms: C17_23  and  O5_5 
REMARK    5  A    between atoms: C10_16  and  C8_14 
REMARK    6  A    between atoms: C16_22  and  C17_23 
ROOT
HETATM    1  O1  UNK     1      19.558   1.159  31.219  1.00  0.00    -0.306 OA
HETATM    2  O3  UNK     1      19.228   0.136  27.845  1.00  0.00    -0.284 OA
HETATM    3  C1  UNK     1      19.853  -0.768  29.978  1.00  0.00     0.051 A 
HETATM    4  C2  UNK     1      19.918  -0.170  31.234  1.00  0.00     0.093 A 
HETATM    5  C3  UNK     1      19.242   1.447  29.896  1.00  0.00     0.127 A 
HETATM    6  C4  UNK     1      19.409   0.252  29.036  1.00  0.00     0.218 A 
HETATM    7  C5  UNK     1      20.310  -0.885  32.346  1.00  0.00     0.075 A 
HETATM    8  C6  UNK     1      20.171  -2.093  29.770  1.00  0.00     0.021 A 
HETATM    9  C7  UNK     1      20.639  -2.231  32.163  1.00  0.00     0.072 A 
HETATM   10  C8  UNK     1      18.841   2.641  29.457  1.00  0.00     0.053 C 
HETATM   11  C9  UNK     1      20.571  -2.830  30.887  1.00  0.00     0.038 A 
ENDROOT
BRANCH  10  12
HETATM   12  C10 UNK     1      18.665   3.852  30.282  1.00  0.00    -0.033 A 
HETATM   13  C12 UNK     1      19.161   5.061  29.824  1.00  0.00     0.014 A 
HETATM   14  C14 UNK     1      18.994   6.205  30.605  1.00  0.00     0.037 A 
HETATM   15  C15 UNK     1      18.333   6.123  31.830  1.00  0.00     0.068 A 
HETATM   16  C13 UNK     1      17.839   4.897  32.276  1.00  0.00     0.037 A 
HETATM   17  C11 UNK     1      18.006   3.753  31.496  1.00  0.00     0.014 A 
BRANCH  15  18
HETATM   18  O4  UNK     1      18.171   7.240  32.592  1.00  0.00    -0.356 OA
HETATM   19  C18 UNK     1      16.967   7.983  32.405  1.00  0.00     0.210 C 
ENDBRANCH  15  18
ENDBRANCH  10  12
BRANCH   9  20
HETATM   20  O2  UNK     1      21.033  -2.979  33.232  1.00  0.00    -0.341 OA
BRANCH  20  21
HETATM   21  C16 UNK     1      20.247  -2.876  34.418  1.00  0.00     0.286 C 
BRANCH  21  22
HETATM   22  C17 UNK     1      21.114  -2.350  35.532  1.00  0.00     0.282 C 
HETATM   23  O6  UNK     1      22.121  -1.675  35.376  1.00  0.00    -0.263 OA
BRANCH  22  24
HETATM   24  O5  UNK     1      20.590  -2.750  36.728  1.00  0.00    -0.325 OA
HETATM   25  C19 UNK     1      19.789  -3.934  36.685  1.00  0.00     0.213 C 
ENDBRANCH  22  24
ENDBRANCH  21  22
ENDBRANCH  20  21
ENDBRANCH   9  20
TORSDOF 6
ENDMDL
MODEL 2
REMARK VINA RESULT:      -8.3      2.099      3.110
REMARK  6 active torsions:
REMARK  status: ('A' for Active; 'I' for Inactive)
REMARK    1  A    between atoms: C16_22  and  O2_2 
REMARK    2  A    between atoms: C7_13  and  O2_2 
REMARK    3  A    between atoms: C15_21  and  O4_4 
REMARK    4  A    between atoms: C17_23  and  O5_5 
REMARK    5  A    between atoms: C10_16  and  C8_14 
REMARK    6  A    between atoms: C16_22  and  C17_23 
ROOT
HETATM    1  O1  UNK     1      17.976   3.090  33.314  1.00  0.00    -0.306 OA
HETATM    2  O3  UNK     1      18.910   2.724  29.919  1.00  0.00    -0.284 OA
HETATM    3  C1  UNK     1      18.684   1.400  31.907  1.00  0.00     0.051 A 
HETATM    4  C2  UNK     1      18.285   1.754  33.194  1.00  0.00     0.093 A 
HETATM    5  C3  UNK     1      18.178   3.639  32.054  1.00  0.00     0.127 A 
HETATM    6  C4  UNK     1      18.637   2.608  31.092  1.00  0.00     0.218 A 
HETATM    7  C5  UNK     1      18.225   0.820  34.205  1.00  0.00     0.075 A 
HETATM    8  C6  UNK     1      19.038   0.111  31.569  1.00  0.00     0.021 A 
HETATM    9  C7  UNK     1      18.580  -0.496  33.889  1.00  0.00     0.072 A 
HETATM   10  C8  UNK     1      17.987   4.923  31.747  1.00  0.00     0.053 C 
HETATM   11  C9  UNK     1      18.983  -0.846  32.584  1.00  0.00     0.038 A 
ENDROOT
BRANCH  10  12
HETATM   12  C10 UNK     1      17.533   5.976  32.675  1.00  0.00    -0.033 A 
HETATM   13  C12 UNK     1      18.398   6.433  33.654  1.00  0.00     0.014 A 
HETATM   14  C14 UNK     1      17.969   7.428  34.532  1.00  0.00     0.037 A 
HETATM   15  C15 UNK     1      16.682   7.952  34.417  1.00  0.00     0.068 A 
HETATM   16  C13 UNK     1      15.822   7.480  33.424  1.00  0.00     0.037 A 
HETATM   17  C11 UNK     1      16.252   6.485  32.547  1.00  0.00     0.014 A 
BRANCH  15  18
HETATM   18  O4  UNK     1      16.262   8.923  35.274  1.00  0.00    -0.356 OA
HETATM   19  C18 UNK     1      15.146   9.713  34.863  1.00  0.00     0.210 C 
ENDBRANCH  15  18
ENDBRANCH  10  12
BRANCH   9  20
HETATM   20  O2  UNK     1      18.537  -1.455  34.856  1.00  0.00    -0.341 OA
BRANCH  20  21
HETATM   21  C16 UNK     1      19.450  -1.319  35.944  1.00  0.00     0.286 C 
BRANCH  21  22
HETATM   22  C17 UNK     1      20.650  -2.191  35.683  1.00  0.00     0.282 C 
HETATM   23  O6  UNK     1      21.763  -1.780  35.384  1.00  0.00    -0.263 OA
BRANCH  22  24
HETATM   24  O5  UNK     1      20.291  -3.499  35.837  1.00  0.00    -0.325 OA
HETATM   25  C19 UNK     1      20.450  -4.030  37.156  1.00  0.00     0.213 C 
ENDBRANCH  22  24
ENDBRANCH  21  22
ENDBRANCH  20  21
ENDBRANCH   9  20
TORSDOF 6
ENDMDL
MODEL 3
REMARK VINA RESULT:      -8.2     22.178     24.925
REMARK  6 active torsions:
REMARK  status: ('A' for Active; 'I' for Inactive)
REMARK    1  A    between atoms: C16_22  and  O2_2 
REMARK    2  A    between atoms: C7_13  and  O2_2 
REMARK    3  A    between atoms: C15_21  and  O4_4 
REMARK    4  A    between atoms: C17_23  and  O5_5 
REMARK    5  A    between atoms: C10_16  and  C8_14 
REMARK    6  A    between atoms: C16_22  and  C17_23 
ROOT
HETATM    1  O1  UNK     1       8.977   5.764   9.967  1.00  0.00    -0.306 OA
HETATM    2  O3  UNK     1       7.478   7.185   7.091  1.00  0.00    -0.284 OA
HETATM    3  C1  UNK     1       9.562   6.215   7.778  1.00  0.00     0.051 A 
HETATM    4  C2  UNK     1       9.962   5.696   9.008  1.00  0.00     0.093 A 
HETATM    5  C3  UNK     1       7.883   6.351   9.343  1.00  0.00     0.127 A 
HETATM    6  C4  UNK     1       8.186   6.671   7.927  1.00  0.00     0.218 A 
HETATM    7  C5  UNK     1      11.227   5.180   9.188  1.00  0.00     0.075 A 
HETATM    8  C6  UNK     1      10.396   6.244   6.680  1.00  0.00     0.021 A 
HETATM    9  C7  UNK     1      12.093   5.197   8.090  1.00  0.00     0.072 A 
HETATM   10  C8  UNK     1       6.714   6.597   9.937  1.00  0.00     0.053 C 
HETATM   11  C9  UNK     1      11.681   5.724   6.848  1.00  0.00     0.038 A 
ENDROOT
BRANCH  10  12
HETATM   12  C10 UNK     1       6.377   6.294  11.341  1.00  0.00    -0.033 A 
HETATM   13  C12 UNK     1       6.175   7.337  12.228  1.00  0.00     0.014 A 
HETATM   14  C14 UNK     1       5.857   7.050  13.556  1.00  0.00     0.037 A 
HETATM   15  C15 UNK     1       5.743   5.726  13.975  1.00  0.00     0.068 A 
HETATM   16  C13 UNK     1       5.950   4.686  13.068  1.00  0.00     0.037 A 
HETATM   17  C11 UNK     1       6.268   4.973  11.741  1.00  0.00     0.014 A 
BRANCH  15  18
HETATM   18  O4  UNK     1       5.433   5.445  15.271  1.00  0.00    -0.356 OA
HETATM   19  C18 UNK     1       5.571   4.089  15.692  1.00  0.00     0.210 C 
ENDBRANCH  15  18
ENDBRANCH  10  12
BRANCH   9  20
HETATM   20  O2  UNK     1      13.354   4.698   8.219  1.00  0.00    -0.341 OA
BRANCH  20  21
HETATM   21  C16 UNK     1      14.403   5.640   8.438  1.00  0.00     0.286 C 
BRANCH  21  22
HETATM   22  C17 UNK     1      15.213   5.198   9.629  1.00  0.00     0.282 C 
HETATM   23  O6  UNK     1      16.001   4.263   9.632  1.00  0.00    -0.263 OA
BRANCH  22  24
HETATM   24  O5  UNK     1      14.921   6.008  10.689  1.00  0.00    -0.325 OA
HETATM   25  C19 UNK     1      14.429   7.308  10.353  1.00  0.00     0.213 C 
ENDBRANCH  22  24
ENDBRANCH  21  22
ENDBRANCH  20  21
ENDBRANCH   9  20
TORSDOF 6
ENDMDL
MODEL 4
REMARK VINA RESULT:      -8.2      4.195      8.182
REMARK  6 active torsions:
REMARK  status: ('A' for Active; 'I' for Inactive)
REMARK    1  A    between atoms: C16_22  and  O2_2 
REMARK    2  A    between atoms: C7_13  and  O2_2 
REMARK    3  A    between atoms: C15_21  and  O4_4 
REMARK    4  A    between atoms: C17_23  and  O5_5 
REMARK    5  A    between atoms: C10_16  and  C8_14 
REMARK    6  A    between atoms: C16_22  and  C17_23 
ROOT
HETATM    1  O1  UNK     1      20.137  -4.843  34.910  1.00  0.00    -0.306 OA
HETATM    2  O3  UNK     1      20.264  -3.180  38.033  1.00  0.00    -0.284 OA
HETATM    3  C1  UNK     1      20.240  -5.409  37.147  1.00  0.00     0.051 A 
HETATM    4  C2  UNK     1      20.184  -5.864  35.832  1.00  0.00     0.093 A 
HETATM    5  C3  UNK     1      20.164  -3.667  35.649  1.00  0.00     0.127 A 
HETATM    6  C4  UNK     1      20.230  -3.953  37.102  1.00  0.00     0.218 A 
HETATM    7  C5  UNK     1      20.180  -7.212  35.541  1.00  0.00     0.075 A 
HETATM    8  C6  UNK     1      20.293  -6.267  38.226  1.00  0.00     0.021 A 
HETATM    9  C7  UNK     1      20.233  -8.103  36.617  1.00  0.00     0.072 A 
HETATM   10  C8  UNK     1      20.133  -2.441  35.124  1.00  0.00     0.053 C 
HETATM   11  C9  UNK     1      20.289  -7.635  37.947  1.00  0.00     0.038 A 
ENDROOT
BRANCH  10  12
HETATM   12  C10 UNK     1      20.067  -2.118  33.686  1.00  0.00    -0.033 A 
HETATM   13  C12 UNK     1      19.078  -1.264  33.229  1.00  0.00     0.014 A 
HETATM   14  C14 UNK     1      19.015  -0.959  31.869  1.00  0.00     0.037 A 
HETATM   15  C15 UNK     1      19.943  -1.511  30.987  1.00  0.00     0.068 A 
HETATM   16  C13 UNK     1      20.935  -2.370  31.464  1.00  0.00     0.037 A 
HETATM   17  C11 UNK     1      20.997  -2.675  32.824  1.00  0.00     0.014 A 
BRANCH  15  18
HETATM   18  O4  UNK     1      19.882  -1.215  29.660  1.00  0.00    -0.356 OA
HETATM   19  C18 UNK     1      20.047   0.154  29.293  1.00  0.00     0.210 C 
ENDBRANCH  15  18
ENDBRANCH  10  12
BRANCH   9  20
HETATM   20  O2  UNK     1      20.230  -9.445  36.381  1.00  0.00    -0.341 OA
BRANCH  20  21
HETATM   21  C16 UNK     1      21.387 -10.175  36.785  1.00  0.00     0.286 C 
BRANCH  21  22
HETATM   22  C17 UNK     1      22.209 -10.499  35.565  1.00  0.00     0.282 C 
HETATM   23  O6  UNK     1      21.782 -10.527  34.419  1.00  0.00    -0.263 OA
BRANCH  22  24
HETATM   24  O5  UNK     1      23.495 -10.752  35.950  1.00  0.00    -0.325 OA
HETATM   25  C19 UNK     1      23.952 -12.089  35.728  1.00  0.00     0.213 C 
ENDBRANCH  22  24
ENDBRANCH  21  22
ENDBRANCH  20  21
ENDBRANCH   9  20
TORSDOF 6
ENDMDL
MODEL 5
REMARK VINA RESULT:      -8.0      2.794      3.988
REMARK  6 active torsions:
REMARK  status: ('A' for Active; 'I' for Inactive)
REMARK    1  A    between atoms: C16_22  and  O2_2 
REMARK    2  A    between atoms: C7_13  and  O2_2 
REMARK    3  A    between atoms: C15_21  and  O4_4 
REMARK    4  A    between atoms: C17_23  and  O5_5 
REMARK    5  A    between atoms: C10_16  and  C8_14 
REMARK    6  A    between atoms: C16_22  and  C17_23 
ROOT
HETATM    1  O1  UNK     1      17.858   3.845  33.082  1.00  0.00    -0.306 OA
HETATM    2  O3  UNK     1      18.918   3.729  29.705  1.00  0.00    -0.284 OA
HETATM    3  C1  UNK     1      18.659   2.270  31.592  1.00  0.00     0.051 A 
HETATM    4  C2  UNK     1      18.207   2.528  32.885  1.00  0.00     0.093 A 
HETATM    5  C3  UNK     1      18.090   4.481  31.868  1.00  0.00     0.127 A 
HETATM    6  C4  UNK     1      18.608   3.528  30.858  1.00  0.00     0.218 A 
HETATM    7  C5  UNK     1      18.137   1.527  33.830  1.00  0.00     0.075 A 
HETATM    8  C6  UNK     1      19.058   1.015  31.183  1.00  0.00     0.021 A 
HETATM    9  C7  UNK     1      18.536   0.244  33.441  1.00  0.00     0.072 A 
HETATM   10  C8  UNK     1      17.876   5.778  31.640  1.00  0.00     0.053 C 
HETATM   11  C9  UNK     1      18.992  -0.009  32.130  1.00  0.00     0.038 A 
ENDROOT
BRANCH  10  12
HETATM   12  C10 UNK     1      17.364   6.755  32.619  1.00  0.00    -0.033 A 
HETATM   13  C12 UNK     1      18.259   7.552  33.312  1.00  0.00     0.014 A 
HETATM   14  C14 UNK     1      17.773   8.476  34.238  1.00  0.00     0.037 A 
HETATM   15  C15 UNK     1      16.401   8.590  34.456  1.00  0.00     0.068 A 
HETATM   16  C13 UNK     1      15.512   7.780  33.748  1.00  0.00     0.037 A 
HETATM   17  C11 UNK     1      15.997   6.856  32.823  1.00  0.00     0.014 A 
BRANCH  15  18
HETATM   18  O4  UNK     1      15.927   9.491  35.360  1.00  0.00    -0.356 OA
HETATM   19  C18 UNK     1      14.687  10.128  35.052  1.00  0.00     0.210 C 
ENDBRANCH  15  18
ENDBRANCH  10  12
BRANCH   9  20
HETATM   20  O2  UNK     1      18.485  -0.779  34.340  1.00  0.00    -0.341 OA
BRANCH  20  21
HETATM   21  C16 UNK     1      18.777  -0.460  35.699  1.00  0.00     0.286 C 
BRANCH  21  22
HETATM   22  C17 UNK     1      17.720  -1.073  36.580  1.00  0.00     0.282 C 
HETATM   23  O6  UNK     1      17.615  -2.267  36.822  1.00  0.00    -0.263 OA
BRANCH  22  24
HETATM   24  O5  UNK     1      16.910  -0.082  37.058  1.00  0.00    -0.325 OA
HETATM   25  C19 UNK     1      17.555   0.901  37.872  1.00  0.00     0.213 C 
ENDBRANCH  22  24
ENDBRANCH  21  22
ENDBRANCH  20  21
ENDBRANCH   9  20
TORSDOF 6
ENDMDL
MODEL 6
REMARK VINA RESULT:      -8.0      2.919      4.978
REMARK  6 active torsions:
REMARK  status: ('A' for Active; 'I' for Inactive)
REMARK    1  A    between atoms: C16_22  and  O2_2 
REMARK    2  A    between atoms: C7_13  and  O2_2 
REMARK    3  A    between atoms: C15_21  and  O4_4 
REMARK    4  A    between atoms: C17_23  and  O5_5 
REMARK    5  A    between atoms: C10_16  and  C8_14 
REMARK    6  A    between atoms: C16_22  and  C17_23 
ROOT
HETATM    1  O1  UNK     1      18.970   0.236  34.627  1.00  0.00    -0.306 OA
HETATM    2  O3  UNK     1      17.425   1.056  37.705  1.00  0.00    -0.284 OA
HETATM    3  C1  UNK     1      18.596  -0.767  36.675  1.00  0.00     0.051 A 
HETATM    4  C2  UNK     1      19.144  -0.890  35.400  1.00  0.00     0.093 A 
HETATM    5  C3  UNK     1      18.279   1.138  35.426  1.00  0.00     0.127 A 
HETATM    6  C4  UNK     1      18.002   0.561  36.763  1.00  0.00     0.218 A 
HETATM    7  C5  UNK     1      19.784  -2.046  35.006  1.00  0.00     0.075 A 
HETATM    8  C6  UNK     1      18.659  -1.779  37.609  1.00  0.00     0.021 A 
HETATM    9  C7  UNK     1      19.862  -3.088  35.936  1.00  0.00     0.072 A 
HETATM   10  C8  UNK     1      17.913   2.362  35.044  1.00  0.00     0.053 C 
HETATM   11  C9  UNK     1      19.304  -2.955  37.224  1.00  0.00     0.038 A 
ENDROOT
BRANCH  10  12
HETATM   12  C10 UNK     1      18.170   2.969  33.724  1.00  0.00    -0.033 A 
HETATM   13  C12 UNK     1      18.179   2.163  32.599  1.00  0.00     0.014 A 
HETATM   14  C14 UNK     1      18.422   2.738  31.351  1.00  0.00     0.037 A 
HETATM   15  C15 UNK     1      18.651   4.109  31.247  1.00  0.00     0.068 A 
HETATM   16  C13 UNK     1      18.638   4.908  32.392  1.00  0.00     0.037 A 
HETATM   17  C11 UNK     1      18.395   4.333  33.639  1.00  0.00     0.014 A 
BRANCH  15  18
HETATM   18  O4  UNK     1      18.889   4.671  30.030  1.00  0.00    -0.356 OA
HETATM   19  C18 UNK     1      19.507   5.957  30.019  1.00  0.00     0.210 C 
ENDBRANCH  15  18
ENDBRANCH  10  12
BRANCH   9  20
HETATM   20  O2  UNK     1      20.485  -4.250  35.593  1.00  0.00    -0.341 OA
BRANCH  20  21
HETATM   21  C16 UNK     1      19.932  -5.458  36.112  1.00  0.00     0.286 C 
BRANCH  21  22
HETATM   22  C17 UNK     1      19.816  -6.460  34.993  1.00  0.00     0.282 C 
HETATM   23  O6  UNK     1      20.670  -6.661  34.141  1.00  0.00    -0.263 OA
BRANCH  22  24
HETATM   24  O5  UNK     1      18.612  -7.098  35.090  1.00  0.00    -0.325 OA
HETATM   25  C19 UNK     1      17.839  -6.779  36.251  1.00  0.00     0.213 C 
ENDBRANCH  22  24
ENDBRANCH  21  22
ENDBRANCH  20  21
ENDBRANCH   9  20
TORSDOF 6
ENDMDL
MODEL 7
REMARK VINA RESULT:      -7.9      3.190      9.801
REMARK  6 active torsions:
REMARK  status: ('A' for Active; 'I' for Inactive)
REMARK    1  A    between atoms: C16_22  and  O2_2 
REMARK    2  A    between atoms: C7_13  and  O2_2 
REMARK    3  A    between atoms: C15_21  and  O4_4 
REMARK    4  A    between atoms: C17_23  and  O5_5 
REMARK    5  A    between atoms: C10_16  and  C8_14 
REMARK    6  A    between atoms: C16_22  and  C17_23 
ROOT
HETATM    1  O1  UNK     1      19.534  -2.666  35.160  1.00  0.00    -0.306 OA
HETATM    2  O3  UNK     1      18.280  -0.829  37.915  1.00  0.00    -0.284 OA
HETATM    3  C1  UNK     1      18.574  -0.600  35.545  1.00  0.00     0.051 A 
HETATM    4  C2  UNK     1      19.112  -1.479  34.607  1.00  0.00     0.093 A 
HETATM    5  C3  UNK     1      19.263  -2.566  36.520  1.00  0.00     0.127 A 
HETATM    6  C4  UNK     1      18.643  -1.259  36.844  1.00  0.00     0.218 A 
HETATM    7  C5  UNK     1      19.187  -1.140  33.273  1.00  0.00     0.075 A 
HETATM    8  C6  UNK     1      18.091   0.645  35.203  1.00  0.00     0.021 A 
HETATM    9  C7  UNK     1      18.704   0.118  32.899  1.00  0.00     0.072 A 
HETATM   10  C8  UNK     1      19.526  -3.517  37.417  1.00  0.00     0.053 C 
HETATM   11  C9  UNK     1      18.161   1.002  33.855  1.00  0.00     0.038 A 
ENDROOT
BRANCH  10  12
HETATM   12  C10 UNK     1      20.142  -4.827  37.132  1.00  0.00    -0.033 A 
HETATM   13  C12 UNK     1      19.712  -5.554  36.036  1.00  0.00     0.014 A 
HETATM   14  C14 UNK     1      20.296  -6.792  35.768  1.00  0.00     0.037 A 
HETATM   15  C15 UNK     1      21.301  -7.285  36.599  1.00  0.00     0.068 A 
HETATM   16  C13 UNK     1      21.723  -6.539  37.701  1.00  0.00     0.037 A 
HETATM   17  C11 UNK     1      21.140  -5.301  37.969  1.00  0.00     0.014 A 
BRANCH  15  18
HETATM   18  O4  UNK     1      21.870  -8.494  36.338  1.00  0.00    -0.356 OA
HETATM   19  C18 UNK     1      21.435  -9.175  35.162  1.00  0.00     0.210 C 
ENDBRANCH  15  18
ENDBRANCH  10  12
BRANCH   9  20
HETATM   20  O2  UNK     1      18.758   0.497  31.591  1.00  0.00    -0.341 OA
BRANCH  20  21
HETATM   21  C16 UNK     1      19.884   0.056  30.835  1.00  0.00     0.286 C 
BRANCH  21  22
HETATM   22  C17 UNK     1      19.680   0.437  29.392  1.00  0.00     0.282 C 
HETATM   23  O6  UNK     1      19.951  -0.275  28.435  1.00  0.00    -0.263 OA
BRANCH  22  24
HETATM   24  O5  UNK     1      19.149   1.693  29.335  1.00  0.00    -0.325 OA
HETATM   25  C19 UNK     1      17.935   1.815  28.588  1.00  0.00     0.213 C 
ENDBRANCH  22  24
ENDBRANCH  21  22
ENDBRANCH  20  21
ENDBRANCH   9  20
TORSDOF 6
ENDMDL
MODEL 8
REMARK VINA RESULT:      -7.9     10.734     13.135
REMARK  6 active torsions:
REMARK  status: ('A' for Active; 'I' for Inactive)
REMARK    1  A    between atoms: C16_22  and  O2_2 
REMARK    2  A    between atoms: C7_13  and  O2_2 
REMARK    3  A    between atoms: C15_21  and  O4_4 
REMARK    4  A    between atoms: C17_23  and  O5_5 
REMARK    5  A    between atoms: C10_16  and  C8_14 
REMARK    6  A    between atoms: C16_22  and  C17_23 
ROOT
HETATM    1  O1  UNK     1      24.388  -8.668  37.090  1.00  0.00    -0.306 OA
HETATM    2  O3  UNK     1      25.276 -11.908  35.971  1.00  0.00    -0.284 OA
HETATM    3  C1  UNK     1      23.341 -10.501  36.150  1.00  0.00     0.051 A 
HETATM    4  C2  UNK     1      23.203  -9.204  36.641  1.00  0.00     0.093 A 
HETATM    5  C3  UNK     1      25.348  -9.652  36.885  1.00  0.00     0.127 A 
HETATM    6  C4  UNK     1      24.746 -10.865  36.281  1.00  0.00     0.218 A 
HETATM    7  C5  UNK     1      21.978  -8.572  36.652  1.00  0.00     0.075 A 
HETATM    8  C6  UNK     1      22.277 -11.222  35.651  1.00  0.00     0.021 A 
HETATM    9  C7  UNK     1      20.882  -9.281  36.152  1.00  0.00     0.072 A 
HETATM   10  C8  UNK     1      26.640  -9.525  37.190  1.00  0.00     0.053 C 
HETATM   11  C9  UNK     1      21.030 -10.594  35.656  1.00  0.00     0.038 A 
ENDROOT
BRANCH  10  12
HETATM   12  C10 UNK     1      27.274  -8.336  37.792  1.00  0.00    -0.033 A 
HETATM   13  C12 UNK     1      27.803  -7.360  36.965  1.00  0.00     0.014 A 
HETATM   14  C14 UNK     1      28.402  -6.236  37.535  1.00  0.00     0.037 A 
HETATM   15  C15 UNK     1      28.461  -6.105  38.922  1.00  0.00     0.068 A 
HETATM   16  C13 UNK     1      27.923  -7.098  39.741  1.00  0.00     0.037 A 
HETATM   17  C11 UNK     1      27.324  -8.222  39.171  1.00  0.00     0.014 A 
BRANCH  15  18
HETATM   18  O4  UNK     1      29.047  -5.008  39.478  1.00  0.00    -0.356 OA
HETATM   19  C18 UNK     1      29.857  -4.202  38.623  1.00  0.00     0.210 C 
ENDBRANCH  15  18
ENDBRANCH  10  12
BRANCH   9  20
HETATM   20  O2  UNK     1      19.650  -8.698  36.142  1.00  0.00    -0.341 OA
BRANCH  20  21
HETATM   21  C16 UNK     1      19.016  -8.505  37.405  1.00  0.00     0.286 C 
BRANCH  21  22
HETATM   22  C17 UNK     1      18.601  -7.062  37.526  1.00  0.00     0.282 C 
HETATM   23  O6  UNK     1      17.522  -6.610  37.168  1.00  0.00    -0.263 OA
BRANCH  22  24
HETATM   24  O5  UNK     1      19.620  -6.353  38.094  1.00  0.00    -0.325 OA
HETATM   25  C19 UNK     1      20.115  -6.872  39.332  1.00  0.00     0.213 C 
ENDBRANCH  22  24
ENDBRANCH  21  22
ENDBRANCH  20  21
ENDBRANCH   9  20
TORSDOF 6
ENDMDL
MODEL 9
REMARK VINA RESULT:      -7.8     22.797     25.186
REMARK  6 active torsions:
REMARK  status: ('A' for Active; 'I' for Inactive)
REMARK    1  A    between atoms: C16_22  and  O2_2 
REMARK    2  A    between atoms: C7_13  and  O2_2 
REMARK    3  A    between atoms: C15_21  and  O4_4 
REMARK    4  A    between atoms: C17_23  and  O5_5 
REMARK    5  A    between atoms: C10_16  and  C8_14 
REMARK    6  A    between atoms: C16_22  and  C17_23 
ROOT
HETATM    1  O1  UNK     1       9.997   5.287   9.250  1.00  0.00    -0.306 OA
HETATM    2  O3  UNK     1       9.041   6.770   6.180  1.00  0.00    -0.284 OA
HETATM    3  C1  UNK     1      11.027   6.104   7.350  1.00  0.00     0.051 A 
HETATM    4  C2  UNK     1      11.190   5.514   8.602  1.00  0.00     0.093 A 
HETATM    5  C3  UNK     1       9.008   5.747   8.390  1.00  0.00     0.127 A 
HETATM    6  C4  UNK     1       9.596   6.288   7.142  1.00  0.00     0.218 A 
HETATM    7  C5  UNK     1      12.443   5.210   9.090  1.00  0.00     0.075 A 
HETATM    8  C6  UNK     1      12.093   6.416   6.533  1.00  0.00     0.021 A 
HETATM    9  C7  UNK     1      13.542   5.516   8.282  1.00  0.00     0.072 A 
HETATM   10  C8  UNK     1       7.700   5.707   8.649  1.00  0.00     0.053 C 
HETATM   11  C9  UNK     1      13.368   6.113   7.016  1.00  0.00     0.038 A 
ENDROOT
BRANCH  10  12
HETATM   12  C10 UNK     1       7.078   5.177   9.878  1.00  0.00    -0.033 A 
HETATM   13  C12 UNK     1       6.674   3.854   9.916  1.00  0.00     0.014 A 
HETATM   14  C14 UNK     1       6.086   3.354  11.078  1.00  0.00     0.037 A 
HETATM   15  C15 UNK     1       5.912   4.184  12.185  1.00  0.00     0.068 A 
HETATM   16  C13 UNK     1       6.325   5.516  12.130  1.00  0.00     0.037 A 
HETATM   17  C11 UNK     1       6.913   6.016  10.968  1.00  0.00     0.014 A 
BRANCH  15  18
HETATM   18  O4  UNK     1       5.337   3.697  13.319  1.00  0.00    -0.356 OA
HETATM   19  C18 UNK     1       4.854   2.355  13.276  1.00  0.00     0.210 C 
ENDBRANCH  15  18
ENDBRANCH  10  12
BRANCH   9  20
HETATM   20  O2  UNK     1      14.800   5.235   8.722  1.00  0.00    -0.341 OA
BRANCH  20  21
HETATM   21  C16 UNK     1      15.015   5.270  10.131  1.00  0.00     0.286 C 
BRANCH  21  22
HETATM   22  C17 UNK     1      15.473   6.652  10.519  1.00  0.00     0.282 C 
HETATM   23  O6  UNK     1      14.887   7.391  11.298  1.00  0.00    -0.263 OA
BRANCH  22  24
HETATM   24  O5  UNK     1      16.636   6.935   9.864  1.00  0.00    -0.325 OA
HETATM   25  C19 UNK     1      17.126   8.270  10.026  1.00  0.00     0.213 C 
ENDBRANCH  22  24
ENDBRANCH  21  22
ENDBRANCH  20  21
ENDBRANCH   9  20
TORSDOF 6
ENDMDL
MODEL 10
REMARK VINA RESULT:      -7.8     10.280     13.128
REMARK  6 active torsions:
REMARK  status: ('A' for Active; 'I' for Inactive)
REMARK    1  A    between atoms: C16_22  and  O2_2 
REMARK    2  A    between atoms: C7_13  and  O2_2 
REMARK    3  A    between atoms: C15_21  and  O4_4 
REMARK    4  A    between atoms: C17_23  and  O5_5 
REMARK    5  A    between atoms: C10_16  and  C8_14 
REMARK    6  A    between atoms: C16_22  and  C17_23 
ROOT
HETATM    1  O1  UNK     1      24.278  -8.459  37.397  1.00  0.00    -0.306 OA
HETATM    2  O3  UNK     1      25.850 -11.415  36.246  1.00  0.00    -0.284 OA
HETATM    3  C1  UNK     1      26.391  -9.393  37.417  1.00  0.00     0.051 A 
HETATM    4  C2  UNK     1      25.591  -8.313  37.783  1.00  0.00     0.093 A 
HETATM    5  C3  UNK     1      24.210  -9.687  36.750  1.00  0.00     0.127 A 
HETATM    6  C4  UNK     1      25.537 -10.348  36.723  1.00  0.00     0.218 A 
HETATM    7  C5  UNK     1      26.115  -7.234  38.463  1.00  0.00     0.075 A 
HETATM    8  C6  UNK     1      27.738  -9.449  37.707  1.00  0.00     0.021 A 
HETATM    9  C7  UNK     1      27.479  -7.266  38.770  1.00  0.00     0.072 A 
HETATM   10  C8  UNK     1      23.101 -10.204  36.221  1.00  0.00     0.053 C 
HETATM   11  C9  UNK     1      28.282  -8.363  38.395  1.00  0.00     0.038 A 
ENDROOT
BRANCH  10  12
HETATM   12  C10 UNK     1      21.765  -9.576  36.227  1.00  0.00    -0.033 A 
HETATM   13  C12 UNK     1      21.478  -8.589  35.301  1.00  0.00     0.014 A 
HETATM   14  C14 UNK     1      20.215  -7.996  35.307  1.00  0.00     0.037 A 
HETATM   15  C15 UNK     1      19.259  -8.399  36.239  1.00  0.00     0.068 A 
HETATM   16  C13 UNK     1      19.566  -9.396  37.166  1.00  0.00     0.037 A 
HETATM   17  C11 UNK     1      20.828  -9.989  37.159  1.00  0.00     0.014 A 
BRANCH  15  18
HETATM   18  O4  UNK     1      18.027  -7.819  36.246  1.00  0.00    -0.356 OA
HETATM   19  C18 UNK     1      17.928  -6.516  36.819  1.00  0.00     0.210 C 
ENDBRANCH  15  18
ENDBRANCH  10  12
BRANCH   9  20
HETATM   20  O2  UNK     1      28.043  -6.222  39.440  1.00  0.00    -0.341 OA
BRANCH  20  21
HETATM   21  C16 UNK     1      28.292  -5.033  38.693  1.00  0.00     0.286 C 
BRANCH  21  22
HETATM   22  C17 UNK     1      29.530  -4.368  39.237  1.00  0.00     0.282 C 
HETATM   23  O6  UNK     1      29.547  -3.572  40.165  1.00  0.00    -0.263 OA
BRANCH  22  24
HETATM   24  O5  UNK     1      30.614  -4.799  38.527  1.00  0.00    -0.325 OA
HETATM   25  C19 UNK     1      30.391  -5.011  37.130  1.00  0.00     0.213 C 
ENDBRANCH  22  24
ENDBRANCH  21  22
ENDBRANCH  20  21
ENDBRANCH   9  20
TORSDOF 6
ENDMDL
