MODEL 1
REMARK VINA RESULT:      -9.7      0.000      0.000
REMARK  2 active torsions:
REMARK  status: ('A' for Active; 'I' for Inactive)
REMARK       I    between atoms: C10_14  and  N1_4 
REMARK    1  A    between atoms: C2_6  and  N1_4 
REMARK    2  A    between atoms: C10_14  and  C4_8 
ROOT
HETATM    1  O2  UNK     1      17.610   3.393  32.899  1.00  0.00    -0.267 OA
HETATM    2  N1  UNK     1      18.594   4.911  31.383  1.00  0.00    -0.322 N 
HETATM    3  C10 UNK     1      18.223   3.664  31.868  1.00  0.00     0.262 C 
HETATM    4  H1  UNK     1      18.928   4.956  30.424  1.00  0.00     0.169 HD
ENDROOT
BRANCH   3   5
HETATM    5  C4  UNK     1      18.659   2.580  30.979  1.00  0.00     0.108 A 
HETATM    6  C14 UNK     1      18.646   2.719  29.506  1.00  0.00     0.304 A 
HETATM    7  O1  UNK     1      19.081   1.621  28.769  1.00  0.00    -0.274 OA
HETATM    8  O3  UNK     1      18.271   3.750  28.955  1.00  0.00    -0.259 OA
HETATM    9  C9  UNK     1      19.513   0.434  29.392  1.00  0.00     0.089 A 
HETATM   10  C16 UNK     1      19.932  -0.612  28.571  1.00  0.00     0.038 A 
HETATM   11  C5  UNK     1      19.517   0.322  30.779  1.00  0.00    -0.001 A 
HETATM   12  C18 UNK     1      20.366  -1.799  29.158  1.00  0.00     0.003 A 
HETATM   13  C17 UNK     1      20.375  -1.928  30.548  1.00  0.00     0.001 A 
HETATM   14  C15 UNK     1      19.953  -0.870  31.359  1.00  0.00     0.014 A 
HETATM   15  C8  UNK     1      19.067   1.454  31.576  1.00  0.00     0.037 A 
ENDBRANCH   3   5
BRANCH   2  16
HETATM   16  C2  UNK     1      18.333   6.142  31.991  1.00  0.00     0.041 A 
HETATM   17  C1  UNK     1      19.287   6.759  32.799  1.00  0.00    -0.029 A 
HETATM   18  C3  UNK     1      19.004   7.988  33.396  1.00  0.00    -0.054 A 
HETATM   19  C11 UNK     1      20.616   6.110  33.025  1.00  0.00     0.051 C 
HETATM   20  C13 UNK     1      20.009   8.673  34.264  1.00  0.00     0.049 C 
HETATM   21  C7  UNK     1      17.768   8.598  33.186  1.00  0.00     0.007 A 
HETATM   22  C12 UNK     1      16.813   7.980  32.378  1.00  0.00     0.003 A 
HETATM   23  C6  UNK     1      17.096   6.752  31.780  1.00  0.00     0.030 A 
ENDBRANCH   2  16
TORSDOF 2
ENDMDL
MODEL 2
REMARK VINA RESULT:      -9.4      1.199      2.120
REMARK  2 active torsions:
REMARK  status: ('A' for Active; 'I' for Inactive)
REMARK       I    between atoms: C10_14  and  N1_4 
REMARK    1  A    between atoms: C2_6  and  N1_4 
REMARK    2  A    between atoms: C10_14  and  C4_8 
ROOT
HETATM    1  O2  UNK     1      18.529   4.604  30.172  1.00  0.00    -0.267 OA
HETATM    2  N1  UNK     1      17.864   4.596  32.436  1.00  0.00    -0.322 N 
HETATM    3  C10 UNK     1      18.346   4.050  31.254  1.00  0.00     0.262 C 
HETATM    4  H1  UNK     1      17.959   4.036  33.280  1.00  0.00     0.169 HD
ENDROOT
BRANCH   3   5
HETATM    5  C4  UNK     1      18.653   2.621  31.397  1.00  0.00     0.108 A 
HETATM    6  C14 UNK     1      18.364   1.876  32.643  1.00  0.00     0.304 A 
HETATM    7  O1  UNK     1      18.701   0.526  32.656  1.00  0.00    -0.274 OA
HETATM    8  O3  UNK     1      17.852   2.417  33.618  1.00  0.00    -0.259 OA
HETATM    9  C9  UNK     1      19.289  -0.104  31.542  1.00  0.00     0.089 A 
HETATM   10  C16 UNK     1      19.591  -1.461  31.650  1.00  0.00     0.038 A 
HETATM   11  C5  UNK     1      19.554   0.614  30.381  1.00  0.00    -0.001 A 
HETATM   12  C18 UNK     1      20.172  -2.112  30.564  1.00  0.00     0.003 A 
HETATM   13  C17 UNK     1      20.446  -1.406  29.391  1.00  0.00     0.001 A 
HETATM   14  C15 UNK     1      20.137  -0.045  29.297  1.00  0.00     0.014 A 
HETATM   15  C8  UNK     1      19.212   2.028  30.336  1.00  0.00     0.037 A 
ENDBRANCH   3   5
BRANCH   2  16
HETATM   16  C2  UNK     1      17.481   5.925  32.634  1.00  0.00     0.041 A 
HETATM   17  C1  UNK     1      18.349   6.841  33.226  1.00  0.00    -0.029 A 
HETATM   18  C3  UNK     1      17.946   8.163  33.414  1.00  0.00    -0.054 A 
HETATM   19  C11 UNK     1      19.716   6.411  33.660  1.00  0.00     0.051 C 
HETATM   20  C13 UNK     1      18.857   9.165  34.045  1.00  0.00     0.049 C 
HETATM   21  C7  UNK     1      16.675   8.569  33.010  1.00  0.00     0.007 A 
HETATM   22  C12 UNK     1      15.806   7.652  32.417  1.00  0.00     0.003 A 
HETATM   23  C6  UNK     1      16.210   6.331  32.229  1.00  0.00     0.030 A 
ENDBRANCH   2  16
TORSDOF 2
ENDMDL
MODEL 3
REMARK VINA RESULT:      -9.3      7.893     11.893
REMARK  2 active torsions:
REMARK  status: ('A' for Active; 'I' for Inactive)
REMARK       I    between atoms: C10_14  and  N1_4 
REMARK    1  A    between atoms: C2_6  and  N1_4 
REMARK    2  A    between atoms: C10_14  and  C4_8 
ROOT
HETATM    1  O2  UNK     1      21.517  -4.443  37.134  1.00  0.00    -0.267 OA
HETATM    2  N1  UNK     1      19.286  -5.184  37.340  1.00  0.00    -0.322 N 
HETATM    3  C10 UNK     1      20.302  -4.294  37.020  1.00  0.00     0.262 C 
HETATM    4  H1  UNK     1      18.353  -4.966  37.001  1.00  0.00     0.169 HD
ENDROOT
BRANCH   3   5
HETATM    5  C4  UNK     1      19.775  -3.034  36.480  1.00  0.00     0.108 A 
HETATM    6  C14 UNK     1      20.012  -2.619  35.080  1.00  0.00     0.304 A 
HETATM    7  O1  UNK     1      19.462  -1.402  34.686  1.00  0.00    -0.274 OA
HETATM    8  O3  UNK     1      20.660  -3.309  34.299  1.00  0.00    -0.259 OA
HETATM    9  C9  UNK     1      18.716  -0.603  35.575  1.00  0.00     0.089 A 
HETATM   10  C16 UNK     1      18.203   0.600  35.089  1.00  0.00     0.038 A 
HETATM   11  C5  UNK     1      18.506  -1.010  36.888  1.00  0.00    -0.001 A 
HETATM   12  C18 UNK     1      17.461   1.411  35.944  1.00  0.00     0.003 A 
HETATM   13  C17 UNK     1      17.241   1.018  37.265  1.00  0.00     0.001 A 
HETATM   14  C15 UNK     1      17.760  -0.191  37.737  1.00  0.00     0.014 A 
HETATM   15  C8  UNK     1      19.068  -2.278  37.329  1.00  0.00     0.037 A 
ENDBRANCH   3   5
BRANCH   2  16
HETATM   16  C2  UNK     1      19.452  -6.465  37.872  1.00  0.00     0.041 A 
HETATM   17  C1  UNK     1      19.089  -7.597  37.143  1.00  0.00    -0.029 A 
HETATM   18  C3  UNK     1      19.263  -8.867  37.694  1.00  0.00    -0.054 A 
HETATM   19  C11 UNK     1      18.517  -7.455  35.767  1.00  0.00     0.051 C 
HETATM   20  C13 UNK     1      18.885 -10.096  36.933  1.00  0.00     0.049 C 
HETATM   21  C7  UNK     1      19.798  -9.004  38.975  1.00  0.00     0.007 A 
HETATM   22  C12 UNK     1      20.160  -7.872  39.705  1.00  0.00     0.003 A 
HETATM   23  C6  UNK     1      19.987  -6.603  39.153  1.00  0.00     0.030 A 
ENDBRANCH   2  16
TORSDOF 2
ENDMDL
MODEL 4
REMARK VINA RESULT:      -8.9     13.605     16.401
REMARK  2 active torsions:
REMARK  status: ('A' for Active; 'I' for Inactive)
REMARK       I    between atoms: C10_14  and  N1_4 
REMARK    1  A    between atoms: C2_6  and  N1_4 
REMARK    2  A    between atoms: C10_14  and  C4_8 
ROOT
HETATM    1  O2  UNK     1      16.907  -1.736  17.002  1.00  0.00    -0.267 OA
HETATM    2  N1  UNK     1      19.089  -0.857  16.820  1.00  0.00    -0.322 N 
HETATM    3  C10 UNK     1      18.017  -1.670  16.479  1.00  0.00     0.262 C 
HETATM    4  H1  UNK     1      19.860  -0.803  16.160  1.00  0.00     0.169 HD
ENDROOT
BRANCH   3   5
HETATM    5  C4  UNK     1      18.331  -2.538  15.336  1.00  0.00     0.108 A 
HETATM    6  C14 UNK     1      19.061  -2.039  14.149  1.00  0.00     0.304 A 
HETATM    7  O1  UNK     1      19.299  -2.956  13.130  1.00  0.00    -0.274 OA
HETATM    8  O3  UNK     1      19.441  -0.875  14.063  1.00  0.00    -0.259 OA
HETATM    9  C9  UNK     1      18.867  -4.294  13.220  1.00  0.00     0.089 A 
HETATM   10  C16 UNK     1      19.151  -5.140  12.148  1.00  0.00     0.038 A 
HETATM   11  C5  UNK     1      18.181  -4.743  14.343  1.00  0.00    -0.001 A 
HETATM   12  C18 UNK     1      18.738  -6.468  12.208  1.00  0.00     0.003 A 
HETATM   13  C17 UNK     1      18.048  -6.936  13.328  1.00  0.00     0.001 A 
HETATM   14  C15 UNK     1      17.770  -6.076  14.395  1.00  0.00     0.014 A 
HETATM   15  C8  UNK     1      17.918  -3.807  15.426  1.00  0.00     0.037 A 
ENDBRANCH   3   5
BRANCH   2  16
HETATM   16  C2  UNK     1      19.115   0.078  17.859  1.00  0.00     0.041 A 
HETATM   17  C1  UNK     1      19.262   1.439  17.594  1.00  0.00    -0.029 A 
HETATM   18  C3  UNK     1      19.286   2.355  18.645  1.00  0.00    -0.054 A 
HETATM   19  C11 UNK     1      19.391   1.923  16.183  1.00  0.00     0.051 C 
HETATM   20  C13 UNK     1      19.439   3.819  18.390  1.00  0.00     0.049 C 
HETATM   21  C7  UNK     1      19.164   1.910  19.962  1.00  0.00     0.007 A 
HETATM   22  C12 UNK     1      19.017   0.548  20.226  1.00  0.00     0.003 A 
HETATM   23  C6  UNK     1      18.992  -0.367  19.174  1.00  0.00     0.030 A 
ENDBRANCH   2  16
TORSDOF 2
ENDMDL
MODEL 5
REMARK VINA RESULT:      -8.9      8.052     10.044
REMARK  2 active torsions:
REMARK  status: ('A' for Active; 'I' for Inactive)
REMARK       I    between atoms: C10_14  and  N1_4 
REMARK    1  A    between atoms: C2_6  and  N1_4 
REMARK    2  A    between atoms: C10_14  and  C4_8 
ROOT
HETATM    1  O2  UNK     1      20.913  -3.123  37.729  1.00  0.00    -0.267 OA
HETATM    2  N1  UNK     1      18.819  -3.224  36.647  1.00  0.00    -0.322 N 
HETATM    3  C10 UNK     1      19.989  -3.732  37.195  1.00  0.00     0.262 C 
HETATM    4  H1  UNK     1      18.084  -3.890  36.421  1.00  0.00     0.169 HD
ENDROOT
BRANCH   3   5
HETATM    5  C4  UNK     1      20.056  -5.195  37.080  1.00  0.00     0.108 A 
HETATM    6  C14 UNK     1      20.188  -5.875  35.772  1.00  0.00     0.304 A 
HETATM    7  O1  UNK     1      20.241  -7.265  35.792  1.00  0.00    -0.274 OA
HETATM    8  O3  UNK     1      20.248  -5.248  34.718  1.00  0.00    -0.259 OA
HETATM    9  C9  UNK     1      20.172  -7.993  36.996  1.00  0.00     0.089 A 
HETATM   10  C16 UNK     1      20.234  -9.384  36.917  1.00  0.00     0.038 A 
HETATM   11  C5  UNK     1      20.048  -7.335  38.215  1.00  0.00    -0.001 A 
HETATM   12  C18 UNK     1      20.170 -10.131  38.090  1.00  0.00     0.003 A 
HETATM   13  C17 UNK     1      20.044  -9.487  39.323  1.00  0.00     0.001 A 
HETATM   14  C15 UNK     1      19.984  -8.092  39.387  1.00  0.00     0.014 A 
HETATM   15  C8  UNK     1      19.990  -5.881  38.226  1.00  0.00     0.037 A 
ENDBRANCH   3   5
BRANCH   2  16
HETATM   16  C2  UNK     1      18.450  -1.877  36.596  1.00  0.00     0.041 A 
HETATM   17  C1  UNK     1      18.619  -1.132  35.430  1.00  0.00    -0.029 A 
HETATM   18  C3  UNK     1      18.245   0.212  35.401  1.00  0.00    -0.054 A 
HETATM   19  C11 UNK     1      19.197  -1.769  34.205  1.00  0.00     0.051 C 
HETATM   20  C13 UNK     1      18.413   1.032  34.164  1.00  0.00     0.049 C 
HETATM   21  C7  UNK     1      17.704   0.810  36.538  1.00  0.00     0.007 A 
HETATM   22  C12 UNK     1      17.535   0.064  37.705  1.00  0.00     0.003 A 
HETATM   23  C6  UNK     1      17.909  -1.279  37.734  1.00  0.00     0.030 A 
ENDBRANCH   2  16
TORSDOF 2
ENDMDL
MODEL 6
REMARK VINA RESULT:      -8.7      3.761      7.248
REMARK  2 active torsions:
REMARK  status: ('A' for Active; 'I' for Inactive)
REMARK       I    between atoms: C10_14  and  N1_4 
REMARK    1  A    between atoms: C2_6  and  N1_4 
REMARK    2  A    between atoms: C10_14  and  C4_8 
ROOT
HETATM    1  O2  UNK     1      16.536   0.909  34.195  1.00  0.00    -0.267 OA
HETATM    2  N1  UNK     1      18.830   0.540  34.604  1.00  0.00    -0.322 N 
HETATM    3  C10 UNK     1      17.729   1.099  33.970  1.00  0.00     0.262 C 
HETATM    4  H1  UNK     1      19.738   0.956  34.413  1.00  0.00     0.169 HD
ENDROOT
BRANCH   3   5
HETATM    5  C4  UNK     1      18.126   2.025  32.902  1.00  0.00     0.108 A 
HETATM    6  C14 UNK     1      18.661   1.549  31.607  1.00  0.00     0.304 A 
HETATM    7  O1  UNK     1      19.003   2.524  30.674  1.00  0.00    -0.274 OA
HETATM    8  O3  UNK     1      18.799   0.355  31.362  1.00  0.00    -0.259 OA
HETATM    9  C9  UNK     1      18.848   3.898  30.946  1.00  0.00     0.089 A 
HETATM   10  C16 UNK     1      19.217   4.800  29.949  1.00  0.00     0.038 A 
HETATM   11  C5  UNK     1      18.344   4.325  32.170  1.00  0.00    -0.001 A 
HETATM   12  C18 UNK     1      19.074   6.165  30.188  1.00  0.00     0.003 A 
HETATM   13  C17 UNK     1      18.571   6.612  31.411  1.00  0.00     0.001 A 
HETATM   14  C15 UNK     1      18.204   5.695  32.401  1.00  0.00     0.014 A 
HETATM   15  C8  UNK     1      17.977   3.329  33.165  1.00  0.00     0.037 A 
ENDBRANCH   3   5
BRANCH   2  16
HETATM   16  C2  UNK     1      18.795  -0.378  35.658  1.00  0.00     0.041 A 
HETATM   17  C1  UNK     1      19.338  -1.654  35.515  1.00  0.00    -0.029 A 
HETATM   18  C3  UNK     1      19.292  -2.554  36.580  1.00  0.00    -0.054 A 
HETATM   19  C11 UNK     1      19.973  -2.063  34.223  1.00  0.00     0.051 C 
HETATM   20  C13 UNK     1      19.868  -3.927  36.455  1.00  0.00     0.049 C 
HETATM   21  C7  UNK     1      18.703  -2.178  37.787  1.00  0.00     0.007 A 
HETATM   22  C12 UNK     1      18.160  -0.900  37.929  1.00  0.00     0.003 A 
HETATM   23  C6  UNK     1      18.207  -0.001  36.865  1.00  0.00     0.030 A 
ENDBRANCH   2  16
TORSDOF 2
ENDMDL
MODEL 7
REMARK VINA RESULT:      -8.6     13.972     16.831
REMARK  2 active torsions:
REMARK  status: ('A' for Active; 'I' for Inactive)
REMARK       I    between atoms: C10_14  and  N1_4 
REMARK    1  A    between atoms: C2_6  and  N1_4 
REMARK    2  A    between atoms: C10_14  and  C4_8 
ROOT
HETATM    1  O2  UNK     1      17.062  -1.973  16.871  1.00  0.00    -0.267 OA
HETATM    2  N1  UNK     1      19.110  -0.834  16.591  1.00  0.00    -0.322 N 
HETATM    3  C10 UNK     1      18.111  -1.744  16.273  1.00  0.00     0.262 C 
HETATM    4  H1  UNK     1      19.813  -0.648  15.880  1.00  0.00     0.169 HD
ENDROOT
BRANCH   3   5
HETATM    5  C4  UNK     1      18.424  -2.494  15.049  1.00  0.00     0.108 A 
HETATM    6  C14 UNK     1      18.014  -3.904  14.865  1.00  0.00     0.304 A 
HETATM    7  O1  UNK     1      18.369  -4.507  13.662  1.00  0.00    -0.274 OA
HETATM    8  O3  UNK     1      17.391  -4.516  15.726  1.00  0.00    -0.259 OA
HETATM    9  C9  UNK     1      19.085  -3.812  12.666  1.00  0.00     0.089 A 
HETATM   10  C16 UNK     1      19.395  -4.500  11.494  1.00  0.00     0.038 A 
HETATM   11  C5  UNK     1      19.462  -2.488  12.859  1.00  0.00    -0.001 A 
HETATM   12  C18 UNK     1      20.101  -3.840  10.491  1.00  0.00     0.003 A 
HETATM   13  C17 UNK     1      20.488  -2.510  10.668  1.00  0.00     0.001 A 
HETATM   14  C15 UNK     1      20.169  -1.833  11.849  1.00  0.00     0.014 A 
HETATM   15  C8  UNK     1      19.104  -1.830  14.107  1.00  0.00     0.037 A 
ENDBRANCH   3   5
BRANCH   2  16
HETATM   16  C2  UNK     1      19.118   0.029  17.690  1.00  0.00     0.041 A 
HETATM   17  C1  UNK     1      19.255   1.406  17.518  1.00  0.00    -0.029 A 
HETATM   18  C3  UNK     1      19.260   2.249  18.630  1.00  0.00    -0.054 A 
HETATM   19  C11 UNK     1      19.394   1.984  16.145  1.00  0.00     0.051 C 
HETATM   20  C13 UNK     1      19.404   3.728  18.474  1.00  0.00     0.049 C 
HETATM   21  C7  UNK     1      19.129   1.716  19.912  1.00  0.00     0.007 A 
HETATM   22  C12 UNK     1      18.992   0.338  20.083  1.00  0.00     0.003 A 
HETATM   23  C6  UNK     1      18.986  -0.505  18.971  1.00  0.00     0.030 A 
ENDBRANCH   2  16
TORSDOF 2
ENDMDL
MODEL 8
REMARK VINA RESULT:      -8.5     13.870     18.208
REMARK  2 active torsions:
REMARK  status: ('A' for Active; 'I' for Inactive)
REMARK       I    between atoms: C10_14  and  N1_4 
REMARK    1  A    between atoms: C2_6  and  N1_4 
REMARK    2  A    between atoms: C10_14  and  C4_8 
ROOT
HETATM    1  O2  UNK     1      17.879  -3.087  15.879  1.00  0.00    -0.267 OA
HETATM    2  N1  UNK     1      20.114  -2.949  15.137  1.00  0.00    -0.322 N 
HETATM    3  C10 UNK     1      18.931  -2.480  15.692  1.00  0.00     0.262 C 
HETATM    4  H1  UNK     1      20.939  -2.362  15.236  1.00  0.00     0.169 HD
ENDROOT
BRANCH   3   5
HETATM    5  C4  UNK     1      19.031  -1.066  16.078  1.00  0.00     0.108 A 
HETATM    6  C14 UNK     1      19.279   0.003  15.086  1.00  0.00     0.304 A 
HETATM    7  O1  UNK     1      19.354   1.304  15.574  1.00  0.00    -0.274 OA
HETATM    8  O3  UNK     1      19.413  -0.239  13.891  1.00  0.00    -0.259 OA
HETATM    9  C9  UNK     1      19.201   1.593  16.945  1.00  0.00     0.089 A 
HETATM   10  C16 UNK     1      19.291   2.927  17.339  1.00  0.00     0.038 A 
HETATM   11  C5  UNK     1      18.969   0.573  17.861  1.00  0.00    -0.001 A 
HETATM   12  C18 UNK     1      19.143   3.244  18.688  1.00  0.00     0.003 A 
HETATM   13  C17 UNK     1      18.910   2.232  19.622  1.00  0.00     0.001 A 
HETATM   14  C15 UNK     1      18.822   0.899  19.211  1.00  0.00     0.014 A 
HETATM   15  C8  UNK     1      18.886  -0.798  17.381  1.00  0.00     0.037 A 
ENDBRANCH   3   5
BRANCH   2  16
HETATM   16  C2  UNK     1      20.348  -4.245  14.669  1.00  0.00     0.041 A 
HETATM   17  C1  UNK     1      20.031  -4.601  13.359  1.00  0.00    -0.029 A 
HETATM   18  C3  UNK     1      20.272  -5.901  12.913  1.00  0.00    -0.054 A 
HETATM   19  C11 UNK     1      19.436  -3.593  12.427  1.00  0.00     0.051 C 
HETATM   20  C13 UNK     1      19.944  -6.309  11.513  1.00  0.00     0.049 C 
HETATM   21  C7  UNK     1      20.828  -6.843  13.777  1.00  0.00     0.007 A 
HETATM   22  C12 UNK     1      21.145  -6.486  15.088  1.00  0.00     0.003 A 
HETATM   23  C6  UNK     1      20.905  -5.187  15.534  1.00  0.00     0.030 A 
ENDBRANCH   2  16
TORSDOF 2
ENDMDL
MODEL 9
REMARK VINA RESULT:      -8.4     14.357     15.883
REMARK  2 active torsions:
REMARK  status: ('A' for Active; 'I' for Inactive)
REMARK       I    between atoms: C10_14  and  N1_4 
REMARK    1  A    between atoms: C2_6  and  N1_4 
REMARK    2  A    between atoms: C10_14  and  C4_8 
ROOT
HETATM    1  O2  UNK     1      25.822  -9.080  39.442  1.00  0.00    -0.267 OA
HETATM    2  N1  UNK     1      24.580  -7.719  37.967  1.00  0.00    -0.322 N 
HETATM    3  C10 UNK     1      25.670  -8.077  38.748  1.00  0.00     0.262 C 
HETATM    4  H1  UNK     1      24.707  -6.950  37.315  1.00  0.00     0.169 HD
ENDROOT
BRANCH   3   5
HETATM    5  C4  UNK     1      26.741  -7.073  38.685  1.00  0.00     0.108 A 
HETATM    6  C14 UNK     1      26.462  -5.622  38.771  1.00  0.00     0.304 A 
HETATM    7  O1  UNK     1      27.560  -4.769  38.698  1.00  0.00    -0.274 OA
HETATM    8  O3  UNK     1      25.323  -5.187  38.901  1.00  0.00    -0.259 OA
HETATM    9  C9  UNK     1      28.872  -5.259  38.549  1.00  0.00     0.089 A 
HETATM   10  C16 UNK     1      29.908  -4.328  38.486  1.00  0.00     0.038 A 
HETATM   11  C5  UNK     1      29.112  -6.627  38.469  1.00  0.00    -0.001 A 
HETATM   12  C18 UNK     1      31.217  -4.782  38.340  1.00  0.00     0.003 A 
HETATM   13  C17 UNK     1      31.476  -6.151  38.258  1.00  0.00     0.001 A 
HETATM   14  C15 UNK     1      30.427  -7.074  38.323  1.00  0.00     0.014 A 
HETATM   15  C8  UNK     1      27.985  -7.544  38.543  1.00  0.00     0.037 A 
ENDBRANCH   3   5
BRANCH   2  16
HETATM   16  C2  UNK     1      23.402  -8.456  37.812  1.00  0.00     0.041 A 
HETATM   17  C1  UNK     1      22.334  -8.293  38.692  1.00  0.00    -0.029 A 
HETATM   18  C3  UNK     1      21.167  -9.038  38.518  1.00  0.00    -0.054 A 
HETATM   19  C11 UNK     1      22.431  -7.317  39.823  1.00  0.00     0.051 C 
HETATM   20  C13 UNK     1      20.006  -8.882  39.446  1.00  0.00     0.049 C 
HETATM   21  C7  UNK     1      21.070  -9.947  37.465  1.00  0.00     0.007 A 
HETATM   22  C12 UNK     1      22.140 -10.110  36.584  1.00  0.00     0.003 A 
HETATM   23  C6  UNK     1      23.306  -9.364  36.758  1.00  0.00     0.030 A 
ENDBRANCH   2  16
TORSDOF 2
ENDMDL
MODEL 10
REMARK VINA RESULT:      -8.4      7.795      9.717
REMARK  2 active torsions:
REMARK  status: ('A' for Active; 'I' for Inactive)
REMARK       I    between atoms: C10_14  and  N1_4 
REMARK    1  A    between atoms: C2_6  and  N1_4 
REMARK    2  A    between atoms: C10_14  and  C4_8 
ROOT
HETATM    1  O2  UNK     1      21.260  -2.868  36.279  1.00  0.00    -0.267 OA
HETATM    2  N1  UNK     1      18.920  -2.959  35.991  1.00  0.00    -0.322 N 
HETATM    3  C10 UNK     1      20.188  -3.466  36.242  1.00  0.00     0.262 C 
HETATM    4  H1  UNK     1      18.129  -3.565  36.189  1.00  0.00     0.169 HD
ENDROOT
BRANCH   3   5
HETATM    5  C4  UNK     1      20.158  -4.915  36.485  1.00  0.00     0.108 A 
HETATM    6  C14 UNK     1      20.195  -5.897  35.379  1.00  0.00     0.304 A 
HETATM    7  O1  UNK     1      20.161  -7.242  35.736  1.00  0.00    -0.274 OA
HETATM    8  O3  UNK     1      20.253  -5.549  34.204  1.00  0.00    -0.259 OA
HETATM    9  C9  UNK     1      20.095  -7.652  37.082  1.00  0.00     0.089 A 
HETATM   10  C16 UNK     1      20.066  -9.021  37.342  1.00  0.00     0.038 A 
HETATM   11  C5  UNK     1      20.060  -6.712  38.107  1.00  0.00    -0.001 A 
HETATM   12  C18 UNK     1      20.001  -9.457  38.663  1.00  0.00     0.003 A 
HETATM   13  C17 UNK     1      19.964  -8.527  39.704  1.00  0.00     0.001 A 
HETATM   14  C15 UNK     1      19.995  -7.157  39.429  1.00  0.00     0.014 A 
HETATM   15  C8  UNK     1      20.094  -5.298  37.765  1.00  0.00     0.037 A 
ENDBRANCH   3   5
BRANCH   2  16
HETATM   16  C2  UNK     1      18.606  -1.624  35.722  1.00  0.00     0.041 A 
HETATM   17  C1  UNK     1      18.213  -0.761  36.744  1.00  0.00    -0.029 A 
HETATM   18  C3  UNK     1      17.904   0.568  36.453  1.00  0.00    -0.054 A 
HETATM   19  C11 UNK     1      18.124  -1.254  38.154  1.00  0.00     0.051 C 
HETATM   20  C13 UNK     1      17.482   1.515  37.529  1.00  0.00     0.049 C 
HETATM   21  C7  UNK     1      17.987   1.033  35.141  1.00  0.00     0.007 A 
HETATM   22  C12 UNK     1      18.381   0.169  34.119  1.00  0.00     0.003 A 
HETATM   23  C6  UNK     1      18.691  -1.159  34.410  1.00  0.00     0.030 A 
ENDBRANCH   2  16
TORSDOF 2
ENDMDL
