MODEL 1
REMARK VINA RESULT:      -8.2      0.000      0.000
REMARK  3 active torsions:
REMARK  status: ('A' for Active; 'I' for Inactive)
REMARK    1  A    between atoms: C6_12  and  N1_5 
REMARK    2  A    between atoms: C8_14  and  N2_6 
REMARK    3  A    between atoms: C1_7  and  C5_11 
ROOT
HETATM    1  O1  UNK     1      20.358  -8.740  38.195  1.00  0.00    -0.273 OA
HETATM    2  O2  UNK     1      18.418  -9.364  37.170  1.00  0.00    -0.257 OA
HETATM    3  C6  UNK     1      20.006  -6.116  37.095  1.00  0.00     0.083 A 
HETATM    4  C7  UNK     1      21.183  -6.445  37.940  1.00  0.00     0.027 A 
HETATM    5  C8  UNK     1      19.141  -7.122  36.886  1.00  0.00     0.205 A 
HETATM    6  C11 UNK     1      21.314  -7.739  38.458  1.00  0.00     0.092 A 
HETATM    7  C12 UNK     1      22.200  -5.531  38.265  1.00  0.00     0.017 A 
HETATM    8  C13 UNK     1      19.247  -8.493  37.407  1.00  0.00     0.324 A 
HETATM    9  C17 UNK     1      22.391  -8.126  39.262  1.00  0.00     0.038 A 
HETATM   10  C18 UNK     1      23.285  -5.905  39.068  1.00  0.00     0.001 A 
HETATM   11  C19 UNK     1      23.380  -7.200  39.566  1.00  0.00     0.003 A 
ENDROOT
BRANCH   3  12
HETATM   12  N1  UNK     1      19.900  -4.851  36.611  1.00  0.00    -0.377 N 
HETATM   13  C3  UNK     1      20.220  -4.466  35.240  1.00  0.00     0.132 C 
HETATM   14  C1  UNK     1      20.246  -2.924  35.269  1.00  0.00     0.038 C 
HETATM   15  C2  UNK     1      19.199  -2.627  36.350  1.00  0.00     0.030 C 
HETATM   16  C4  UNK     1      19.456  -3.707  37.395  1.00  0.00     0.124 C 
BRANCH  14  17
HETATM   17  C5  UNK     1      20.043  -2.269  33.920  1.00  0.00    -0.052 A 
HETATM   18  C10 UNK     1      19.014  -1.340  33.738  1.00  0.00     0.007 A 
HETATM   19  C15 UNK     1      18.827  -0.735  32.496  1.00  0.00     0.001 A 
HETATM   20  C16 UNK     1      19.670  -1.056  31.430  1.00  0.00     0.000 A 
HETATM   21  C14 UNK     1      20.697  -1.982  31.608  1.00  0.00     0.001 A 
HETATM   22  C9  UNK     1      20.884  -2.587  32.850  1.00  0.00     0.007 A 
ENDBRANCH  14  17
ENDBRANCH   3  12
BRANCH   5  23
HETATM   23  N2  UNK     1      17.997  -6.846  36.076  1.00  0.00    -0.107 N 
HETATM   24  O3  UNK     1      18.057  -7.179  34.888  1.00  0.00    -0.531 OA
HETATM   25  O4  UNK     1      17.038  -6.294  36.628  1.00  0.00    -0.531 OA
ENDBRANCH   5  23
TORSDOF 3
ENDMDL
MODEL 2
REMARK VINA RESULT:      -8.2     29.480     31.759
REMARK  3 active torsions:
REMARK  status: ('A' for Active; 'I' for Inactive)
REMARK    1  A    between atoms: C6_12  and  N1_5 
REMARK    2  A    between atoms: C8_14  and  N2_6 
REMARK    3  A    between atoms: C1_7  and  C5_11 
ROOT
HETATM    1  O1  UNK     1      17.992   9.452   9.382  1.00  0.00    -0.273 OA
HETATM    2  O2  UNK     1      18.176   7.439  10.439  1.00  0.00    -0.257 OA
HETATM    3  C6  UNK     1      15.156   9.045   9.264  1.00  0.00     0.083 A 
HETATM    4  C7  UNK     1      15.783  10.267   8.696  1.00  0.00     0.027 A 
HETATM    5  C8  UNK     1      16.002   8.162   9.820  1.00  0.00     0.205 A 
HETATM    6  C11 UNK     1      17.171  10.425   8.778  1.00  0.00     0.092 A 
HETATM    7  C12 UNK     1      15.067  11.300   8.067  1.00  0.00     0.017 A 
HETATM    8  C13 UNK     1      17.464   8.291   9.919  1.00  0.00     0.324 A 
HETATM    9  C17 UNK     1      17.836  11.545   8.269  1.00  0.00     0.038 A 
HETATM   10  C18 UNK     1      15.719  12.428   7.552  1.00  0.00     0.001 A 
HETATM   11  C19 UNK     1      17.101  12.551   7.653  1.00  0.00     0.003 A 
ENDROOT
BRANCH   3  12
HETATM   12  N1  UNK     1      13.807   8.920   9.178  1.00  0.00    -0.377 N 
HETATM   13  C3  UNK     1      13.115   8.169   8.135  1.00  0.00     0.132 C 
HETATM   14  C1  UNK     1      11.636   8.580   8.281  1.00  0.00     0.038 C 
HETATM   15  C2  UNK     1      11.542   8.835   9.791  1.00  0.00     0.030 C 
HETATM   16  C4  UNK     1      12.866   9.521  10.113  1.00  0.00     0.124 C 
BRANCH  14  17
HETATM   17  C5  UNK     1      10.651   7.594   7.691  1.00  0.00    -0.052 A 
HETATM   18  C10 UNK     1       9.508   7.228   8.408  1.00  0.00     0.007 A 
HETATM   19  C15 UNK     1       8.600   6.320   7.865  1.00  0.00     0.001 A 
HETATM   20  C16 UNK     1       8.830   5.774   6.601  1.00  0.00     0.000 A 
HETATM   21  C14 UNK     1       9.970   6.136   5.883  1.00  0.00     0.001 A 
HETATM   22  C9  UNK     1      10.878   7.044   6.426  1.00  0.00     0.007 A 
ENDBRANCH  14  17
ENDBRANCH   3  12
BRANCH   5  23
HETATM   23  N2  UNK     1      15.438   6.973  10.376  1.00  0.00    -0.107 N 
HETATM   24  O3  UNK     1      15.053   7.030  11.549  1.00  0.00    -0.531 OA
HETATM   25  O4  UNK     1      15.381   5.981   9.640  1.00  0.00    -0.531 OA
ENDBRANCH   5  23
TORSDOF 3
ENDMDL
MODEL 3
REMARK VINA RESULT:      -8.0     12.836     14.551
REMARK  3 active torsions:
REMARK  status: ('A' for Active; 'I' for Inactive)
REMARK    1  A    between atoms: C6_12  and  N1_5 
REMARK    2  A    between atoms: C8_14  and  N2_6 
REMARK    3  A    between atoms: C1_7  and  C5_11 
ROOT
HETATM    1  O1  UNK     1      27.749  -8.607  29.959  1.00  0.00    -0.273 OA
HETATM    2  O2  UNK     1      28.130 -10.231  28.403  1.00  0.00    -0.257 OA
HETATM    3  C6  UNK     1      30.579  -8.163  30.076  1.00  0.00     0.083 A 
HETATM    4  C7  UNK     1      29.641  -7.378  30.920  1.00  0.00     0.027 A 
HETATM    5  C8  UNK     1      30.013  -9.080  29.275  1.00  0.00     0.205 A 
HETATM    6  C11 UNK     1      28.267  -7.627  30.829  1.00  0.00     0.092 A 
HETATM    7  C12 UNK     1      30.042  -6.381  31.826  1.00  0.00     0.017 A 
HETATM    8  C13 UNK     1      28.576  -9.373  29.156  1.00  0.00     0.324 A 
HETATM    9  C17 UNK     1      27.321  -6.931  31.588  1.00  0.00     0.038 A 
HETATM   10  C18 UNK     1      29.106  -5.676  32.594  1.00  0.00     0.001 A 
HETATM   11  C19 UNK     1      27.747  -5.950  32.475  1.00  0.00     0.003 A 
ENDROOT
BRANCH   3  12
HETATM   12  N1  UNK     1      31.907  -7.896  30.179  1.00  0.00    -0.377 N 
HETATM   13  C3  UNK     1      32.802  -8.537  31.138  1.00  0.00     0.132 C 
HETATM   14  C1  UNK     1      34.094  -7.695  31.081  1.00  0.00     0.038 C 
HETATM   15  C2  UNK     1      34.088  -7.236  29.616  1.00  0.00     0.030 C 
HETATM   16  C4  UNK     1      32.618  -6.934  29.349  1.00  0.00     0.124 C 
BRANCH  14  17
HETATM   17  C5  UNK     1      35.332  -8.415  31.568  1.00  0.00    -0.052 A 
HETATM   18  C10 UNK     1      35.925  -9.406  30.779  1.00  0.00     0.007 A 
HETATM   19  C15 UNK     1      37.067 -10.070  31.228  1.00  0.00     0.001 A 
HETATM   20  C16 UNK     1      37.622  -9.744  32.466  1.00  0.00     0.000 A 
HETATM   21  C14 UNK     1      37.033  -8.756  33.256  1.00  0.00     0.001 A 
HETATM   22  C9  UNK     1      35.891  -8.093  32.808  1.00  0.00     0.007 A 
ENDBRANCH  14  17
ENDBRANCH   3  12
BRANCH   5  23
HETATM   23  N2  UNK     1      30.882  -9.856  28.449  1.00  0.00    -0.107 N 
HETATM   24  O3  UNK     1      31.142  -9.405  27.328  1.00  0.00    -0.531 OA
HETATM   25  O4  UNK     1      31.304 -10.919  28.920  1.00  0.00    -0.531 OA
ENDBRANCH   5  23
TORSDOF 3
ENDMDL
MODEL 4
REMARK VINA RESULT:      -8.0      9.445     12.603
REMARK  3 active torsions:
REMARK  status: ('A' for Active; 'I' for Inactive)
REMARK    1  A    between atoms: C6_12  and  N1_5 
REMARK    2  A    between atoms: C8_14  and  N2_6 
REMARK    3  A    between atoms: C1_7  and  C5_11 
ROOT
HETATM    1  O1  UNK     1      18.419   2.323  31.018  1.00  0.00    -0.273 OA
HETATM    2  O2  UNK     1      18.648   3.272  28.956  1.00  0.00    -0.257 OA
HETATM    3  C6  UNK     1      18.622   4.945  32.162  1.00  0.00     0.083 A 
HETATM    4  C7  UNK     1      18.452   3.742  33.019  1.00  0.00     0.027 A 
HETATM    5  C8  UNK     1      18.677   4.714  30.840  1.00  0.00     0.205 A 
HETATM    6  C11 UNK     1      18.356   2.482  32.417  1.00  0.00     0.092 A 
HETATM    7  C12 UNK     1      18.382   3.777  34.421  1.00  0.00     0.017 A 
HETATM    8  C13 UNK     1      18.585   3.406  30.172  1.00  0.00     0.324 A 
HETATM    9  C17 UNK     1      18.195   1.303  33.152  1.00  0.00     0.038 A 
HETATM   10  C18 UNK     1      18.221   2.604  35.172  1.00  0.00     0.001 A 
HETATM   11  C19 UNK     1      18.127   1.369  34.538  1.00  0.00     0.003 A 
ENDROOT
BRANCH   3  12
HETATM   12  N1  UNK     1      18.705   6.155  32.771  1.00  0.00    -0.377 N 
HETATM   13  C3  UNK     1      17.616   7.127  32.822  1.00  0.00     0.132 C 
HETATM   14  C1  UNK     1      18.281   8.424  33.324  1.00  0.00     0.038 C 
HETATM   15  C2  UNK     1      19.388   7.865  34.228  1.00  0.00     0.030 C 
HETATM   16  C4  UNK     1      19.892   6.651  33.455  1.00  0.00     0.124 C 
BRANCH  14  17
HETATM   17  C5  UNK     1      17.325   9.417  33.948  1.00  0.00    -0.052 A 
HETATM   18  C10 UNK     1      17.676  10.767  34.043  1.00  0.00     0.007 A 
HETATM   19  C15 UNK     1      16.795  11.683  34.618  1.00  0.00     0.001 A 
HETATM   20  C16 UNK     1      15.557  11.252  35.099  1.00  0.00     0.000 A 
HETATM   21  C14 UNK     1      15.204   9.906  35.007  1.00  0.00     0.001 A 
HETATM   22  C9  UNK     1      16.085   8.990  34.432  1.00  0.00     0.007 A 
ENDBRANCH  14  17
ENDBRANCH   3  12
BRANCH   5  23
HETATM   23  N2  UNK     1      18.841   5.846  29.983  1.00  0.00    -0.107 N 
HETATM   24  O3  UNK     1      17.811   6.403  29.587  1.00  0.00    -0.531 OA
HETATM   25  O4  UNK     1      19.999   6.177  29.705  1.00  0.00    -0.531 OA
ENDBRANCH   5  23
TORSDOF 3
ENDMDL
MODEL 5
REMARK VINA RESULT:      -7.9      9.011     10.768
REMARK  3 active torsions:
REMARK  status: ('A' for Active; 'I' for Inactive)
REMARK    1  A    between atoms: C6_12  and  N1_5 
REMARK    2  A    between atoms: C8_14  and  N2_6 
REMARK    3  A    between atoms: C1_7  and  C5_11 
ROOT
HETATM    1  O1  UNK     1      29.652  -4.720  38.210  1.00  0.00    -0.273 OA
HETATM    2  O2  UNK     1      27.926  -5.738  39.300  1.00  0.00    -0.257 OA
HETATM    3  C6  UNK     1      29.570  -6.829  36.269  1.00  0.00     0.083 A 
HETATM    4  C7  UNK     1      30.560  -5.725  36.165  1.00  0.00     0.027 A 
HETATM    5  C8  UNK     1      28.738  -6.767  37.322  1.00  0.00     0.205 A 
HETATM    6  C11 UNK     1      30.563  -4.715  37.134  1.00  0.00     0.092 A 
HETATM    7  C12 UNK     1      31.517  -5.619  35.142  1.00  0.00     0.017 A 
HETATM    8  C13 UNK     1      28.715  -5.727  38.362  1.00  0.00     0.324 A 
HETATM    9  C17 UNK     1      31.461  -3.644  37.107  1.00  0.00     0.038 A 
HETATM   10  C18 UNK     1      32.423  -4.551  35.101  1.00  0.00     0.001 A 
HETATM   11  C19 UNK     1      32.395  -3.565  36.082  1.00  0.00     0.003 A 
ENDROOT
BRANCH   3  12
HETATM   12  N1  UNK     1      29.584  -7.792  35.311  1.00  0.00    -0.377 N 
HETATM   13  C3  UNK     1      28.924  -7.671  34.015  1.00  0.00     0.132 C 
HETATM   14  C1  UNK     1      28.956  -9.099  33.432  1.00  0.00     0.038 C 
HETATM   15  C2  UNK     1      30.262  -9.638  34.030  1.00  0.00     0.030 C 
HETATM   16  C4  UNK     1      30.257  -9.076  35.448  1.00  0.00     0.124 C 
BRANCH  14  17
HETATM   17  C5  UNK     1      28.814  -9.164  31.927  1.00  0.00    -0.052 A 
HETATM   18  C10 UNK     1      29.671  -9.973  31.175  1.00  0.00     0.007 A 
HETATM   19  C15 UNK     1      29.540 -10.033  29.787  1.00  0.00     0.001 A 
HETATM   20  C16 UNK     1      28.551  -9.286  29.147  1.00  0.00     0.000 A 
HETATM   21  C14 UNK     1      27.694  -8.478  29.894  1.00  0.00     0.001 A 
HETATM   22  C9  UNK     1      27.824  -8.417  31.281  1.00  0.00     0.007 A 
ENDBRANCH  14  17
ENDBRANCH   3  12
BRANCH   5  23
HETATM   23  N2  UNK     1      27.772  -7.811  37.457  1.00  0.00    -0.107 N 
HETATM   24  O3  UNK     1      26.690  -7.653  36.882  1.00  0.00    -0.531 OA
HETATM   25  O4  UNK     1      28.095  -8.790  38.141  1.00  0.00    -0.531 OA
ENDBRANCH   5  23
TORSDOF 3
ENDMDL
MODEL 6
REMARK VINA RESULT:      -7.8      9.969     13.833
REMARK  3 active torsions:
REMARK  status: ('A' for Active; 'I' for Inactive)
REMARK    1  A    between atoms: C6_12  and  N1_5 
REMARK    2  A    between atoms: C8_14  and  N2_6 
REMARK    3  A    between atoms: C1_7  and  C5_11 
ROOT
HETATM    1  O1  UNK     1      16.573  10.472  33.569  1.00  0.00    -0.273 OA
HETATM    2  O2  UNK     1      14.440   9.990  32.921  1.00  0.00    -0.257 OA
HETATM    3  C6  UNK     1      17.239   7.713  33.159  1.00  0.00     0.083 A 
HETATM    4  C7  UNK     1      18.255   8.688  33.635  1.00  0.00     0.027 A 
HETATM    5  C8  UNK     1      16.010   8.212  32.945  1.00  0.00     0.205 A 
HETATM    6  C11 UNK     1      17.886  10.026  33.819  1.00  0.00     0.092 A 
HETATM    7  C12 UNK     1      19.590   8.358  33.922  1.00  0.00     0.017 A 
HETATM    8  C13 UNK     1      15.584   9.607  33.133  1.00  0.00     0.324 A 
HETATM    9  C17 UNK     1      18.782  11.003  34.263  1.00  0.00     0.038 A 
HETATM   10  C18 UNK     1      20.500   9.326  34.368  1.00  0.00     0.001 A 
HETATM   11  C19 UNK     1      20.097  10.646  34.538  1.00  0.00     0.003 A 
ENDROOT
BRANCH   3  12
HETATM   12  N1  UNK     1      17.625   6.424  32.982  1.00  0.00    -0.377 N 
HETATM   13  C3  UNK     1      17.801   5.462  34.066  1.00  0.00     0.132 C 
HETATM   14  C1  UNK     1      18.532   4.272  33.410  1.00  0.00     0.038 C 
HETATM   15  C2  UNK     1      17.977   4.330  31.981  1.00  0.00     0.030 C 
HETATM   16  C4  UNK     1      17.919   5.825  31.687  1.00  0.00     0.124 C 
BRANCH  14  17
HETATM   17  C5  UNK     1      18.382   2.960  34.150  1.00  0.00    -0.052 A 
HETATM   18  C10 UNK     1      17.962   1.814  33.469  1.00  0.00     0.007 A 
HETATM   19  C15 UNK     1      17.824   0.605  34.151  1.00  0.00     0.001 A 
HETATM   20  C16 UNK     1      18.108   0.537  35.516  1.00  0.00     0.000 A 
HETATM   21  C14 UNK     1      18.528   1.679  36.198  1.00  0.00     0.001 A 
HETATM   22  C9  UNK     1      18.665   2.888  35.517  1.00  0.00     0.007 A 
ENDBRANCH  14  17
ENDBRANCH   3  12
BRANCH   5  23
HETATM   23  N2  UNK     1      15.005   7.305  32.489  1.00  0.00    -0.107 N 
HETATM   24  O3  UNK     1      14.911   7.141  31.267  1.00  0.00    -0.531 OA
HETATM   25  O4  UNK     1      14.308   6.758  33.351  1.00  0.00    -0.531 OA
ENDBRANCH   5  23
TORSDOF 3
ENDMDL
MODEL 7
REMARK VINA RESULT:      -7.8      6.164      9.195
REMARK  3 active torsions:
REMARK  status: ('A' for Active; 'I' for Inactive)
REMARK    1  A    between atoms: C6_12  and  N1_5 
REMARK    2  A    between atoms: C8_14  and  N2_6 
REMARK    3  A    between atoms: C1_7  and  C5_11 
ROOT
HETATM    1  O1  UNK     1      19.170  -1.737  32.928  1.00  0.00    -0.273 OA
HETATM    2  O2  UNK     1      18.164  -1.614  34.972  1.00  0.00    -0.257 OA
HETATM    3  C6  UNK     1      18.621   1.055  32.576  1.00  0.00     0.083 A 
HETATM    4  C7  UNK     1      19.314   0.268  31.523  1.00  0.00     0.027 A 
HETATM    5  C8  UNK     1      18.275   0.372  33.680  1.00  0.00     0.205 A 
HETATM    6  C11 UNK     1      19.563  -1.093  31.738  1.00  0.00     0.092 A 
HETATM    7  C12 UNK     1      19.746   0.801  30.297  1.00  0.00     0.017 A 
HETATM    8  C13 UNK     1      18.514  -1.056  33.939  1.00  0.00     0.324 A 
HETATM    9  C17 UNK     1      20.210  -1.901  30.798  1.00  0.00     0.038 A 
HETATM   10  C18 UNK     1      20.395   0.003  29.345  1.00  0.00     0.001 A 
HETATM   11  C19 UNK     1      20.626  -1.346  29.595  1.00  0.00     0.003 A 
ENDROOT
BRANCH   3  12
HETATM   12  N1  UNK     1      18.399   2.375  32.344  1.00  0.00    -0.377 N 
HETATM   13  C3  UNK     1      18.561   3.424  33.346  1.00  0.00     0.132 C 
HETATM   14  C1  UNK     1      17.903   4.667  32.712  1.00  0.00     0.038 C 
HETATM   15  C2  UNK     1      18.177   4.424  31.222  1.00  0.00     0.030 C 
HETATM   16  C4  UNK     1      17.966   2.922  31.066  1.00  0.00     0.124 C 
BRANCH  14  17
HETATM   17  C5  UNK     1      18.370   5.986  33.289  1.00  0.00    -0.052 A 
HETATM   18  C10 UNK     1      17.492   6.776  34.035  1.00  0.00     0.007 A 
HETATM   19  C15 UNK     1      17.922   7.992  34.567  1.00  0.00     0.001 A 
HETATM   20  C16 UNK     1      19.233   8.421  34.355  1.00  0.00     0.000 A 
HETATM   21  C14 UNK     1      20.112   7.635  33.610  1.00  0.00     0.001 A 
HETATM   22  C9  UNK     1      19.682   6.419  33.078  1.00  0.00     0.007 A 
ENDBRANCH  14  17
ENDBRANCH   3  12
BRANCH   5  23
HETATM   23  N2  UNK     1      17.605   1.094  34.714  1.00  0.00    -0.107 N 
HETATM   24  O3  UNK     1      16.376   1.188  34.628  1.00  0.00    -0.531 OA
HETATM   25  O4  UNK     1      18.308   1.570  35.614  1.00  0.00    -0.531 OA
ENDBRANCH   5  23
TORSDOF 3
ENDMDL
MODEL 8
REMARK VINA RESULT:      -7.8      9.689     12.108
REMARK  3 active torsions:
REMARK  status: ('A' for Active; 'I' for Inactive)
REMARK    1  A    between atoms: C6_12  and  N1_5 
REMARK    2  A    between atoms: C8_14  and  N2_6 
REMARK    3  A    between atoms: C1_7  and  C5_11 
ROOT
HETATM    1  O1  UNK     1      28.341  -5.803  39.624  1.00  0.00    -0.273 OA
HETATM    2  O2  UNK     1      29.514  -3.853  39.785  1.00  0.00    -0.257 OA
HETATM    3  C6  UNK     1      30.380  -6.794  37.869  1.00  0.00     0.083 A 
HETATM    4  C7  UNK     1      29.198  -7.623  38.222  1.00  0.00     0.027 A 
HETATM    5  C8  UNK     1      30.417  -5.570  38.420  1.00  0.00     0.205 A 
HETATM    6  C11 UNK     1      28.228  -7.099  39.084  1.00  0.00     0.092 A 
HETATM    7  C12 UNK     1      28.976  -8.925  37.741  1.00  0.00     0.017 A 
HETATM    8  C13 UNK     1      29.415  -4.983  39.324  1.00  0.00     0.324 A 
HETATM    9  C17 UNK     1      27.088  -7.815  39.464  1.00  0.00     0.038 A 
HETATM   10  C18 UNK     1      27.839  -9.654  38.113  1.00  0.00     0.001 A 
HETATM   11  C19 UNK     1      26.896  -9.100  38.973  1.00  0.00     0.003 A 
ENDROOT
BRANCH   3  12
HETATM   12  N1  UNK     1      31.310  -7.330  37.036  1.00  0.00    -0.377 N 
HETATM   13  C3  UNK     1      31.264  -7.230  35.581  1.00  0.00     0.132 C 
HETATM   14  C1  UNK     1      32.327  -8.235  35.092  1.00  0.00     0.038 C 
HETATM   15  C2  UNK     1      33.349  -8.171  36.235  1.00  0.00     0.030 C 
HETATM   16  C4  UNK     1      32.477  -8.078  37.482  1.00  0.00     0.124 C 
BRANCH  14  17
HETATM   17  C5  UNK     1      32.844  -7.971  33.695  1.00  0.00    -0.052 A 
HETATM   18  C10 UNK     1      34.208  -7.753  33.480  1.00  0.00     0.007 A 
HETATM   19  C15 UNK     1      34.685  -7.510  32.192  1.00  0.00     0.001 A 
HETATM   20  C16 UNK     1      33.800  -7.485  31.114  1.00  0.00     0.000 A 
HETATM   21  C14 UNK     1      32.438  -7.701  31.324  1.00  0.00     0.001 A 
HETATM   22  C9  UNK     1      31.961  -7.944  32.612  1.00  0.00     0.007 A 
ENDBRANCH  14  17
ENDBRANCH   3  12
BRANCH   5  23
HETATM   23  N2  UNK     1      31.537  -4.742  38.103  1.00  0.00    -0.107 N 
HETATM   24  O3  UNK     1      32.522  -4.823  38.846  1.00  0.00    -0.531 OA
HETATM   25  O4  UNK     1      31.433  -4.010  37.112  1.00  0.00    -0.531 OA
ENDBRANCH   5  23
TORSDOF 3
ENDMDL
MODEL 9
REMARK VINA RESULT:      -7.7      3.397      7.519
REMARK  3 active torsions:
REMARK  status: ('A' for Active; 'I' for Inactive)
REMARK    1  A    between atoms: C6_12  and  N1_5 
REMARK    2  A    between atoms: C8_14  and  N2_6 
REMARK    3  A    between atoms: C1_7  and  C5_11 
ROOT
HETATM    1  O1  UNK     1      18.342   0.095  32.636  1.00  0.00    -0.273 OA
HETATM    2  O2  UNK     1      17.138   1.239  34.200  1.00  0.00    -0.257 OA
HETATM    3  C6  UNK     1      19.269  -1.634  34.726  1.00  0.00     0.083 A 
HETATM    4  C7  UNK     1      19.710  -1.822  33.319  1.00  0.00     0.027 A 
HETATM    5  C8  UNK     1      18.425  -0.612  34.940  1.00  0.00     0.205 A 
HETATM    6  C11 UNK     1      19.230  -0.955  32.330  1.00  0.00     0.092 A 
HETATM    7  C12 UNK     1      20.595  -2.829  32.898  1.00  0.00     0.017 A 
HETATM    8  C13 UNK     1      17.905   0.323  33.929  1.00  0.00     0.324 A 
HETATM    9  C17 UNK     1      19.597  -1.066  30.985  1.00  0.00     0.038 A 
HETATM   10  C18 UNK     1      20.971  -2.952  31.554  1.00  0.00     0.001 A 
HETATM   11  C19 UNK     1      20.473  -2.072  30.599  1.00  0.00     0.003 A 
ENDROOT
BRANCH   3  12
HETATM   12  N1  UNK     1      19.743  -2.494  35.664  1.00  0.00    -0.377 N 
HETATM   13  C3  UNK     1      19.060  -3.716  36.079  1.00  0.00     0.132 C 
HETATM   14  C1  UNK     1      19.811  -4.164  37.350  1.00  0.00     0.038 C 
HETATM   15  C2  UNK     1      21.232  -3.666  37.050  1.00  0.00     0.030 C 
HETATM   16  C4  UNK     1      20.996  -2.315  36.383  1.00  0.00     0.124 C 
BRANCH  14  17
HETATM   17  C5  UNK     1      19.657  -5.632  37.684  1.00  0.00    -0.052 A 
HETATM   18  C10 UNK     1      20.276  -6.162  38.820  1.00  0.00     0.007 A 
HETATM   19  C15 UNK     1      20.134  -7.515  39.129  1.00  0.00     0.001 A 
HETATM   20  C16 UNK     1      19.370  -8.342  38.303  1.00  0.00     0.000 A 
HETATM   21  C14 UNK     1      18.751  -7.816  37.169  1.00  0.00     0.001 A 
HETATM   22  C9  UNK     1      18.894  -6.464  36.860  1.00  0.00     0.007 A 
ENDBRANCH  14  17
ENDBRANCH   3  12
BRANCH   5  23
HETATM   23  N2  UNK     1      17.980  -0.398  36.280  1.00  0.00    -0.107 N 
HETATM   24  O3  UNK     1      16.982  -1.028  36.647  1.00  0.00    -0.531 OA
HETATM   25  O4  UNK     1      18.626   0.402  36.966  1.00  0.00    -0.531 OA
ENDBRANCH   5  23
TORSDOF 3
ENDMDL
MODEL 10
REMARK VINA RESULT:      -7.7     12.014     14.310
REMARK  3 active torsions:
REMARK  status: ('A' for Active; 'I' for Inactive)
REMARK    1  A    between atoms: C6_12  and  N1_5 
REMARK    2  A    between atoms: C8_14  and  N2_6 
REMARK    3  A    between atoms: C1_7  and  C5_11 
ROOT
HETATM    1  O1  UNK     1      29.897  -8.201  28.617  1.00  0.00    -0.273 OA
HETATM    2  O2  UNK     1      31.692  -9.019  27.470  1.00  0.00    -0.257 OA
HETATM    3  C6  UNK     1      31.315  -8.719  31.054  1.00  0.00     0.083 A 
HETATM    4  C7  UNK     1      29.946  -8.140  31.068  1.00  0.00     0.027 A 
HETATM    5  C8  UNK     1      31.824  -8.981  29.839  1.00  0.00     0.205 A 
HETATM    6  C11 UNK     1      29.292  -7.901  29.854  1.00  0.00     0.092 A 
HETATM    7  C12 UNK     1      29.243  -7.806  32.238  1.00  0.00     0.017 A 
HETATM    8  C13 UNK     1      31.165  -8.750  28.544  1.00  0.00     0.324 A 
HETATM    9  C17 UNK     1      28.005  -7.359  29.782  1.00  0.00     0.038 A 
HETATM   10  C18 UNK     1      27.953  -7.262  32.182  1.00  0.00     0.001 A 
HETATM   11  C19 UNK     1      27.335  -7.038  30.956  1.00  0.00     0.003 A 
ENDROOT
BRANCH   3  12
HETATM   12  N1  UNK     1      31.930  -8.933  32.246  1.00  0.00    -0.377 N 
HETATM   13  C3  UNK     1      32.630  -7.902  33.006  1.00  0.00     0.132 C 
HETATM   14  C1  UNK     1      33.404  -8.681  34.089  1.00  0.00     0.038 C 
HETATM   15  C2  UNK     1      32.468  -9.874  34.328  1.00  0.00     0.030 C 
HETATM   16  C4  UNK     1      31.976 -10.220  32.927  1.00  0.00     0.124 C 
BRANCH  14  17
HETATM   17  C5  UNK     1      33.787  -7.858  35.300  1.00  0.00    -0.052 A 
HETATM   18  C10 UNK     1      34.750  -6.850  35.188  1.00  0.00     0.007 A 
HETATM   19  C15 UNK     1      35.103  -6.091  36.304  1.00  0.00     0.001 A 
HETATM   20  C16 UNK     1      34.494  -6.336  37.535  1.00  0.00     0.000 A 
HETATM   21  C14 UNK     1      33.533  -7.342  37.651  1.00  0.00     0.001 A 
HETATM   22  C9  UNK     1      33.180  -8.101  36.535  1.00  0.00     0.007 A 
ENDBRANCH  14  17
ENDBRANCH   3  12
BRANCH   5  23
HETATM   23  N2  UNK     1      33.137  -9.540  29.784  1.00  0.00    -0.107 N 
HETATM   24  O3  UNK     1      34.085  -8.748  29.799  1.00  0.00    -0.531 OA
HETATM   25  O4  UNK     1      33.221 -10.772  29.725  1.00  0.00    -0.531 OA
ENDBRANCH   5  23
TORSDOF 3
ENDMDL
