MODEL 1
REMARK VINA RESULT:      -7.5      0.000      0.000
REMARK  7 active torsions:
REMARK  status: ('A' for Active; 'I' for Inactive)
REMARK    1  A    between atoms: C11_18  and  O3_3 
REMARK    2  A    between atoms: C18_25  and  O3_3 
REMARK    3  A    between atoms: C20_27  and  O6_6 
REMARK    4  A    between atoms: C23_30  and  O6_6 
REMARK    5  A    between atoms: C1_8  and  C10_17 
REMARK    6  A    between atoms: C11_18  and  C6_13 
REMARK    7  A    between atoms: C18_25  and  C20_27 
ROOT
HETATM    1  O1  UNK     1      30.171  -9.238  34.028  1.00  0.00    -0.293 OA
HETATM    2  N1  UNK     1      31.357  -4.656  34.252  1.00  0.00    -0.362 N 
HETATM    3  C1  UNK     1      31.016  -7.061  35.722  1.00  0.00     0.104 C 
HETATM    4  C2  UNK     1      30.692  -6.931  34.237  1.00  0.00     0.024 C 
HETATM    5  C3  UNK     1      30.850  -5.757  33.588  1.00  0.00     0.020 C 
HETATM    6  C4  UNK     1      30.499  -5.560  32.137  1.00  0.00     0.058 C 
HETATM    7  C5  UNK     1      29.517  -6.612  31.635  1.00  0.00     0.014 C 
HETATM    8  C6  UNK     1      31.702  -5.816  36.287  1.00  0.00     0.052 C 
HETATM    9  C7  UNK     1      29.995  -8.009  31.990  1.00  0.00     0.084 C 
HETATM   10  C8  UNK     1      30.255  -8.142  33.474  1.00  0.00     0.158 C 
HETATM   11  C9  UNK     1      31.821  -4.681  35.558  1.00  0.00     0.018 C 
HETATM   12  C12 UNK     1      32.431  -3.392  36.038  1.00  0.00     0.069 C 
HETATM   13  H8  UNK     1      31.463  -3.795  33.729  1.00  0.00     0.165 HD
ENDROOT
BRANCH   3  14
HETATM   14  C10 UNK     1      29.766  -7.366  36.502  1.00  0.00     0.029 A 
HETATM   15  C13 UNK     1      29.787  -8.501  37.460  1.00  0.00     0.194 A 
HETATM   16  O5  UNK     1      30.784  -9.189  37.632  1.00  0.00    -0.287 OA
HETATM   17  C15 UNK     1      28.536  -8.757  38.197  1.00  0.00     0.048 A 
HETATM   18  C16 UNK     1      27.429  -7.941  37.960  1.00  0.00     0.089 A 
HETATM   19  C17 UNK     1      28.455  -9.803  39.120  1.00  0.00     0.018 A 
HETATM   20  O2  UNK     1      27.454  -6.900  37.065  1.00  0.00    -0.321 OA
HETATM   21  C19 UNK     1      26.236  -8.165  38.646  1.00  0.00     0.038 A 
HETATM   22  C14 UNK     1      28.626  -6.674  36.386  1.00  0.00     0.154 A 
HETATM   23  C22 UNK     1      26.152  -9.208  39.569  1.00  0.00     0.003 A 
HETATM   24  C21 UNK     1      27.259 -10.024  39.805  1.00  0.00     0.001 A 
ENDBRANCH   3  14
BRANCH   8  25
HETATM   25  C11 UNK     1      32.268  -5.936  37.641  1.00  0.00     0.292 C 
HETATM   26  O4  UNK     1      31.804  -5.366  38.611  1.00  0.00    -0.259 OA
BRANCH  25  27
HETATM   27  O3  UNK     1      33.344  -6.757  37.584  1.00  0.00    -0.316 OA
BRANCH  27  28
HETATM   28  C18 UNK     1      34.603  -6.096  37.424  1.00  0.00     0.205 C 
BRANCH  28  29
HETATM   29  C20 UNK     1      35.166  -6.428  36.055  1.00  0.00     0.195 C 
BRANCH  29  30
HETATM   30  O6  UNK     1      34.614  -7.661  35.613  1.00  0.00    -0.385 OA
BRANCH  30  31
HETATM   31  C23 UNK     1      34.759  -7.823  34.209  1.00  0.00     0.113 C 
HETATM   32  C24 UNK     1      34.430  -6.508  33.517  1.00  0.00     0.039 C 
HETATM   33  C25 UNK     1      33.855  -8.952  33.739  1.00  0.00     0.039 C 
ENDBRANCH  30  31
ENDBRANCH  29  30
ENDBRANCH  28  29
ENDBRANCH  27  28
ENDBRANCH  25  27
ENDBRANCH   8  25
TORSDOF 7
ENDMDL
MODEL 2
REMARK VINA RESULT:      -7.5      1.819      5.015
REMARK  7 active torsions:
REMARK  status: ('A' for Active; 'I' for Inactive)
REMARK    1  A    between atoms: C11_18  and  O3_3 
REMARK    2  A    between atoms: C18_25  and  O3_3 
REMARK    3  A    between atoms: C20_27  and  O6_6 
REMARK    4  A    between atoms: C23_30  and  O6_6 
REMARK    5  A    between atoms: C1_8  and  C10_17 
REMARK    6  A    between atoms: C11_18  and  C6_13 
REMARK    7  A    between atoms: C18_25  and  C20_27 
ROOT
HETATM    1  O1  UNK     1      30.313  -4.830  36.621  1.00  0.00    -0.293 OA
HETATM    2  N1  UNK     1      32.504  -7.520  33.394  1.00  0.00    -0.362 N 
HETATM    3  C1  UNK     1      30.084  -7.061  34.805  1.00  0.00     0.104 C 
HETATM    4  C2  UNK     1      31.367  -6.276  35.061  1.00  0.00     0.024 C 
HETATM    5  C3  UNK     1      32.500  -6.551  34.378  1.00  0.00     0.020 C 
HETATM    6  C4  UNK     1      33.806  -5.842  34.624  1.00  0.00     0.058 C 
HETATM    7  C5  UNK     1      33.853  -5.185  35.998  1.00  0.00     0.014 C 
HETATM    8  C6  UNK     1      30.193  -7.994  33.598  1.00  0.00     0.052 C 
HETATM    9  C7  UNK     1      32.616  -4.338  36.235  1.00  0.00     0.084 C 
HETATM   10  C8  UNK     1      31.350  -5.143  36.038  1.00  0.00     0.158 C 
HETATM   11  C9  UNK     1      31.374  -8.203  32.970  1.00  0.00     0.018 C 
HETATM   12  C12 UNK     1      31.595  -9.136  31.810  1.00  0.00     0.069 C 
HETATM   13  H8  UNK     1      33.373  -7.694  32.903  1.00  0.00     0.165 HD
ENDROOT
BRANCH   3  14
HETATM   14  C10 UNK     1      29.699  -7.841  36.033  1.00  0.00     0.029 A 
HETATM   15  C13 UNK     1      28.328  -7.671  36.581  1.00  0.00     0.194 A 
HETATM   16  O5  UNK     1      27.510  -6.921  36.065  1.00  0.00    -0.287 OA
HETATM   17  C15 UNK     1      28.004  -8.457  37.785  1.00  0.00     0.048 A 
HETATM   18  C16 UNK     1      28.977  -9.296  38.330  1.00  0.00     0.089 A 
HETATM   19  C17 UNK     1      26.741  -8.366  38.376  1.00  0.00     0.018 A 
HETATM   20  O2  UNK     1      30.232  -9.424  37.791  1.00  0.00    -0.321 OA
HETATM   21  C19 UNK     1      28.691 -10.049  39.469  1.00  0.00     0.038 A 
HETATM   22  C14 UNK     1      30.520  -8.685  36.669  1.00  0.00     0.154 A 
HETATM   23  C22 UNK     1      27.430  -9.960  40.061  1.00  0.00     0.003 A 
HETATM   24  C21 UNK     1      26.458  -9.121  39.515  1.00  0.00     0.001 A 
ENDBRANCH   3  14
BRANCH   8  25
HETATM   25  C11 UNK     1      28.940  -8.609  33.128  1.00  0.00     0.292 C 
HETATM   26  O4  UNK     1      28.659  -9.778  33.316  1.00  0.00    -0.259 OA
BRANCH  25  27
HETATM   27  O3  UNK     1      28.215  -7.663  32.484  1.00  0.00    -0.316 OA
BRANCH  27  28
HETATM   28  C18 UNK     1      27.798  -8.016  31.162  1.00  0.00     0.205 C 
BRANCH  28  29
HETATM   29  C20 UNK     1      28.588  -7.197  30.159  1.00  0.00     0.195 C 
BRANCH  29  30
HETATM   30  O6  UNK     1      28.428  -5.816  30.458  1.00  0.00    -0.385 OA
BRANCH  30  31
HETATM   31  C23 UNK     1      29.680  -5.146  30.512  1.00  0.00     0.113 C 
HETATM   32  C24 UNK     1      30.768  -6.078  29.998  1.00  0.00     0.039 C 
HETATM   33  C25 UNK     1      29.946  -4.698  31.940  1.00  0.00     0.039 C 
ENDBRANCH  30  31
ENDBRANCH  29  30
ENDBRANCH  28  29
ENDBRANCH  27  28
ENDBRANCH  25  27
ENDBRANCH   8  25
TORSDOF 7
ENDMDL
MODEL 3
REMARK VINA RESULT:      -7.4      2.940      5.269
REMARK  7 active torsions:
REMARK  status: ('A' for Active; 'I' for Inactive)
REMARK    1  A    between atoms: C11_18  and  O3_3 
REMARK    2  A    between atoms: C18_25  and  O3_3 
REMARK    3  A    between atoms: C20_27  and  O6_6 
REMARK    4  A    between atoms: C23_30  and  O6_6 
REMARK    5  A    between atoms: C1_8  and  C10_17 
REMARK    6  A    between atoms: C11_18  and  C6_13 
REMARK    7  A    between atoms: C18_25  and  C20_27 
ROOT
HETATM    1  O1  UNK     1      32.254  -9.456  34.833  1.00  0.00    -0.293 OA
HETATM    2  N1  UNK     1      28.957 -10.069  31.486  1.00  0.00    -0.362 N 
HETATM    3  C1  UNK     1      30.001  -8.303  33.448  1.00  0.00     0.104 C 
HETATM    4  C2  UNK     1      30.519  -9.722  33.235  1.00  0.00     0.024 C 
HETATM    5  C3  UNK     1      29.971 -10.532  32.303  1.00  0.00     0.020 C 
HETATM    6  C4  UNK     1      30.409 -11.956  32.083  1.00  0.00     0.058 C 
HETATM    7  C5  UNK     1      31.133 -12.528  33.296  1.00  0.00     0.014 C 
HETATM    8  C6  UNK     1      28.986  -7.879  32.385  1.00  0.00     0.052 C 
HETATM    9  C7  UNK     1      32.232 -11.589  33.761  1.00  0.00     0.084 C 
HETATM   10  C8  UNK     1      31.694 -10.200  34.028  1.00  0.00     0.158 C 
HETATM   11  C9  UNK     1      28.495  -8.762  31.484  1.00  0.00     0.018 C 
HETATM   12  C12 UNK     1      27.461  -8.457  30.435  1.00  0.00     0.069 C 
HETATM   13  H8  UNK     1      28.574 -10.707  30.798  1.00  0.00     0.165 HD
ENDROOT
BRANCH   3  14
HETATM   14  C10 UNK     1      29.402  -8.170  34.822  1.00  0.00     0.029 A 
HETATM   15  C13 UNK     1      29.826  -7.027  35.673  1.00  0.00     0.194 A 
HETATM   16  O5  UNK     1      30.640  -6.198  35.290  1.00  0.00    -0.287 OA
HETATM   17  C15 UNK     1      29.209  -6.945  37.010  1.00  0.00     0.048 A 
HETATM   18  C16 UNK     1      28.287  -7.919  37.393  1.00  0.00     0.089 A 
HETATM   19  C17 UNK     1      29.543  -5.907  37.885  1.00  0.00     0.018 A 
HETATM   20  O2  UNK     1      27.923  -8.959  36.574  1.00  0.00    -0.321 OA
HETATM   21  C19 UNK     1      27.692  -7.859  38.653  1.00  0.00     0.038 A 
HETATM   22  C14 UNK     1      28.505  -9.023  35.332  1.00  0.00     0.154 A 
HETATM   23  C22 UNK     1      28.023  -6.824  39.529  1.00  0.00     0.003 A 
HETATM   24  C21 UNK     1      28.945  -5.851  39.144  1.00  0.00     0.001 A 
ENDBRANCH   3  14
BRANCH   8  25
HETATM   25  C11 UNK     1      28.613  -6.455  32.365  1.00  0.00     0.292 C 
HETATM   26  O4  UNK     1      27.506  -6.050  32.668  1.00  0.00    -0.259 OA
BRANCH  25  27
HETATM   27  O3  UNK     1      29.689  -5.737  31.963  1.00  0.00    -0.316 OA
BRANCH  27  28
HETATM   28  C18 UNK     1      29.698  -5.384  30.576  1.00  0.00     0.205 C 
BRANCH  28  29
HETATM   29  C20 UNK     1      30.840  -6.109  29.889  1.00  0.00     0.195 C 
BRANCH  29  30
HETATM   30  O6  UNK     1      30.305  -7.039  28.956  1.00  0.00    -0.385 OA
BRANCH  30  31
HETATM   31  C23 UNK     1      31.204  -8.115  28.720  1.00  0.00     0.113 C 
HETATM   32  C24 UNK     1      30.419  -9.323  28.230  1.00  0.00     0.039 C 
HETATM   33  C25 UNK     1      31.969  -8.417  29.999  1.00  0.00     0.039 C 
ENDBRANCH  30  31
ENDBRANCH  29  30
ENDBRANCH  28  29
ENDBRANCH  27  28
ENDBRANCH  25  27
ENDBRANCH   8  25
TORSDOF 7
ENDMDL
MODEL 4
REMARK VINA RESULT:      -7.3      1.790      5.823
REMARK  7 active torsions:
REMARK  status: ('A' for Active; 'I' for Inactive)
REMARK    1  A    between atoms: C11_18  and  O3_3 
REMARK    2  A    between atoms: C18_25  and  O3_3 
REMARK    3  A    between atoms: C20_27  and  O6_6 
REMARK    4  A    between atoms: C23_30  and  O6_6 
REMARK    5  A    between atoms: C1_8  and  C10_17 
REMARK    6  A    between atoms: C11_18  and  C6_13 
REMARK    7  A    between atoms: C18_25  and  C20_27 
ROOT
HETATM    1  O1  UNK     1      33.327  -7.443  33.621  1.00  0.00    -0.293 OA
HETATM    2  N1  UNK     1      31.918  -4.070  36.636  1.00  0.00    -0.362 N 
HETATM    3  C1  UNK     1      31.192  -6.466  35.298  1.00  0.00     0.104 C 
HETATM    4  C2  UNK     1      32.517  -5.745  35.070  1.00  0.00     0.024 C 
HETATM    5  C3  UNK     1      32.804  -4.593  35.714  1.00  0.00     0.020 C 
HETATM    6  C4  UNK     1      34.074  -3.815  35.490  1.00  0.00     0.058 C 
HETATM    7  C5  UNK     1      34.731  -4.158  34.158  1.00  0.00     0.014 C 
HETATM    8  C6  UNK     1      30.380  -5.859  36.443  1.00  0.00     0.052 C 
HETATM    9  C7  UNK     1      34.870  -5.661  33.996  1.00  0.00     0.084 C 
HETATM   10  C8  UNK     1      33.538  -6.359  34.165  1.00  0.00     0.158 C 
HETATM   11  C9  UNK     1      30.750  -4.700  37.037  1.00  0.00     0.018 C 
HETATM   12  C12 UNK     1      29.995  -3.997  38.132  1.00  0.00     0.069 C 
HETATM   13  H8  UNK     1      32.173  -3.206  37.100  1.00  0.00     0.165 HD
ENDROOT
BRANCH   3  14
HETATM   14  C10 UNK     1      30.380  -6.475  34.032  1.00  0.00     0.029 A 
HETATM   15  C13 UNK     1      29.856  -7.774  33.534  1.00  0.00     0.194 A 
HETATM   16  O5  UNK     1      30.063  -8.827  34.122  1.00  0.00    -0.287 OA
HETATM   17  C15 UNK     1      29.068  -7.726  32.289  1.00  0.00     0.048 A 
HETATM   18  C16 UNK     1      28.863  -6.496  31.662  1.00  0.00     0.089 A 
HETATM   19  C17 UNK     1      28.532  -8.894  31.740  1.00  0.00     0.018 A 
HETATM   20  O2  UNK     1      29.366  -5.319  32.157  1.00  0.00    -0.321 OA
HETATM   21  C19 UNK     1      28.121  -6.429  30.483  1.00  0.00     0.038 A 
HETATM   22  C14 UNK     1      30.098  -5.379  33.317  1.00  0.00     0.154 A 
HETATM   23  C22 UNK     1      27.585  -7.594  29.933  1.00  0.00     0.003 A 
HETATM   24  C21 UNK     1      27.790  -8.823  30.561  1.00  0.00     0.001 A 
ENDBRANCH   3  14
BRANCH   8  25
HETATM   25  C11 UNK     1      29.208  -6.627  36.896  1.00  0.00     0.292 C 
HETATM   26  O4  UNK     1      28.132  -6.602  36.327  1.00  0.00    -0.259 OA
BRANCH  25  27
HETATM   27  O3  UNK     1      29.554  -7.321  38.007  1.00  0.00    -0.316 OA
BRANCH  27  28
HETATM   28  C18 UNK     1      30.097  -8.622  37.764  1.00  0.00     0.205 C 
BRANCH  28  29
HETATM   29  C20 UNK     1      29.277  -9.649  38.521  1.00  0.00     0.195 C 
BRANCH  29  30
HETATM   30  O6  UNK     1      27.977  -9.719  37.948  1.00  0.00    -0.385 OA
BRANCH  30  31
HETATM   31  C23 UNK     1      26.966  -9.701  38.946  1.00  0.00     0.113 C 
HETATM   32  C24 UNK     1      26.242  -8.364  38.902  1.00  0.00     0.039 C 
HETATM   33  C25 UNK     1      27.600  -9.958  40.305  1.00  0.00     0.039 C 
ENDBRANCH  30  31
ENDBRANCH  29  30
ENDBRANCH  28  29
ENDBRANCH  27  28
ENDBRANCH  25  27
ENDBRANCH   8  25
TORSDOF 7
ENDMDL
MODEL 5
REMARK VINA RESULT:      -7.2      4.790      8.385
REMARK  7 active torsions:
REMARK  status: ('A' for Active; 'I' for Inactive)
REMARK    1  A    between atoms: C11_18  and  O3_3 
REMARK    2  A    between atoms: C18_25  and  O3_3 
REMARK    3  A    between atoms: C20_27  and  O6_6 
REMARK    4  A    between atoms: C23_30  and  O6_6 
REMARK    5  A    between atoms: C1_8  and  C10_17 
REMARK    6  A    between atoms: C11_18  and  C6_13 
REMARK    7  A    between atoms: C18_25  and  C20_27 
ROOT
HETATM    1  O1  UNK     1      34.276 -12.227  30.882  1.00  0.00    -0.293 OA
HETATM    2  N1  UNK     1      29.676 -11.963  29.776  1.00  0.00    -0.362 N 
HETATM    3  C1  UNK     1      32.158 -10.585  29.815  1.00  0.00     0.104 C 
HETATM    4  C2  UNK     1      31.966 -11.987  30.384  1.00  0.00     0.024 C 
HETATM    5  C3  UNK     1      30.758 -12.590  30.363  1.00  0.00     0.020 C 
HETATM    6  C4  UNK     1      30.503 -13.951  30.954  1.00  0.00     0.058 C 
HETATM    7  C5  UNK     1      31.559 -14.339  31.982  1.00  0.00     0.014 C 
HETATM    8  C6  UNK     1      30.921 -10.076  29.072  1.00  0.00     0.052 C 
HETATM    9  C7  UNK     1      32.956 -14.141  31.422  1.00  0.00     0.084 C 
HETATM   10  C8  UNK     1      33.152 -12.729  30.916  1.00  0.00     0.158 C 
HETATM   11  C9  UNK     1      29.749 -10.754  29.101  1.00  0.00     0.018 C 
HETATM   12  C12 UNK     1      28.467 -10.314  28.448  1.00  0.00     0.069 C 
HETATM   13  H8  UNK     1      28.787 -12.450  29.778  1.00  0.00     0.165 HD
ENDROOT
BRANCH   3  14
HETATM   14  C10 UNK     1      32.537  -9.626  30.911  1.00  0.00     0.029 A 
HETATM   15  C13 UNK     1      33.781  -8.828  30.756  1.00  0.00     0.194 A 
HETATM   16  O5  UNK     1      34.499  -8.927  29.770  1.00  0.00    -0.287 OA
HETATM   17  C15 UNK     1      34.107  -7.906  31.859  1.00  0.00     0.048 A 
HETATM   18  C16 UNK     1      33.252  -7.835  32.960  1.00  0.00     0.089 A 
HETATM   19  C17 UNK     1      35.256  -7.112  31.808  1.00  0.00     0.018 A 
HETATM   20  O2  UNK     1      32.111  -8.591  33.062  1.00  0.00    -0.321 OA
HETATM   21  C19 UNK     1      33.542  -6.969  34.014  1.00  0.00     0.038 A 
HETATM   22  C14 UNK     1      31.820  -9.445  32.027  1.00  0.00     0.154 A 
HETATM   23  C22 UNK     1      34.688  -6.175  33.965  1.00  0.00     0.003 A 
HETATM   24  C21 UNK     1      35.543  -6.247  32.864  1.00  0.00     0.001 A 
ENDBRANCH   3  14
BRANCH   8  25
HETATM   25  C11 UNK     1      31.088  -8.842  28.286  1.00  0.00     0.292 C 
HETATM   26  O4  UNK     1      31.908  -8.723  27.395  1.00  0.00    -0.259 OA
BRANCH  25  27
HETATM   27  O3  UNK     1      30.197  -7.925  28.735  1.00  0.00    -0.316 OA
BRANCH  27  28
HETATM   28  C18 UNK     1      30.768  -6.827  29.453  1.00  0.00     0.205 C 
BRANCH  28  29
HETATM   29  C20 UNK     1      29.964  -6.592  30.718  1.00  0.00     0.195 C 
BRANCH  29  30
HETATM   30  O6  UNK     1      29.039  -7.659  30.885  1.00  0.00    -0.385 OA
BRANCH  30  31
HETATM   31  C23 UNK     1      27.823  -7.207  31.464  1.00  0.00     0.113 C 
HETATM   32  C24 UNK     1      26.819  -6.919  30.358  1.00  0.00     0.039 C 
HETATM   33  C25 UNK     1      28.100  -5.977  32.313  1.00  0.00     0.039 C 
ENDBRANCH  30  31
ENDBRANCH  29  30
ENDBRANCH  28  29
ENDBRANCH  27  28
ENDBRANCH  25  27
ENDBRANCH   8  25
TORSDOF 7
ENDMDL
MODEL 6
REMARK VINA RESULT:      -7.1      2.673      5.903
REMARK  7 active torsions:
REMARK  status: ('A' for Active; 'I' for Inactive)
REMARK    1  A    between atoms: C11_18  and  O3_3 
REMARK    2  A    between atoms: C18_25  and  O3_3 
REMARK    3  A    between atoms: C20_27  and  O6_6 
REMARK    4  A    between atoms: C23_30  and  O6_6 
REMARK    5  A    between atoms: C1_8  and  C10_17 
REMARK    6  A    between atoms: C11_18  and  C6_13 
REMARK    7  A    between atoms: C18_25  and  C20_27 
ROOT
HETATM    1  O1  UNK     1      27.282  -8.496  36.054  1.00  0.00    -0.293 OA
HETATM    2  N1  UNK     1      30.635  -5.422  37.379  1.00  0.00    -0.362 N 
HETATM    3  C1  UNK     1      29.738  -7.168  35.328  1.00  0.00     0.104 C 
HETATM    4  C2  UNK     1      29.046  -7.035  36.682  1.00  0.00     0.024 C 
HETATM    5  C3  UNK     1      29.528  -6.207  37.633  1.00  0.00     0.020 C 
HETATM    6  C4  UNK     1      28.914  -6.075  39.002  1.00  0.00     0.058 C 
HETATM    7  C5  UNK     1      28.057  -7.281  39.367  1.00  0.00     0.014 C 
HETATM    8  C6  UNK     1      30.855  -6.140  35.134  1.00  0.00     0.052 C 
HETATM    9  C7  UNK     1      27.072  -7.600  38.257  1.00  0.00     0.084 C 
HETATM   10  C8  UNK     1      27.777  -7.789  36.931  1.00  0.00     0.158 C 
HETATM   11  C9  UNK     1      31.268  -5.344  36.148  1.00  0.00     0.018 C 
HETATM   12  C12 UNK     1      32.387  -4.341  36.073  1.00  0.00     0.069 C 
HETATM   13  H8  UNK     1      30.963  -4.812  38.119  1.00  0.00     0.165 HD
ENDROOT
BRANCH   3  14
HETATM   14  C10 UNK     1      30.278  -8.562  35.154  1.00  0.00     0.029 A 
HETATM   15  C13 UNK     1      29.920  -9.312  33.923  1.00  0.00     0.194 A 
HETATM   16  O5  UNK     1      29.206  -8.832  33.053  1.00  0.00    -0.287 OA
HETATM   17  C15 UNK     1      30.474 -10.673  33.804  1.00  0.00     0.048 A 
HETATM   18  C16 UNK     1      31.282 -11.169  34.827  1.00  0.00     0.089 A 
HETATM   19  C17 UNK     1      30.195 -11.460  32.683  1.00  0.00     0.018 A 
HETATM   20  O2  UNK     1      31.588 -10.441  35.949  1.00  0.00    -0.321 OA
HETATM   21  C19 UNK     1      31.816 -12.454  34.735  1.00  0.00     0.038 A 
HETATM   22  C14 UNK     1      31.065  -9.174  36.047  1.00  0.00     0.154 A 
HETATM   23  C22 UNK     1      31.540 -13.242  33.616  1.00  0.00     0.003 A 
HETATM   24  C21 UNK     1      30.732 -12.745  32.593  1.00  0.00     0.001 A 
ENDBRANCH   3  14
BRANCH   8  25
HETATM   25  C11 UNK     1      31.417  -6.030  33.777  1.00  0.00     0.292 C 
HETATM   26  O4  UNK     1      32.413  -6.628  33.417  1.00  0.00    -0.259 OA
BRANCH  25  27
HETATM   27  O3  UNK     1      30.644  -5.178  33.062  1.00  0.00    -0.316 OA
BRANCH  27  28
HETATM   28  C18 UNK     1      30.226  -5.666  31.783  1.00  0.00     0.205 C 
BRANCH  28  29
HETATM   29  C20 UNK     1      28.711  -5.713  31.742  1.00  0.00     0.195 C 
BRANCH  29  30
HETATM   30  O6  UNK     1      28.299  -6.311  30.519  1.00  0.00    -0.385 OA
BRANCH  30  31
HETATM   31  C23 UNK     1      27.185  -7.172  30.711  1.00  0.00     0.113 C 
HETATM   32  C24 UNK     1      27.479  -8.520  30.068  1.00  0.00     0.039 C 
HETATM   33  C25 UNK     1      25.943  -6.523  30.122  1.00  0.00     0.039 C 
ENDBRANCH  30  31
ENDBRANCH  29  30
ENDBRANCH  28  29
ENDBRANCH  27  28
ENDBRANCH  25  27
ENDBRANCH   8  25
TORSDOF 7
ENDMDL
MODEL 7
REMARK VINA RESULT:      -7.1      2.843      4.480
REMARK  7 active torsions:
REMARK  status: ('A' for Active; 'I' for Inactive)
REMARK    1  A    between atoms: C11_18  and  O3_3 
REMARK    2  A    between atoms: C18_25  and  O3_3 
REMARK    3  A    between atoms: C20_27  and  O6_6 
REMARK    4  A    between atoms: C23_30  and  O6_6 
REMARK    5  A    between atoms: C1_8  and  C10_17 
REMARK    6  A    between atoms: C11_18  and  C6_13 
REMARK    7  A    between atoms: C18_25  and  C20_27 
ROOT
HETATM    1  O1  UNK     1      29.208  -9.422  32.860  1.00  0.00    -0.293 OA
HETATM    2  N1  UNK     1      32.087  -7.356  29.715  1.00  0.00    -0.362 N 
HETATM    3  C1  UNK     1      31.865  -8.429  32.334  1.00  0.00     0.104 C 
HETATM    4  C2  UNK     1      30.687  -8.311  31.371  1.00  0.00     0.024 C 
HETATM    5  C3  UNK     1      30.841  -7.771  30.144  1.00  0.00     0.020 C 
HETATM    6  C4  UNK     1      29.704  -7.585  29.174  1.00  0.00     0.058 C 
HETATM    7  C5  UNK     1      28.348  -7.587  29.870  1.00  0.00     0.014 C 
HETATM    8  C6  UNK     1      33.200  -8.071  31.678  1.00  0.00     0.052 C 
HETATM    9  C7  UNK     1      28.213  -8.791  30.785  1.00  0.00     0.084 C 
HETATM   10  C8  UNK     1      29.356  -8.863  31.774  1.00  0.00     0.158 C 
HETATM   11  C9  UNK     1      33.258  -7.538  30.435  1.00  0.00     0.018 C 
HETATM   12  C12 UNK     1      34.512  -7.107  29.725  1.00  0.00     0.069 C 
HETATM   13  H8  UNK     1      32.161  -6.959  28.785  1.00  0.00     0.165 HD
ENDROOT
BRANCH   3  14
HETATM   14  C10 UNK     1      31.634  -7.569  33.547  1.00  0.00     0.029 A 
HETATM   15  C13 UNK     1      31.628  -8.217  34.884  1.00  0.00     0.194 A 
HETATM   16  O5  UNK     1      31.805  -9.419  35.026  1.00  0.00    -0.287 OA
HETATM   17  C15 UNK     1      31.395  -7.329  36.038  1.00  0.00     0.048 A 
HETATM   18  C16 UNK     1      31.198  -5.965  35.817  1.00  0.00     0.089 A 
HETATM   19  C17 UNK     1      31.370  -7.842  37.338  1.00  0.00     0.018 A 
HETATM   20  O2  UNK     1      31.213  -5.408  34.562  1.00  0.00    -0.321 OA
HETATM   21  C19 UNK     1      30.977  -5.108  36.894  1.00  0.00     0.038 A 
HETATM   22  C14 UNK     1      31.430  -6.247  33.497  1.00  0.00     0.154 A 
HETATM   23  C22 UNK     1      30.952  -5.617  38.193  1.00  0.00     0.003 A 
HETATM   24  C21 UNK     1      31.149  -6.981  38.413  1.00  0.00     0.001 A 
ENDBRANCH   3  14
BRANCH   8  25
HETATM   25  C11 UNK     1      34.415  -8.384  32.449  1.00  0.00     0.292 C 
HETATM   26  O4  UNK     1      34.855  -9.511  32.574  1.00  0.00    -0.259 OA
BRANCH  25  27
HETATM   27  O3  UNK     1      34.906  -7.229  32.960  1.00  0.00    -0.316 OA
BRANCH  27  28
HETATM   28  C18 UNK     1      36.315  -7.228  33.211  1.00  0.00     0.205 C 
BRANCH  28  29
HETATM   29  C20 UNK     1      36.552  -7.055  34.699  1.00  0.00     0.195 C 
BRANCH  29  30
HETATM   30  O6  UNK     1      35.299  -6.902  35.354  1.00  0.00    -0.385 OA
BRANCH  30  31
HETATM   31  C23 UNK     1      35.282  -5.747  36.181  1.00  0.00     0.113 C 
HETATM   32  C24 UNK     1      34.597  -6.085  37.498  1.00  0.00     0.039 C 
HETATM   33  C25 UNK     1      34.575  -4.617  35.449  1.00  0.00     0.039 C 
ENDBRANCH  30  31
ENDBRANCH  29  30
ENDBRANCH  28  29
ENDBRANCH  27  28
ENDBRANCH  25  27
ENDBRANCH   8  25
TORSDOF 7
ENDMDL
MODEL 8
REMARK VINA RESULT:      -7.1      1.872      5.346
REMARK  7 active torsions:
REMARK  status: ('A' for Active; 'I' for Inactive)
REMARK    1  A    between atoms: C11_18  and  O3_3 
REMARK    2  A    between atoms: C18_25  and  O3_3 
REMARK    3  A    between atoms: C20_27  and  O6_6 
REMARK    4  A    between atoms: C23_30  and  O6_6 
REMARK    5  A    between atoms: C1_8  and  C10_17 
REMARK    6  A    between atoms: C11_18  and  C6_13 
REMARK    7  A    between atoms: C18_25  and  C20_27 
ROOT
HETATM    1  O1  UNK     1      31.031  -5.414  36.526  1.00  0.00    -0.293 OA
HETATM    2  N1  UNK     1      33.875  -8.769  34.763  1.00  0.00    -0.362 N 
HETATM    3  C1  UNK     1      31.185  -7.963  35.184  1.00  0.00     0.104 C 
HETATM    4  C2  UNK     1      32.388  -7.179  35.699  1.00  0.00     0.024 C 
HETATM    5  C3  UNK     1      33.648  -7.618  35.493  1.00  0.00     0.020 C 
HETATM    6  C4  UNK     1      34.868  -6.910  36.020  1.00  0.00     0.058 C 
HETATM    7  C5  UNK     1      34.537  -5.986  37.186  1.00  0.00     0.014 C 
HETATM    8  C6  UNK     1      31.586  -9.128  34.276  1.00  0.00     0.052 C 
HETATM    9  C7  UNK     1      33.373  -5.075  36.839  1.00  0.00     0.084 C 
HETATM   10  C8  UNK     1      32.167  -5.869  36.388  1.00  0.00     0.158 C 
HETATM   11  C9  UNK     1      32.880  -9.494  34.124  1.00  0.00     0.018 C 
HETATM   12  C12 UNK     1      33.371 -10.650  33.297  1.00  0.00     0.069 C 
HETATM   13  H8  UNK     1      34.835  -9.064  34.628  1.00  0.00     0.165 HD
ENDROOT
BRANCH   3  14
HETATM   14  C10 UNK     1      30.358  -8.464  36.338  1.00  0.00     0.029 A 
HETATM   15  C13 UNK     1      28.934  -8.049  36.422  1.00  0.00     0.194 A 
HETATM   16  O5  UNK     1      28.419  -7.320  35.586  1.00  0.00    -0.287 OA
HETATM   17  C15 UNK     1      28.171  -8.566  37.572  1.00  0.00     0.048 A 
HETATM   18  C16 UNK     1      28.811  -9.395  38.495  1.00  0.00     0.089 A 
HETATM   19  C17 UNK     1      26.824  -8.233  37.741  1.00  0.00     0.018 A 
HETATM   20  O2  UNK     1      30.130  -9.754  38.378  1.00  0.00    -0.321 OA
HETATM   21  C19 UNK     1      28.107  -9.895  39.590  1.00  0.00     0.038 A 
HETATM   22  C14 UNK     1      30.829  -9.265  37.302  1.00  0.00     0.154 A 
HETATM   23  C22 UNK     1      26.762  -9.564  39.761  1.00  0.00     0.003 A 
HETATM   24  C21 UNK     1      26.123  -8.736  38.837  1.00  0.00     0.001 A 
ENDBRANCH   3  14
BRANCH   8  25
HETATM   25  C11 UNK     1      30.496  -9.792  33.541  1.00  0.00     0.292 C 
HETATM   26  O4  UNK     1      30.071 -10.895  33.830  1.00  0.00    -0.259 OA
BRANCH  25  27
HETATM   27  O3  UNK     1      30.093  -8.972  32.541  1.00  0.00    -0.316 OA
BRANCH  27  28
HETATM   28  C18 UNK     1      29.445  -9.625  31.445  1.00  0.00     0.205 C 
BRANCH  28  29
HETATM   29  C20 UNK     1      28.264  -8.786  30.997  1.00  0.00     0.195 C 
BRANCH  29  30
HETATM   30  O6  UNK     1      27.938  -7.858  32.024  1.00  0.00    -0.385 OA
BRANCH  30  31
HETATM   31  C23 UNK     1      27.503  -6.617  31.486  1.00  0.00     0.113 C 
HETATM   32  C24 UNK     1      26.432  -6.875  30.436  1.00  0.00     0.039 C 
HETATM   33  C25 UNK     1      28.698  -5.877  30.905  1.00  0.00     0.039 C 
ENDBRANCH  30  31
ENDBRANCH  29  30
ENDBRANCH  28  29
ENDBRANCH  27  28
ENDBRANCH  25  27
ENDBRANCH   8  25
TORSDOF 7
ENDMDL
MODEL 9
REMARK VINA RESULT:      -7.1      2.269      5.654
REMARK  7 active torsions:
REMARK  status: ('A' for Active; 'I' for Inactive)
REMARK    1  A    between atoms: C11_18  and  O3_3 
REMARK    2  A    between atoms: C18_25  and  O3_3 
REMARK    3  A    between atoms: C20_27  and  O6_6 
REMARK    4  A    between atoms: C23_30  and  O6_6 
REMARK    5  A    between atoms: C1_8  and  C10_17 
REMARK    6  A    between atoms: C11_18  and  C6_13 
REMARK    7  A    between atoms: C18_25  and  C20_27 
ROOT
HETATM    1  O1  UNK     1      33.700  -9.243  31.634  1.00  0.00    -0.293 OA
HETATM    2  N1  UNK     1      34.540  -7.299  35.872  1.00  0.00    -0.362 N 
HETATM    3  C1  UNK     1      32.652  -8.676  34.261  1.00  0.00     0.104 C 
HETATM    4  C2  UNK     1      34.013  -8.214  33.751  1.00  0.00     0.024 C 
HETATM    5  C3  UNK     1      34.867  -7.541  34.552  1.00  0.00     0.020 C 
HETATM    6  C4  UNK     1      36.201  -7.020  34.087  1.00  0.00     0.058 C 
HETATM    7  C5  UNK     1      36.266  -6.879  32.570  1.00  0.00     0.014 C 
HETATM    8  C6  UNK     1      32.487  -8.472  35.768  1.00  0.00     0.052 C 
HETATM    9  C7  UNK     1      35.810  -8.157  31.890  1.00  0.00     0.084 C 
HETATM   10  C8  UNK     1      34.433  -8.571  32.359  1.00  0.00     0.158 C 
HETATM   11  C9  UNK     1      33.401  -7.786  36.494  1.00  0.00     0.018 C 
HETATM   12  C12 UNK     1      33.306  -7.490  37.966  1.00  0.00     0.069 C 
HETATM   13  H8  UNK     1      35.210  -6.793  36.441  1.00  0.00     0.165 HD
ENDROOT
BRANCH   3  14
HETATM   14  C10 UNK     1      31.551  -7.969  33.517  1.00  0.00     0.029 A 
HETATM   15  C13 UNK     1      30.529  -8.789  32.816  1.00  0.00     0.194 A 
HETATM   16  O5  UNK     1      30.556 -10.012  32.828  1.00  0.00    -0.287 OA
HETATM   17  C15 UNK     1      29.474  -8.047  32.101  1.00  0.00     0.048 A 
HETATM   18  C16 UNK     1      29.493  -6.652  32.121  1.00  0.00     0.089 A 
HETATM   19  C17 UNK     1      28.468  -8.727  31.411  1.00  0.00     0.018 A 
HETATM   20  O2  UNK     1      30.457  -5.933  32.784  1.00  0.00    -0.321 OA
HETATM   21  C19 UNK     1      28.505  -5.930  31.452  1.00  0.00     0.038 A 
HETATM   22  C14 UNK     1      31.433  -6.637  33.445  1.00  0.00     0.154 A 
HETATM   23  C22 UNK     1      27.499  -6.607  30.762  1.00  0.00     0.003 A 
HETATM   24  C21 UNK     1      27.480  -8.002  30.743  1.00  0.00     0.001 A 
ENDBRANCH   3  14
BRANCH   8  25
HETATM   25  C11 UNK     1      31.310  -9.102  36.391  1.00  0.00     0.292 C 
HETATM   26  O4  UNK     1      31.269 -10.278  36.702  1.00  0.00    -0.259 OA
BRANCH  25  27
HETATM   27  O3  UNK     1      30.347  -8.162  36.534  1.00  0.00    -0.316 OA
BRANCH  27  28
HETATM   28  C18 UNK     1      29.692  -8.153  37.807  1.00  0.00     0.205 C 
BRANCH  28  29
HETATM   29  C20 UNK     1      29.650  -6.730  38.332  1.00  0.00     0.195 C 
BRANCH  29  30
HETATM   30  O6  UNK     1      29.506  -5.836  37.236  1.00  0.00    -0.385 OA
BRANCH  30  31
HETATM   31  C23 UNK     1      29.946  -4.527  37.571  1.00  0.00     0.113 C 
HETATM   32  C24 UNK     1      31.399  -4.364  37.147  1.00  0.00     0.039 C 
HETATM   33  C25 UNK     1      29.763  -4.305  39.064  1.00  0.00     0.039 C 
ENDBRANCH  30  31
ENDBRANCH  29  30
ENDBRANCH  28  29
ENDBRANCH  27  28
ENDBRANCH  25  27
ENDBRANCH   8  25
TORSDOF 7
ENDMDL
MODEL 10
REMARK VINA RESULT:      -7.0      2.361      7.033
REMARK  7 active torsions:
REMARK  status: ('A' for Active; 'I' for Inactive)
REMARK    1  A    between atoms: C11_18  and  O3_3 
REMARK    2  A    between atoms: C18_25  and  O3_3 
REMARK    3  A    between atoms: C20_27  and  O6_6 
REMARK    4  A    between atoms: C23_30  and  O6_6 
REMARK    5  A    between atoms: C1_8  and  C10_17 
REMARK    6  A    between atoms: C11_18  and  C6_13 
REMARK    7  A    between atoms: C18_25  and  C20_27 
ROOT
HETATM    1  O1  UNK     1      32.336  -7.008  34.397  1.00  0.00    -0.293 OA
HETATM    2  N1  UNK     1      29.776  -5.216  37.959  1.00  0.00    -0.362 N 
HETATM    3  C1  UNK     1      29.953  -7.265  36.002  1.00  0.00     0.104 C 
HETATM    4  C2  UNK     1      30.955  -6.120  36.112  1.00  0.00     0.024 C 
HETATM    5  C3  UNK     1      30.812  -5.155  37.047  1.00  0.00     0.020 C 
HETATM    6  C4  UNK     1      31.742  -3.977  37.168  1.00  0.00     0.058 C 
HETATM    7  C5  UNK     1      32.512  -3.717  35.878  1.00  0.00     0.014 C 
HETATM    8  C6  UNK     1      28.951  -7.286  37.159  1.00  0.00     0.052 C 
HETATM    9  C7  UNK     1      33.163  -4.992  35.372  1.00  0.00     0.084 C 
HETATM   10  C8  UNK     1      32.148  -6.103  35.210  1.00  0.00     0.158 C 
HETATM   11  C9  UNK     1      28.885  -6.274  38.055  1.00  0.00     0.018 C 
HETATM   12  C12 UNK     1      27.906  -6.176  39.193  1.00  0.00     0.069 C 
HETATM   13  H8  UNK     1      29.706  -4.474  38.646  1.00  0.00     0.165 HD
ENDROOT
BRANCH   3  14
HETATM   14  C10 UNK     1      29.227  -7.197  34.686  1.00  0.00     0.029 A 
HETATM   15  C13 UNK     1      29.372  -8.330  33.736  1.00  0.00     0.194 A 
HETATM   16  O5  UNK     1      30.058  -9.309  33.992  1.00  0.00    -0.287 OA
HETATM   17  C15 UNK     1      28.641  -8.210  32.461  1.00  0.00     0.048 A 
HETATM   18  C16 UNK     1      27.873  -7.070  32.223  1.00  0.00     0.089 A 
HETATM   19  C17 UNK     1      28.714  -9.224  31.501  1.00  0.00     0.018 A 
HETATM   20  O2  UNK     1      27.766  -6.046  33.130  1.00  0.00    -0.321 OA
HETATM   21  C19 UNK     1      27.174  -6.937  31.024  1.00  0.00     0.038 A 
HETATM   22  C14 UNK     1      28.453  -6.170  34.313  1.00  0.00     0.154 A 
HETATM   23  C22 UNK     1      27.245  -7.947  30.063  1.00  0.00     0.003 A 
HETATM   24  C21 UNK     1      28.013  -9.088  30.303  1.00  0.00     0.001 A 
ENDBRANCH   3  14
BRANCH   8  25
HETATM   25  C11 UNK     1      28.103  -8.484  37.271  1.00  0.00     0.292 C 
HETATM   26  O4  UNK     1      28.517  -9.562  37.654  1.00  0.00    -0.259 OA
BRANCH  25  27
HETATM   27  O3  UNK     1      26.847  -8.157  36.882  1.00  0.00    -0.316 OA
BRANCH  27  28
HETATM   28  C18 UNK     1      25.817  -9.024  37.367  1.00  0.00     0.205 C 
BRANCH  28  29
HETATM   29  C20 UNK     1      24.956  -8.264  38.357  1.00  0.00     0.195 C 
BRANCH  29  30
HETATM   30  O6  UNK     1      23.732  -7.906  37.728  1.00  0.00    -0.385 OA
BRANCH  30  31
HETATM   31  C23 UNK     1      22.619  -8.152  38.577  1.00  0.00     0.113 C 
HETATM   32  C24 UNK     1      21.340  -8.099  37.754  1.00  0.00     0.039 C 
HETATM   33  C25 UNK     1      22.611  -7.127  39.701  1.00  0.00     0.039 C 
ENDBRANCH  30  31
ENDBRANCH  29  30
ENDBRANCH  28  29
ENDBRANCH  27  28
ENDBRANCH  25  27
ENDBRANCH   8  25
TORSDOF 7
ENDMDL
