MODEL 1
REMARK VINA RESULT:      -9.2      0.000      0.000
REMARK  5 active torsions:
REMARK  status: ('A' for Active; 'I' for Inactive)
REMARK    1  A    between atoms: C11_20  and  N1_7 
REMARK    2  A    between atoms: C4_13  and  N1_7 
REMARK    3  A    between atoms: C11_20  and  N2_8 
REMARK    4  A    between atoms: N2_8  and  N3_9 
REMARK       I    between atoms: C13_22  and  N3_9 
REMARK    5  A    between atoms: C12_21  and  C13_22 
ROOT
HETATM    1  N1  UNK     1      18.654  -0.234  31.070  1.00  0.00    -0.332 N 
HETATM    2  H8  UNK     1      17.669  -0.207  30.818  1.00  0.00     0.168 HD
ENDROOT
BRANCH   1   3
HETATM    3  C11 UNK     1      19.504   0.145  30.016  1.00  0.00     0.191 C 
HETATM    4  S2  UNK     1      20.854  -0.653  29.419  1.00  0.00    -0.039 SA
BRANCH   3   5
HETATM    5  N2  UNK     1      19.177   1.361  29.427  1.00  0.00    -0.273 N 
HETATM    6  H9  UNK     1      18.745   1.409  28.510  1.00  0.00     0.189 HD
BRANCH   5   7
HETATM    7  N3  UNK     1      19.401   2.558  30.068  1.00  0.00    -0.263 N 
HETATM    8  C13 UNK     1      18.366   3.138  30.790  1.00  0.00     0.277 C 
HETATM    9  O3  UNK     1      17.252   2.618  30.877  1.00  0.00    -0.265 OA
HETATM   10  H10 UNK     1      20.353   2.907  30.055  1.00  0.00     0.190 HD
BRANCH   8  11
HETATM   11  C12 UNK     1      18.698   4.402  31.462  1.00  0.00     0.075 A 
HETATM   12  S1  UNK     1      18.196   4.603  33.065  1.00  0.00    -0.072 SA
HETATM   13  C16 UNK     1      18.896   6.164  33.107  1.00  0.00     0.075 A 
HETATM   14  C15 UNK     1      19.492   6.496  31.910  1.00  0.00     0.033 A 
HETATM   15 Cl1  UNK     1      18.805   7.111  34.533  1.00  0.00    -0.076 Cl
HETATM   16  C14 UNK     1      19.371   5.454  30.945  1.00  0.00     0.027 A 
ENDBRANCH   8  11
ENDBRANCH   5   7
ENDBRANCH   3   5
ENDBRANCH   1   3
BRANCH   1  17
HETATM   17  C4  UNK     1      18.870  -0.708  32.364  1.00  0.00     0.037 A 
HETATM   18  C6  UNK     1      18.230  -0.109  33.444  1.00  0.00     0.067 A 
HETATM   19  C2  UNK     1      18.460  -0.601  34.730  1.00  0.00     0.092 A 
HETATM   20  C1  UNK     1      19.312  -1.679  34.975  1.00  0.00     0.004 A 
HETATM   21  O1  UNK     1      17.784   0.047  35.783  1.00  0.00    -0.275 OA
HETATM   22  C3  UNK     1      19.494  -2.130  36.361  1.00  0.00    -0.043 A 
HETATM   23  C5  UNK     1      19.946  -2.269  33.874  1.00  0.00     0.017 A 
HETATM   24  C9  UNK     1      20.406  -3.287  36.658  1.00  0.00     0.049 C 
HETATM   25  C8  UNK     1      18.838  -1.496  37.343  1.00  0.00     0.090 A 
HETATM   26  C10 UNK     1      17.935  -0.358  37.100  1.00  0.00     0.288 A 
HETATM   27  O2  UNK     1      17.351   0.198  38.023  1.00  0.00    -0.260 OA
HETATM   28  C7  UNK     1      19.725  -1.788  32.578  1.00  0.00     0.030 A 
ENDBRANCH   1  17
TORSDOF 5
ENDMDL
MODEL 2
REMARK VINA RESULT:      -9.2      5.015      7.223
REMARK  5 active torsions:
REMARK  status: ('A' for Active; 'I' for Inactive)
REMARK    1  A    between atoms: C11_20  and  N1_7 
REMARK    2  A    between atoms: C4_13  and  N1_7 
REMARK    3  A    between atoms: C11_20  and  N2_8 
REMARK    4  A    between atoms: N2_8  and  N3_9 
REMARK       I    between atoms: C13_22  and  N3_9 
REMARK    5  A    between atoms: C12_21  and  C13_22 
ROOT
HETATM    1  N1  UNK     1      18.869  -3.916  36.380  1.00  0.00    -0.332 N 
HETATM    2  H8  UNK     1      17.903  -4.133  36.611  1.00  0.00     0.168 HD
ENDROOT
BRANCH   1   3
HETATM    3  C11 UNK     1      19.028  -2.642  35.808  1.00  0.00     0.191 C 
HETATM    4  S2  UNK     1      18.153  -1.242  36.107  1.00  0.00    -0.039 SA
BRANCH   3   5
HETATM    5  N2  UNK     1      20.031  -2.566  34.849  1.00  0.00    -0.273 N 
HETATM    6  H9  UNK     1      20.928  -3.024  34.978  1.00  0.00     0.189 HD
BRANCH   5   7
HETATM    7  N3  UNK     1      19.850  -1.887  33.665  1.00  0.00    -0.263 N 
HETATM    8  C13 UNK     1      20.525  -2.320  32.531  1.00  0.00     0.277 C 
HETATM    9  O3  UNK     1      21.282  -3.292  32.547  1.00  0.00    -0.265 OA
HETATM   10  H10 UNK     1      19.148  -1.156  33.667  1.00  0.00     0.190 HD
BRANCH   8  11
HETATM   11  C12 UNK     1      20.255  -1.554  31.307  1.00  0.00     0.075 A 
HETATM   12  S1  UNK     1      19.473  -0.061  31.462  1.00  0.00    -0.072 SA
HETATM   13  C16 UNK     1      19.527   0.163  29.765  1.00  0.00     0.075 A 
HETATM   14  C15 UNK     1      20.133  -0.895  29.123  1.00  0.00     0.033 A 
HETATM   15 Cl1  UNK     1      18.871   1.582  29.062  1.00  0.00    -0.076 Cl
HETATM   16  C14 UNK     1      20.559  -1.902  30.037  1.00  0.00     0.027 A 
ENDBRANCH   8  11
ENDBRANCH   5   7
ENDBRANCH   3   5
ENDBRANCH   1   3
BRANCH   1  17
HETATM   17  C4  UNK     1      19.739  -4.977  36.634  1.00  0.00     0.037 A 
HETATM   18  C6  UNK     1      19.832  -6.035  35.736  1.00  0.00     0.067 A 
HETATM   19  C2  UNK     1      20.710  -7.085  36.010  1.00  0.00     0.092 A 
HETATM   20  C1  UNK     1      21.504  -7.114  37.158  1.00  0.00     0.004 A 
HETATM   21  O1  UNK     1      20.760  -8.127  35.064  1.00  0.00    -0.275 OA
HETATM   22  C3  UNK     1      22.400  -8.259  37.365  1.00  0.00    -0.043 A 
HETATM   23  C5  UNK     1      21.395  -6.038  38.049  1.00  0.00     0.017 A 
HETATM   24  C9  UNK     1      23.265  -8.320  38.591  1.00  0.00     0.049 C 
HETATM   25  C8  UNK     1      22.428  -9.236  36.448  1.00  0.00     0.090 A 
HETATM   26  C10 UNK     1      21.598  -9.220  35.232  1.00  0.00     0.288 A 
HETATM   27  O2  UNK     1      21.650 -10.132  34.414  1.00  0.00    -0.260 OA
HETATM   28  C7  UNK     1      20.520  -4.978  37.789  1.00  0.00     0.030 A 
ENDBRANCH   1  17
TORSDOF 5
ENDMDL
MODEL 3
REMARK VINA RESULT:      -9.2      3.120      6.918
REMARK  5 active torsions:
REMARK  status: ('A' for Active; 'I' for Inactive)
REMARK    1  A    between atoms: C11_20  and  N1_7 
REMARK    2  A    between atoms: C4_13  and  N1_7 
REMARK    3  A    between atoms: C11_20  and  N2_8 
REMARK    4  A    between atoms: N2_8  and  N3_9 
REMARK       I    between atoms: C13_22  and  N3_9 
REMARK    5  A    between atoms: C12_21  and  C13_22 
ROOT
HETATM    1  N1  UNK     1      19.381   3.765  30.129  1.00  0.00    -0.332 N 
HETATM    2  H8  UNK     1      19.951   4.045  29.335  1.00  0.00     0.168 HD
ENDROOT
BRANCH   1   3
HETATM    3  C11 UNK     1      18.863   2.463  30.004  1.00  0.00     0.191 C 
HETATM    4  S2  UNK     1      17.858   1.844  28.812  1.00  0.00    -0.039 SA
BRANCH   3   5
HETATM    5  N2  UNK     1      19.226   1.602  31.033  1.00  0.00    -0.273 N 
HETATM    6  H9  UNK     1      19.998   0.951  30.936  1.00  0.00     0.189 HD
BRANCH   5   7
HETATM    7  N3  UNK     1      18.571   1.608  32.244  1.00  0.00    -0.263 N 
HETATM    8  C13 UNK     1      18.631   0.477  33.047  1.00  0.00     0.277 C 
HETATM    9  O3  UNK     1      19.251  -0.534  32.714  1.00  0.00    -0.265 OA
HETATM   10  H10 UNK     1      18.155   2.488  32.528  1.00  0.00     0.190 HD
BRANCH   8  11
HETATM   11  C12 UNK     1      17.925   0.578  34.331  1.00  0.00     0.075 A 
HETATM   12  S1  UNK     1      18.813   1.059  35.689  1.00  0.00    -0.072 SA
HETATM   13  C16 UNK     1      17.415   0.937  36.669  1.00  0.00     0.075 A 
HETATM   14  C15 UNK     1      16.311   0.537  35.948  1.00  0.00     0.033 A 
HETATM   15 Cl1  UNK     1      17.501   1.301  38.342  1.00  0.00    -0.076 Cl
HETATM   16  C14 UNK     1      16.619   0.327  34.572  1.00  0.00     0.027 A 
ENDBRANCH   8  11
ENDBRANCH   5   7
ENDBRANCH   3   5
ENDBRANCH   1   3
BRANCH   1  17
HETATM   17  C4  UNK     1      19.224   4.781  31.071  1.00  0.00     0.037 A 
HETATM   18  C6  UNK     1      17.963   5.073  31.580  1.00  0.00     0.067 A 
HETATM   19  C2  UNK     1      17.830   6.094  32.523  1.00  0.00     0.092 A 
HETATM   20  C1  UNK     1      18.920   6.836  32.978  1.00  0.00     0.004 A 
HETATM   21  O1  UNK     1      16.528   6.343  33.001  1.00  0.00    -0.275 OA
HETATM   22  C3  UNK     1      18.686   7.892  33.973  1.00  0.00    -0.043 A 
HETATM   23  C5  UNK     1      20.181   6.526  32.453  1.00  0.00     0.017 A 
HETATM   24  C9  UNK     1      19.839   8.709  34.481  1.00  0.00     0.049 C 
HETATM   25  C8  UNK     1      17.438   8.107  34.412  1.00  0.00     0.090 A 
HETATM   26  C10 UNK     1      16.278   7.332  33.942  1.00  0.00     0.288 A 
HETATM   27  O2  UNK     1      15.149   7.556  34.365  1.00  0.00    -0.260 OA
HETATM   28  C7  UNK     1      20.332   5.505  31.508  1.00  0.00     0.030 A 
ENDBRANCH   1  17
TORSDOF 5
ENDMDL
MODEL 4
REMARK VINA RESULT:      -9.1      5.647      9.661
REMARK  5 active torsions:
REMARK  status: ('A' for Active; 'I' for Inactive)
REMARK    1  A    between atoms: C11_20  and  N1_7 
REMARK    2  A    between atoms: C4_13  and  N1_7 
REMARK    3  A    between atoms: C11_20  and  N2_8 
REMARK    4  A    between atoms: N2_8  and  N3_9 
REMARK       I    between atoms: C13_22  and  N3_9 
REMARK    5  A    between atoms: C12_21  and  C13_22 
ROOT
HETATM    1  N1  UNK     1      19.802  -2.842  34.936  1.00  0.00    -0.332 N 
HETATM    2  H8  UNK     1      20.065  -3.821  34.857  1.00  0.00     0.168 HD
ENDROOT
BRANCH   1   3
HETATM    3  C11 UNK     1      19.409  -2.478  36.236  1.00  0.00     0.191 C 
HETATM    4  S2  UNK     1      18.265  -1.347  36.709  1.00  0.00    -0.039 SA
BRANCH   3   5
HETATM    5  N2  UNK     1      20.097  -3.140  37.247  1.00  0.00    -0.273 N 
HETATM    6  H9  UNK     1      20.832  -2.685  37.779  1.00  0.00     0.189 HD
BRANCH   5   7
HETATM    7  N3  UNK     1      19.799  -4.439  37.593  1.00  0.00    -0.263 N 
HETATM    8  C13 UNK     1      20.834  -5.353  37.731  1.00  0.00     0.277 C 
HETATM    9  O3  UNK     1      22.014  -5.043  37.556  1.00  0.00    -0.265 OA
HETATM   10  H10 UNK     1      18.831  -4.633  37.824  1.00  0.00     0.190 HD
BRANCH   8  11
HETATM   11  C12 UNK     1      20.429  -6.709  38.126  1.00  0.00     0.075 A 
HETATM   12  S1  UNK     1      20.292  -7.881  36.913  1.00  0.00    -0.072 SA
HETATM   13  C16 UNK     1      19.827  -9.052  38.072  1.00  0.00     0.075 A 
HETATM   14  C15 UNK     1      19.786  -8.530  39.346  1.00  0.00     0.033 A 
HETATM   15 Cl1  UNK     1      19.480 -10.658  37.582  1.00  0.00    -0.076 Cl
HETATM   16  C14 UNK     1      20.141  -7.150  39.371  1.00  0.00     0.027 A 
ENDBRANCH   8  11
ENDBRANCH   5   7
ENDBRANCH   3   5
ENDBRANCH   1   3
BRANCH   1  17
HETATM   17  C4  UNK     1      19.840  -2.169  33.714  1.00  0.00     0.037 A 
HETATM   18  C6  UNK     1      19.103  -1.004  33.535  1.00  0.00     0.067 A 
HETATM   19  C2  UNK     1      19.158  -0.346  32.304  1.00  0.00     0.092 A 
HETATM   20  C1  UNK     1      19.929  -0.817  31.241  1.00  0.00     0.004 A 
HETATM   21  O1  UNK     1      18.390   0.829  32.183  1.00  0.00    -0.275 OA
HETATM   22  C3  UNK     1      19.927  -0.061  29.981  1.00  0.00    -0.043 A 
HETATM   23  C5  UNK     1      20.664  -1.993  31.442  1.00  0.00     0.017 A 
HETATM   24  C9  UNK     1      20.745  -0.543  28.818  1.00  0.00     0.049 C 
HETATM   25  C8  UNK     1      19.188   1.054  29.894  1.00  0.00     0.090 A 
HETATM   26  C10 UNK     1      18.369   1.564  31.007  1.00  0.00     0.288 A 
HETATM   27  O2  UNK     1      17.706   2.588  30.892  1.00  0.00    -0.260 OA
HETATM   28  C7  UNK     1      20.621  -2.662  32.670  1.00  0.00     0.030 A 
ENDBRANCH   1  17
TORSDOF 5
ENDMDL
MODEL 5
REMARK VINA RESULT:      -9.0      5.454      9.495
REMARK  5 active torsions:
REMARK  status: ('A' for Active; 'I' for Inactive)
REMARK    1  A    between atoms: C11_20  and  N1_7 
REMARK    2  A    between atoms: C4_13  and  N1_7 
REMARK    3  A    between atoms: C11_20  and  N2_8 
REMARK    4  A    between atoms: N2_8  and  N3_9 
REMARK       I    between atoms: C13_22  and  N3_9 
REMARK    5  A    between atoms: C12_21  and  C13_22 
ROOT
HETATM    1  N1  UNK     1      18.627  -1.914  35.026  1.00  0.00    -0.332 N 
HETATM    2  H8  UNK     1      18.318  -2.841  34.747  1.00  0.00     0.168 HD
ENDROOT
BRANCH   1   3
HETATM    3  C11 UNK     1      18.811  -1.787  36.414  1.00  0.00     0.191 C 
HETATM    4  S2  UNK     1      17.875  -0.946  37.524  1.00  0.00    -0.039 SA
BRANCH   3   5
HETATM    5  N2  UNK     1      19.941  -2.432  36.903  1.00  0.00    -0.273 N 
HETATM    6  H9  UNK     1      20.867  -2.027  36.812  1.00  0.00     0.189 HD
BRANCH   5   7
HETATM    7  N3  UNK     1      19.857  -3.641  37.557  1.00  0.00    -0.263 N 
HETATM    8  C13 UNK     1      19.985  -4.813  36.823  1.00  0.00     0.277 C 
HETATM    9  O3  UNK     1      20.173  -4.810  35.606  1.00  0.00    -0.265 OA
HETATM   10  H10 UNK     1      19.800  -3.604  38.568  1.00  0.00     0.190 HD
BRANCH   8  11
HETATM   11  C12 UNK     1      19.907  -6.055  37.603  1.00  0.00     0.075 A 
HETATM   12  S1  UNK     1      19.219  -7.413  36.864  1.00  0.00    -0.072 SA
HETATM   13  C16 UNK     1      19.476  -8.337  38.282  1.00  0.00     0.075 A 
HETATM   14  C15 UNK     1      20.074  -7.598  39.279  1.00  0.00     0.033 A 
HETATM   15 Cl1  UNK     1      19.003  -9.984  38.335  1.00  0.00    -0.076 Cl
HETATM   16  C14 UNK     1      20.325  -6.255  38.873  1.00  0.00     0.027 A 
ENDBRANCH   8  11
ENDBRANCH   5   7
ENDBRANCH   3   5
ENDBRANCH   1   3
BRANCH   1  17
HETATM   17  C4  UNK     1      18.707  -1.023  33.955  1.00  0.00     0.037 A 
HETATM   18  C6  UNK     1      19.219  -1.445  32.732  1.00  0.00     0.067 A 
HETATM   19  C2  UNK     1      19.288  -0.538  31.674  1.00  0.00     0.092 A 
HETATM   20  C1  UNK     1      18.861   0.785  31.796  1.00  0.00     0.004 A 
HETATM   21  O1  UNK     1      19.815  -1.024  30.461  1.00  0.00    -0.275 OA
HETATM   22  C3  UNK     1      18.971   1.671  30.629  1.00  0.00    -0.043 A 
HETATM   23  C5  UNK     1      18.349   1.190  33.036  1.00  0.00     0.017 A 
HETATM   24  C9  UNK     1      18.521   3.100  30.730  1.00  0.00     0.049 C 
HETATM   25  C8  UNK     1      19.475   1.182  29.488  1.00  0.00     0.090 A 
HETATM   26  C10 UNK     1      19.929  -0.211  29.343  1.00  0.00     0.288 A 
HETATM   27  O2  UNK     1      20.385  -0.624  28.282  1.00  0.00    -0.260 OA
HETATM   28  C7  UNK     1      18.272   0.292  34.106  1.00  0.00     0.030 A 
ENDBRANCH   1  17
TORSDOF 5
ENDMDL
MODEL 6
REMARK VINA RESULT:      -9.0      4.916      6.988
REMARK  5 active torsions:
REMARK  status: ('A' for Active; 'I' for Inactive)
REMARK    1  A    between atoms: C11_20  and  N1_7 
REMARK    2  A    between atoms: C4_13  and  N1_7 
REMARK    3  A    between atoms: C11_20  and  N2_8 
REMARK    4  A    between atoms: N2_8  and  N3_9 
REMARK       I    between atoms: C13_22  and  N3_9 
REMARK    5  A    between atoms: C12_21  and  C13_22 
ROOT
HETATM    1  N1  UNK     1      20.368  -3.080  36.713  1.00  0.00    -0.332 N 
HETATM    2  H8  UNK     1      20.986  -2.532  37.307  1.00  0.00     0.168 HD
ENDROOT
BRANCH   1   3
HETATM    3  C11 UNK     1      19.765  -2.321  35.694  1.00  0.00     0.191 C 
HETATM    4  S2  UNK     1      18.745  -0.997  35.837  1.00  0.00    -0.039 SA
BRANCH   3   5
HETATM    5  N2  UNK     1      20.046  -2.765  34.407  1.00  0.00    -0.273 N 
HETATM    6  H9  UNK     1      20.401  -3.700  34.231  1.00  0.00     0.189 HD
BRANCH   5   7
HETATM    7  N3  UNK     1      19.833  -1.968  33.305  1.00  0.00    -0.263 N 
HETATM    8  C13 UNK     1      20.524  -2.242  32.133  1.00  0.00     0.277 C 
HETATM    9  O3  UNK     1      21.323  -3.176  32.043  1.00  0.00    -0.265 OA
HETATM   10  H10 UNK     1      19.099  -1.273  33.386  1.00  0.00     0.190 HD
BRANCH   8  11
HETATM   11  C12 UNK     1      20.219  -1.357  31.000  1.00  0.00     0.075 A 
HETATM   12  S1  UNK     1      19.407   0.092  31.323  1.00  0.00    -0.072 SA
HETATM   13  C16 UNK     1      19.429   0.495  29.659  1.00  0.00     0.075 A 
HETATM   14  C15 UNK     1      20.049  -0.475  28.900  1.00  0.00     0.033 A 
HETATM   15 Cl1  UNK     1      18.732   1.965  29.119  1.00  0.00    -0.076 Cl
HETATM   16  C14 UNK     1      20.511  -1.563  29.696  1.00  0.00     0.027 A 
ENDBRANCH   8  11
ENDBRANCH   5   7
ENDBRANCH   3   5
ENDBRANCH   1   3
BRANCH   1  17
HETATM   17  C4  UNK     1      20.249  -4.406  37.130  1.00  0.00     0.037 A 
HETATM   18  C6  UNK     1      21.194  -4.955  37.991  1.00  0.00     0.067 A 
HETATM   19  C2  UNK     1      21.054  -6.283  38.397  1.00  0.00     0.092 A 
HETATM   20  C1  UNK     1      19.996  -7.086  37.970  1.00  0.00     0.004 A 
HETATM   21  O1  UNK     1      22.042  -6.782  39.269  1.00  0.00    -0.275 OA
HETATM   22  C3  UNK     1      19.927  -8.474  38.449  1.00  0.00    -0.043 A 
HETATM   23  C5  UNK     1      19.055  -6.514  37.104  1.00  0.00     0.017 A 
HETATM   24  C9  UNK     1      18.801  -9.363  38.006  1.00  0.00     0.049 C 
HETATM   25  C8  UNK     1      20.880  -8.922  39.279  1.00  0.00     0.090 A 
HETATM   26  C10 UNK     1      22.003  -8.087  39.738  1.00  0.00     0.288 A 
HETATM   27  O2  UNK     1      22.856  -8.531  40.498  1.00  0.00    -0.260 OA
HETATM   28  C7  UNK     1      19.180  -5.184  36.689  1.00  0.00     0.030 A 
ENDBRANCH   1  17
TORSDOF 5
ENDMDL
MODEL 7
REMARK VINA RESULT:      -8.8      5.847      7.615
REMARK  5 active torsions:
REMARK  status: ('A' for Active; 'I' for Inactive)
REMARK    1  A    between atoms: C11_20  and  N1_7 
REMARK    2  A    between atoms: C4_13  and  N1_7 
REMARK    3  A    between atoms: C11_20  and  N2_8 
REMARK    4  A    between atoms: N2_8  and  N3_9 
REMARK       I    between atoms: C13_22  and  N3_9 
REMARK    5  A    between atoms: C12_21  and  C13_22 
ROOT
HETATM    1  N1  UNK     1      18.392  -5.092  36.663  1.00  0.00    -0.332 N 
HETATM    2  H8  UNK     1      17.377  -5.156  36.650  1.00  0.00     0.168 HD
ENDROOT
BRANCH   1   3
HETATM    3  C11 UNK     1      18.860  -3.770  36.756  1.00  0.00     0.191 C 
HETATM    4  S2  UNK     1      20.437  -3.226  36.935  1.00  0.00    -0.039 SA
BRANCH   3   5
HETATM    5  N2  UNK     1      17.860  -2.805  36.719  1.00  0.00    -0.273 N 
HETATM    6  H9  UNK     1      17.012  -2.894  37.270  1.00  0.00     0.189 HD
BRANCH   5   7
HETATM    7  N3  UNK     1      17.982  -1.667  35.953  1.00  0.00    -0.263 N 
HETATM    8  C13 UNK     1      17.972  -0.429  36.581  1.00  0.00     0.277 C 
HETATM    9  O3  UNK     1      17.859  -0.311  37.802  1.00  0.00    -0.265 OA
HETATM   10  H10 UNK     1      18.170  -1.806  34.966  1.00  0.00     0.190 HD
BRANCH   8  11
HETATM   11  C12 UNK     1      18.130   0.729  35.691  1.00  0.00     0.075 A 
HETATM   12  S1  UNK     1      17.874   0.498  34.035  1.00  0.00    -0.072 SA
HETATM   13  C16 UNK     1      18.221   2.147  33.733  1.00  0.00     0.075 A 
HETATM   14  C15 UNK     1      18.522   2.832  34.890  1.00  0.00     0.033 A 
HETATM   15 Cl1  UNK     1      18.164   2.761  32.133  1.00  0.00    -0.076 Cl
HETATM   16  C14 UNK     1      18.467   1.991  36.039  1.00  0.00     0.027 A 
ENDBRANCH   8  11
ENDBRANCH   5   7
ENDBRANCH   3   5
ENDBRANCH   1   3
BRANCH   1  17
HETATM   17  C4  UNK     1      19.016  -6.331  36.514  1.00  0.00     0.037 A 
HETATM   18  C6  UNK     1      18.711  -7.376  37.380  1.00  0.00     0.067 A 
HETATM   19  C2  UNK     1      19.346  -8.607  37.211  1.00  0.00     0.092 A 
HETATM   20  C1  UNK     1      20.281  -8.831  36.199  1.00  0.00     0.004 A 
HETATM   21  O1  UNK     1      18.996  -9.626  38.119  1.00  0.00    -0.275 OA
HETATM   22  C3  UNK     1      20.900 -10.160  36.096  1.00  0.00    -0.043 A 
HETATM   23  C5  UNK     1      20.573  -7.766  35.338  1.00  0.00     0.017 A 
HETATM   24  C9  UNK     1      21.911 -10.432  35.019  1.00  0.00     0.049 C 
HETATM   25  C8  UNK     1      20.548 -11.111  36.972  1.00  0.00     0.090 A 
HETATM   26  C10 UNK     1      19.563 -10.890  38.044  1.00  0.00     0.288 A 
HETATM   27  O2  UNK     1      19.265 -11.784  38.828  1.00  0.00    -0.260 OA
HETATM   28  C7  UNK     1      19.944  -6.526  35.493  1.00  0.00     0.030 A 
ENDBRANCH   1  17
TORSDOF 5
ENDMDL
MODEL 8
REMARK VINA RESULT:      -8.8      5.250      9.110
REMARK  5 active torsions:
REMARK  status: ('A' for Active; 'I' for Inactive)
REMARK    1  A    between atoms: C11_20  and  N1_7 
REMARK    2  A    between atoms: C4_13  and  N1_7 
REMARK    3  A    between atoms: C11_20  and  N2_8 
REMARK    4  A    between atoms: N2_8  and  N3_9 
REMARK       I    between atoms: C13_22  and  N3_9 
REMARK    5  A    between atoms: C12_21  and  C13_22 
ROOT
HETATM    1  N1  UNK     1      18.237  -1.715  35.286  1.00  0.00    -0.332 N 
HETATM    2  H8  UNK     1      17.612  -2.506  35.151  1.00  0.00     0.168 HD
ENDROOT
BRANCH   1   3
HETATM    3  C11 UNK     1      18.613  -1.532  36.629  1.00  0.00     0.191 C 
HETATM    4  S2  UNK     1      17.912  -0.542  37.788  1.00  0.00    -0.039 SA
BRANCH   3   5
HETATM    5  N2  UNK     1      19.733  -2.259  37.014  1.00  0.00    -0.273 N 
HETATM    6  H9  UNK     1      20.668  -1.868  36.955  1.00  0.00     0.189 HD
BRANCH   5   7
HETATM    7  N3  UNK     1      19.628  -3.536  37.516  1.00  0.00    -0.263 N 
HETATM    8  C13 UNK     1      19.877  -4.613  36.675  1.00  0.00     0.277 C 
HETATM    9  O3  UNK     1      20.191  -4.465  35.493  1.00  0.00    -0.265 OA
HETATM   10  H10 UNK     1      19.464  -3.617  38.513  1.00  0.00     0.190 HD
BRANCH   8  11
HETATM   11  C12 UNK     1      19.765  -5.938  37.299  1.00  0.00     0.075 A 
HETATM   12  S1  UNK     1      21.124  -6.556  38.096  1.00  0.00    -0.072 SA
HETATM   13  C16 UNK     1      20.262  -7.980  38.498  1.00  0.00     0.075 A 
HETATM   14  C15 UNK     1      18.970  -7.954  38.021  1.00  0.00     0.033 A 
HETATM   15 Cl1  UNK     1      21.026  -9.224  39.397  1.00  0.00    -0.076 Cl
HETATM   16  C14 UNK     1      18.684  -6.749  37.316  1.00  0.00     0.027 A 
ENDBRANCH   8  11
ENDBRANCH   5   7
ENDBRANCH   3   5
ENDBRANCH   1   3
BRANCH   1  17
HETATM   17  C4  UNK     1      18.478  -1.005  34.109  1.00  0.00     0.037 A 
HETATM   18  C6  UNK     1      18.085   0.324  34.003  1.00  0.00     0.067 A 
HETATM   19  C2  UNK     1      18.337   1.015  32.816  1.00  0.00     0.092 A 
HETATM   20  C1  UNK     1      18.973   0.419  31.726  1.00  0.00     0.004 A 
HETATM   21  O1  UNK     1      17.915   2.359  32.768  1.00  0.00    -0.275 OA
HETATM   22  C3  UNK     1      19.198   1.223  30.517  1.00  0.00    -0.043 A 
HETATM   23  C5  UNK     1      19.361  -0.921  31.855  1.00  0.00     0.017 A 
HETATM   24  C9  UNK     1      19.878   0.609  29.327  1.00  0.00     0.049 C 
HETATM   25  C8  UNK     1      18.787   2.499  30.499  1.00  0.00     0.090 A 
HETATM   26  C10 UNK     1      18.116   3.142  31.641  1.00  0.00     0.288 A 
HETATM   27  O2  UNK     1      17.754   4.312  31.589  1.00  0.00    -0.260 OA
HETATM   28  C7  UNK     1      19.116  -1.627  33.038  1.00  0.00     0.030 A 
ENDBRANCH   1  17
TORSDOF 5
ENDMDL
MODEL 9
REMARK VINA RESULT:      -8.8      5.507      9.588
REMARK  5 active torsions:
REMARK  status: ('A' for Active; 'I' for Inactive)
REMARK    1  A    between atoms: C11_20  and  N1_7 
REMARK    2  A    between atoms: C4_13  and  N1_7 
REMARK    3  A    between atoms: C11_20  and  N2_8 
REMARK    4  A    between atoms: N2_8  and  N3_9 
REMARK       I    between atoms: C13_22  and  N3_9 
REMARK    5  A    between atoms: C12_21  and  C13_22 
ROOT
HETATM    1  N1  UNK     1      18.018  -1.637  35.628  1.00  0.00    -0.332 N 
HETATM    2  H8  UNK     1      17.086  -1.773  36.011  1.00  0.00     0.168 HD
ENDROOT
BRANCH   1   3
HETATM    3  C11 UNK     1      18.958  -2.558  36.124  1.00  0.00     0.191 C 
HETATM    4  S2  UNK     1      20.633  -2.470  36.087  1.00  0.00    -0.039 SA
BRANCH   3   5
HETATM    5  N2  UNK     1      18.398  -3.696  36.693  1.00  0.00    -0.273 N 
HETATM    6  H9  UNK     1      17.489  -3.675  37.143  1.00  0.00     0.189 HD
BRANCH   5   7
HETATM    7  N3  UNK     1      19.039  -4.914  36.650  1.00  0.00    -0.263 N 
HETATM    8  C13 UNK     1      18.276  -6.074  36.628  1.00  0.00     0.277 C 
HETATM    9  O3  UNK     1      17.045  -6.053  36.643  1.00  0.00    -0.265 OA
HETATM   10  H10 UNK     1      20.046  -4.891  36.541  1.00  0.00     0.190 HD
BRANCH   8  11
HETATM   11  C12 UNK     1      19.040  -7.328  36.559  1.00  0.00     0.075 A 
HETATM   12  S1  UNK     1      20.169  -7.501  35.311  1.00  0.00    -0.072 SA
HETATM   13  C16 UNK     1      20.580  -9.064  35.875  1.00  0.00     0.075 A 
HETATM   14  C15 UNK     1      19.855  -9.417  36.992  1.00  0.00     0.033 A 
HETATM   15 Cl1  UNK     1      21.774  -9.987  35.063  1.00  0.00    -0.076 Cl
HETATM   16  C14 UNK     1      18.949  -8.391  37.389  1.00  0.00     0.027 A 
ENDBRANCH   8  11
ENDBRANCH   5   7
ENDBRANCH   3   5
ENDBRANCH   1   3
BRANCH   1  17
HETATM   17  C4  UNK     1      18.101  -0.533  34.779  1.00  0.00     0.037 A 
HETATM   18  C6  UNK     1      18.464  -0.701  33.448  1.00  0.00     0.067 A 
HETATM   19  C2  UNK     1      18.539   0.418  32.616  1.00  0.00     0.092 A 
HETATM   20  C1  UNK     1      18.262   1.707  33.073  1.00  0.00     0.004 A 
HETATM   21  O1  UNK     1      18.913   0.184  31.278  1.00  0.00    -0.275 OA
HETATM   22  C3  UNK     1      18.366   2.827  32.127  1.00  0.00    -0.043 A 
HETATM   23  C5  UNK     1      17.897   1.854  34.418  1.00  0.00     0.017 A 
HETATM   24  C9  UNK     1      18.075   4.226  32.589  1.00  0.00     0.049 C 
HETATM   25  C8  UNK     1      18.722   2.575  30.860  1.00  0.00     0.090 A 
HETATM   26  C10 UNK     1      19.018   1.221  30.362  1.00  0.00     0.288 A 
HETATM   27  O2  UNK     1      19.341   1.029  29.196  1.00  0.00    -0.260 OA
HETATM   28  C7  UNK     1      17.817   0.743  35.264  1.00  0.00     0.030 A 
ENDBRANCH   1  17
TORSDOF 5
ENDMDL
MODEL 10
REMARK VINA RESULT:      -8.7      4.556      8.931
REMARK  5 active torsions:
REMARK  status: ('A' for Active; 'I' for Inactive)
REMARK    1  A    between atoms: C11_20  and  N1_7 
REMARK    2  A    between atoms: C4_13  and  N1_7 
REMARK    3  A    between atoms: C11_20  and  N2_8 
REMARK    4  A    between atoms: N2_8  and  N3_9 
REMARK       I    between atoms: C13_22  and  N3_9 
REMARK    5  A    between atoms: C12_21  and  C13_22 
ROOT
HETATM    1  N1  UNK     1      17.897   5.452  31.938  1.00  0.00    -0.332 N 
HETATM    2  H8  UNK     1      17.546   4.623  32.410  1.00  0.00     0.168 HD
ENDROOT
BRANCH   1   3
HETATM    3  C11 UNK     1      18.975   5.181  31.076  1.00  0.00     0.191 C 
HETATM    4  S2  UNK     1      20.477   5.924  31.010  1.00  0.00    -0.039 SA
BRANCH   3   5
HETATM    5  N2  UNK     1      18.725   4.178  30.147  1.00  0.00    -0.273 N 
HETATM    6  H9  UNK     1      18.107   4.326  29.356  1.00  0.00     0.189 HD
BRANCH   5   7
HETATM    7  N3  UNK     1      19.324   2.942  30.240  1.00  0.00    -0.263 N 
HETATM    8  C13 UNK     1      18.625   1.822  29.811  1.00  0.00     0.277 C 
HETATM    9  O3  UNK     1      17.486   1.895  29.347  1.00  0.00    -0.265 OA
HETATM   10  H10 UNK     1      20.294   2.931  30.533  1.00  0.00     0.190 HD
BRANCH   8  11
HETATM   11  C12 UNK     1      19.348   0.547  29.923  1.00  0.00     0.075 A 
HETATM   12  S1  UNK     1      19.469  -0.163  31.454  1.00  0.00    -0.072 SA
HETATM   13  C16 UNK     1      20.360  -1.469  30.797  1.00  0.00     0.075 A 
HETATM   14  C15 UNK     1      20.544  -1.337  29.438  1.00  0.00     0.033 A 
HETATM   15 Cl1  UNK     1      20.904  -2.738  31.813  1.00  0.00    -0.076 Cl
HETATM   16  C14 UNK     1      19.946  -0.148  28.930  1.00  0.00     0.027 A 
ENDBRANCH   8  11
ENDBRANCH   5   7
ENDBRANCH   3   5
ENDBRANCH   1   3
BRANCH   1  17
HETATM   17  C4  UNK     1      17.252   6.621  32.341  1.00  0.00     0.037 A 
HETATM   18  C6  UNK     1      17.992   7.704  32.803  1.00  0.00     0.067 A 
HETATM   19  C2  UNK     1      17.325   8.865  33.200  1.00  0.00     0.092 A 
HETATM   20  C1  UNK     1      15.936   8.980  33.150  1.00  0.00     0.004 A 
HETATM   21  O1  UNK     1      18.129   9.927  33.659  1.00  0.00    -0.275 OA
HETATM   22  C3  UNK     1      15.318  10.240  33.588  1.00  0.00    -0.043 A 
HETATM   23  C5  UNK     1      15.209   7.878  32.682  1.00  0.00     0.017 A 
HETATM   24  C9  UNK     1      13.825  10.395  33.548  1.00  0.00     0.049 C 
HETATM   25  C8  UNK     1      16.107  11.235  34.019  1.00  0.00     0.090 A 
HETATM   26  C10 UNK     1      17.575  11.128  34.077  1.00  0.00     0.288 A 
HETATM   27  O2  UNK     1      18.265  12.059  34.477  1.00  0.00    -0.260 OA
HETATM   28  C7  UNK     1      15.862   6.709  32.279  1.00  0.00     0.030 A 
ENDBRANCH   1  17
TORSDOF 5
ENDMDL
