MODEL 1
REMARK VINA RESULT:      -9.5      0.000      0.000
REMARK  7 active torsions:
REMARK  status: ('A' for Active; 'I' for Inactive)
REMARK    1  A    between atoms: C1_10  and  O4_4 
REMARK    2  A    between atoms: C25_34  and  O4_4 
REMARK    3  A    between atoms: C22_31  and  O5_5 
REMARK    4  A    between atoms: C26_35  and  O5_5 
REMARK    5  A    between atoms: C21_30  and  N1_9 
REMARK       I    between atoms: C25_34  and  N1_9 
REMARK    6  A    between atoms: C2_11  and  C3_12 
REMARK    7  A    between atoms: C21_30  and  C26_35 
ROOT
HETATM    1  O2  UNK     1      14.354  10.211   8.602  1.00  0.00    -0.313 OA
HETATM    2  O6  UNK     1      17.648   8.274   9.996  1.00  0.00    -0.286 OA
HETATM    3  C2  UNK     1      16.723  10.272   9.093  1.00  0.00     0.055 A 
HETATM    4  C5  UNK     1      15.347   8.204   9.527  1.00  0.00     0.049 A 
HETATM    5  C8  UNK     1      15.587  10.848   8.644  1.00  0.00     0.065 A 
HETATM    6  C9  UNK     1      16.659   8.861   9.576  1.00  0.00     0.198 A 
HETATM    7  C11 UNK     1      14.257   8.918   9.041  1.00  0.00     0.092 A 
HETATM    8  C19 UNK     1      15.189   6.885   9.961  1.00  0.00     0.021 A 
HETATM    9  C20 UNK     1      12.999   8.318   8.984  1.00  0.00     0.075 A 
HETATM   10  C22 UNK     1      12.836   7.002   9.416  1.00  0.00     0.082 A 
HETATM   11  C23 UNK     1      15.491  12.258   8.126  1.00  0.00     0.077 C 
HETATM   12  C24 UNK     1      13.930   6.287   9.904  1.00  0.00     0.038 A 
ENDROOT
BRANCH  10  13
HETATM   13  O5  UNK     1      11.609   6.415   9.361  1.00  0.00    -0.277 OA
BRANCH  13  14
HETATM   14  C26 UNK     1      11.475   5.433   8.366  1.00  0.00     0.286 C 
HETATM   15  O8  UNK     1      12.037   4.342   8.387  1.00  0.00    -0.263 OA
BRANCH  14  16
HETATM   16  C21 UNK     1      10.542   5.858   7.239  1.00  0.00     0.183 C 
HETATM   17  C27 UNK     1      11.322   6.580   6.152  1.00  0.00     0.043 C 
BRANCH  16  18
HETATM   18  N1  UNK     1       9.464   6.685   7.716  1.00  0.00    -0.323 N 
HETATM   19  C25 UNK     1       8.164   6.242   7.871  1.00  0.00     0.362 C 
HETATM   20  O7  UNK     1       7.763   5.109   7.631  1.00  0.00    -0.238 OA
HETATM   21  H26 UNK     1       9.673   7.636   8.004  1.00  0.00     0.165 HD
BRANCH  19  22
HETATM   22  O4  UNK     1       7.380   7.260   8.338  1.00  0.00    -0.294 OA
BRANCH  22  23
HETATM   23  C1  UNK     1       7.315   7.396   9.761  1.00  0.00     0.061 C 
HETATM   24  C15 UNK     1       7.708   6.063  10.396  1.00  0.00     0.046 C 
HETATM   25  C16 UNK     1       5.878   7.762  10.124  1.00  0.00     0.046 C 
HETATM   26  C17 UNK     1       8.276   8.505  10.188  1.00  0.00     0.046 C 
ENDBRANCH  22  23
ENDBRANCH  19  22
ENDBRANCH  16  18
ENDBRANCH  14  16
ENDBRANCH  13  14
ENDBRANCH  10  13
BRANCH   3  27
HETATM   27  C3  UNK     1      17.994  10.978   9.120  1.00  0.00    -0.017 A 
HETATM   28  C10 UNK     1      18.479  11.500  10.318  1.00  0.00     0.052 A 
HETATM   29  C4  UNK     1      19.708  12.168  10.355  1.00  0.00     0.102 A 
HETATM   30  O1  UNK     1      20.100  12.595  11.599  1.00  0.00    -0.348 OA
HETATM   31  C7  UNK     1      20.427  12.360   9.167  1.00  0.00     0.102 A 
HETATM   32  C12 UNK     1      21.509  12.531  11.818  1.00  0.00     0.178 C 
HETATM   33  C6  UNK     1      22.202  13.780  11.297  1.00  0.00     0.053 C 
HETATM   34  C13 UNK     1      21.702  14.183   9.919  1.00  0.00     0.178 C 
HETATM   35  O3  UNK     1      21.607  13.052   9.054  1.00  0.00    -0.348 OA
HETATM   36  C18 UNK     1      19.948  11.811   7.972  1.00  0.00     0.040 A 
HETATM   37  C14 UNK     1      18.734  11.124   7.948  1.00  0.00     0.015 A 
ENDBRANCH   3  27
TORSDOF 7
ENDMDL
MODEL 2
REMARK VINA RESULT:      -9.4      0.870      1.614
REMARK  7 active torsions:
REMARK  status: ('A' for Active; 'I' for Inactive)
REMARK    1  A    between atoms: C1_10  and  O4_4 
REMARK    2  A    between atoms: C25_34  and  O4_4 
REMARK    3  A    between atoms: C22_31  and  O5_5 
REMARK    4  A    between atoms: C26_35  and  O5_5 
REMARK    5  A    between atoms: C21_30  and  N1_9 
REMARK       I    between atoms: C25_34  and  N1_9 
REMARK    6  A    between atoms: C2_11  and  C3_12 
REMARK    7  A    between atoms: C21_30  and  C26_35 
ROOT
HETATM    1  O2  UNK     1      13.992  10.223   9.067  1.00  0.00    -0.313 OA
HETATM    2  O6  UNK     1      17.492   8.323   9.894  1.00  0.00    -0.286 OA
HETATM    3  C2  UNK     1      16.388  10.366   9.377  1.00  0.00     0.055 A 
HETATM    4  C5  UNK     1      15.166   8.172   9.600  1.00  0.00     0.049 A 
HETATM    5  C8  UNK     1      15.188  10.927   9.109  1.00  0.00     0.065 A 
HETATM    6  C9  UNK     1      16.441   8.899   9.646  1.00  0.00     0.198 A 
HETATM    7  C11 UNK     1      14.002   8.876   9.313  1.00  0.00     0.092 A 
HETATM    8  C19 UNK     1      15.117   6.796   9.840  1.00  0.00     0.021 A 
HETATM    9  C20 UNK     1      12.778   8.210   9.263  1.00  0.00     0.075 A 
HETATM   10  C22 UNK     1      12.722   6.837   9.503  1.00  0.00     0.082 A 
HETATM   11  C23 UNK     1      14.974  12.387   8.819  1.00  0.00     0.077 C 
HETATM   12  C24 UNK     1      13.891   6.131   9.791  1.00  0.00     0.038 A 
ENDROOT
BRANCH  10  13
HETATM   13  O5  UNK     1      11.528   6.185   9.455  1.00  0.00    -0.277 OA
BRANCH  13  14
HETATM   14  C26 UNK     1      11.404   5.272   8.396  1.00  0.00     0.286 C 
HETATM   15  O8  UNK     1      11.908   4.153   8.382  1.00  0.00    -0.263 OA
BRANCH  14  16
HETATM   16  C21 UNK     1      10.560   5.809   7.248  1.00  0.00     0.183 C 
HETATM   17  C27 UNK     1      11.433   6.575   6.265  1.00  0.00     0.043 C 
BRANCH  16  18
HETATM   18  N1  UNK     1       9.482   6.643   7.715  1.00  0.00    -0.323 N 
HETATM   19  C25 UNK     1       8.180   6.206   7.865  1.00  0.00     0.362 C 
HETATM   20  O7  UNK     1       7.775   5.073   7.627  1.00  0.00    -0.238 OA
HETATM   21  H26 UNK     1       9.694   7.594   8.001  1.00  0.00     0.165 HD
BRANCH  19  22
HETATM   22  O4  UNK     1       7.398   7.228   8.324  1.00  0.00    -0.294 OA
BRANCH  22  23
HETATM   23  C1  UNK     1       7.327   7.372   9.747  1.00  0.00     0.061 C 
HETATM   24  C15 UNK     1       7.724   6.043  10.389  1.00  0.00     0.046 C 
HETATM   25  C16 UNK     1       5.887   7.732  10.103  1.00  0.00     0.046 C 
HETATM   26  C17 UNK     1       8.281   8.487  10.170  1.00  0.00     0.046 C 
ENDBRANCH  22  23
ENDBRANCH  19  22
ENDBRANCH  16  18
ENDBRANCH  14  16
ENDBRANCH  13  14
ENDBRANCH  10  13
BRANCH   3  27
HETATM   27  C3  UNK     1      17.618  11.142   9.412  1.00  0.00    -0.017 A 
HETATM   28  C10 UNK     1      18.295  11.433   8.228  1.00  0.00     0.052 A 
HETATM   29  C4  UNK     1      19.470  12.192   8.251  1.00  0.00     0.102 A 
HETATM   30  O1  UNK     1      20.018  12.450   7.020  1.00  0.00    -0.348 OA
HETATM   31  C7  UNK     1      19.997  12.614   9.480  1.00  0.00     0.102 A 
HETATM   32  C12 UNK     1      20.636  13.734   6.918  1.00  0.00     0.178 C 
HETATM   33  C6  UNK     1      22.071  13.693   7.421  1.00  0.00     0.053 C 
HETATM   34  C13 UNK     1      22.200  12.931   8.730  1.00  0.00     0.178 C 
HETATM   35  O3  UNK     1      21.171  13.304   9.647  1.00  0.00    -0.348 OA
HETATM   36  C18 UNK     1      19.298  12.341  10.662  1.00  0.00     0.040 A 
HETATM   37  C14 UNK     1      18.114  11.606  10.628  1.00  0.00     0.015 A 
ENDBRANCH   3  27
TORSDOF 7
ENDMDL
MODEL 3
REMARK VINA RESULT:      -9.4     33.131     35.175
REMARK  7 active torsions:
REMARK  status: ('A' for Active; 'I' for Inactive)
REMARK    1  A    between atoms: C1_10  and  O4_4 
REMARK    2  A    between atoms: C25_34  and  O4_4 
REMARK    3  A    between atoms: C22_31  and  O5_5 
REMARK    4  A    between atoms: C26_35  and  O5_5 
REMARK    5  A    between atoms: C21_30  and  N1_9 
REMARK       I    between atoms: C25_34  and  N1_9 
REMARK    6  A    between atoms: C2_11  and  C3_12 
REMARK    7  A    between atoms: C21_30  and  C26_35 
ROOT
HETATM    1  O2  UNK     1      28.901  -5.860  37.663  1.00  0.00    -0.313 OA
HETATM    2  O6  UNK     1      31.168  -9.234  37.504  1.00  0.00    -0.286 OA
HETATM    3  C2  UNK     1      31.035  -6.884  37.157  1.00  0.00     0.055 A 
HETATM    4  C5  UNK     1      29.093  -8.251  38.003  1.00  0.00     0.049 A 
HETATM    5  C8  UNK     1      30.221  -5.808  37.236  1.00  0.00     0.065 A 
HETATM    6  C9  UNK     1      30.490  -8.215  37.551  1.00  0.00     0.198 A 
HETATM    7  C11 UNK     1      28.369  -7.064  38.037  1.00  0.00     0.092 A 
HETATM    8  C19 UNK     1      28.496  -9.452  38.394  1.00  0.00     0.021 A 
HETATM    9  C20 UNK     1      27.040  -7.069  38.462  1.00  0.00     0.075 A 
HETATM   10  C22 UNK     1      26.440  -8.265  38.854  1.00  0.00     0.082 A 
HETATM   11  C23 UNK     1      30.624  -4.404  36.874  1.00  0.00     0.077 C 
HETATM   12  C24 UNK     1      27.168  -9.456  38.820  1.00  0.00     0.038 A 
ENDROOT
BRANCH  10  13
HETATM   13  O5  UNK     1      25.144  -8.272  39.270  1.00  0.00    -0.277 OA
BRANCH  13  14
HETATM   14  C26 UNK     1      24.198  -8.327  38.233  1.00  0.00     0.286 C 
HETATM   15  O8  UNK     1      24.408  -8.818  37.128  1.00  0.00    -0.263 OA
BRANCH  14  16
HETATM   16  C21 UNK     1      22.860  -7.712  38.621  1.00  0.00     0.183 C 
HETATM   17  C27 UNK     1      22.438  -8.194  40.000  1.00  0.00     0.043 C 
BRANCH  16  18
HETATM   18  N1  UNK     1      21.834  -8.002  37.653  1.00  0.00    -0.323 N 
HETATM   19  C25 UNK     1      21.180  -7.037  36.910  1.00  0.00     0.362 C 
HETATM   20  O7  UNK     1      21.383  -5.829  36.973  1.00  0.00    -0.238 OA
HETATM   21  H26 UNK     1      21.607  -8.974  37.463  1.00  0.00     0.165 HD
BRANCH  19  22
HETATM   22  O4  UNK     1      20.265  -7.628  36.085  1.00  0.00    -0.294 OA
BRANCH  22  23
HETATM   23  C1  UNK     1      18.971  -7.861  36.652  1.00  0.00     0.061 C 
HETATM   24  C15 UNK     1      18.836  -7.016  37.919  1.00  0.00     0.046 C 
HETATM   25  C16 UNK     1      18.874  -9.348  36.984  1.00  0.00     0.046 C 
HETATM   26  C17 UNK     1      17.912  -7.469  35.622  1.00  0.00     0.046 C 
ENDBRANCH  22  23
ENDBRANCH  19  22
ENDBRANCH  16  18
ENDBRANCH  14  16
ENDBRANCH  13  14
ENDBRANCH  10  13
BRANCH   3  27
HETATM   27  C3  UNK     1      32.414  -6.783  36.704  1.00  0.00    -0.017 A 
HETATM   28  C10 UNK     1      32.735  -7.058  35.375  1.00  0.00     0.052 A 
HETATM   29  C4  UNK     1      34.056  -6.949  34.928  1.00  0.00     0.102 A 
HETATM   30  O1  UNK     1      34.239  -7.200  33.591  1.00  0.00    -0.348 OA
HETATM   31  C7  UNK     1      35.069  -6.615  35.838  1.00  0.00     0.102 A 
HETATM   32  C12 UNK     1      35.252  -6.397  32.984  1.00  0.00     0.178 C 
HETATM   33  C6  UNK     1      36.628  -7.017  33.170  1.00  0.00     0.053 C 
HETATM   34  C13 UNK     1      36.850  -7.506  34.593  1.00  0.00     0.178 C 
HETATM   35  O3  UNK     1      36.408  -6.539  35.545  1.00  0.00    -0.348 OA
HETATM   36  C18 UNK     1      34.736  -6.314  37.163  1.00  0.00     0.040 A 
HETATM   37  C14 UNK     1      33.414  -6.400  37.595  1.00  0.00     0.015 A 
ENDBRANCH   3  27
TORSDOF 7
ENDMDL
MODEL 4
REMARK VINA RESULT:      -9.2     32.806     35.996
REMARK  7 active torsions:
REMARK  status: ('A' for Active; 'I' for Inactive)
REMARK    1  A    between atoms: C1_10  and  O4_4 
REMARK    2  A    between atoms: C25_34  and  O4_4 
REMARK    3  A    between atoms: C22_31  and  O5_5 
REMARK    4  A    between atoms: C26_35  and  O5_5 
REMARK    5  A    between atoms: C21_30  and  N1_9 
REMARK       I    between atoms: C25_34  and  N1_9 
REMARK    6  A    between atoms: C2_11  and  C3_12 
REMARK    7  A    between atoms: C21_30  and  C26_35 
ROOT
HETATM    1  O2  UNK     1      28.090  -8.208  38.636  1.00  0.00    -0.313 OA
HETATM    2  O6  UNK     1      25.263  -5.285  38.737  1.00  0.00    -0.286 OA
HETATM    3  C2  UNK     1      25.745  -7.615  38.705  1.00  0.00     0.055 A 
HETATM    4  C5  UNK     1      27.544  -5.848  38.674  1.00  0.00     0.049 A 
HETATM    5  C8  UNK     1      26.740  -8.529  38.670  1.00  0.00     0.065 A 
HETATM    6  C9  UNK     1      26.111  -6.169  38.707  1.00  0.00     0.198 A 
HETATM    7  C11 UNK     1      28.463  -6.891  38.641  1.00  0.00     0.092 A 
HETATM    8  C19 UNK     1      27.982  -4.521  38.675  1.00  0.00     0.021 A 
HETATM    9  C20 UNK     1      29.830  -6.615  38.609  1.00  0.00     0.075 A 
HETATM   10  C22 UNK     1      30.273  -5.293  38.611  1.00  0.00     0.082 A 
HETATM   11  C23 UNK     1      26.531 -10.019  38.663  1.00  0.00     0.077 C 
HETATM   12  C24 UNK     1      29.350  -4.247  38.644  1.00  0.00     0.038 A 
ENDROOT
BRANCH  10  13
HETATM   13  O5  UNK     1      31.607  -5.022  38.580  1.00  0.00    -0.277 OA
BRANCH  13  14
HETATM   14  C26 UNK     1      32.299  -5.618  37.514  1.00  0.00     0.286 C 
HETATM   15  O8  UNK     1      32.990  -6.628  37.613  1.00  0.00    -0.263 OA
BRANCH  14  16
HETATM   16  C21 UNK     1      32.102  -4.882  36.195  1.00  0.00     0.183 C 
HETATM   17  C27 UNK     1      32.214  -3.381  36.407  1.00  0.00     0.043 C 
BRANCH  16  18
HETATM   18  N1  UNK     1      30.841  -5.209  35.580  1.00  0.00    -0.323 N 
HETATM   19  C25 UNK     1      30.609  -6.371  34.869  1.00  0.00     0.362 C 
HETATM   20  O7  UNK     1      31.427  -7.263  34.673  1.00  0.00    -0.238 OA
HETATM   21  H26 UNK     1      30.057  -4.577  35.715  1.00  0.00     0.165 HD
BRANCH  19  22
HETATM   22  O4  UNK     1      29.321  -6.386  34.413  1.00  0.00    -0.294 OA
BRANCH  22  23
HETATM   23  C1  UNK     1      29.162  -6.367  32.990  1.00  0.00     0.061 C 
HETATM   24  C15 UNK     1      30.154  -5.362  32.404  1.00  0.00     0.046 C 
HETATM   25  C16 UNK     1      27.726  -5.942  32.692  1.00  0.00     0.046 C 
HETATM   26  C17 UNK     1      29.430  -7.772  32.452  1.00  0.00     0.046 C 
ENDBRANCH  22  23
ENDBRANCH  19  22
ENDBRANCH  16  18
ENDBRANCH  14  16
ENDBRANCH  13  14
ENDBRANCH  10  13
BRANCH   3  27
HETATM   27  C3  UNK     1      24.342  -7.996  38.741  1.00  0.00    -0.017 A 
HETATM   28  C10 UNK     1      23.687  -8.364  37.567  1.00  0.00     0.052 A 
HETATM   29  C4  UNK     1      22.341  -8.747  37.595  1.00  0.00     0.102 A 
HETATM   30  O1  UNK     1      21.822  -9.131  36.385  1.00  0.00    -0.348 OA
HETATM   31  C7  UNK     1      21.635  -8.704  38.805  1.00  0.00     0.102 A 
HETATM   32  C12 UNK     1      20.861 -10.184  36.474  1.00  0.00     0.178 C 
HETATM   33  C6  UNK     1      19.472  -9.636  36.766  1.00  0.00     0.053 C 
HETATM   34  C13 UNK     1      19.490  -8.579  37.859  1.00  0.00     0.178 C 
HETATM   35  O3  UNK     1      20.301  -8.988  38.959  1.00  0.00    -0.348 OA
HETATM   36  C18 UNK     1      22.305  -8.359  39.985  1.00  0.00     0.040 A 
HETATM   37  C14 UNK     1      23.653  -8.004  39.953  1.00  0.00     0.015 A 
ENDBRANCH   3  27
TORSDOF 7
ENDMDL
MODEL 5
REMARK VINA RESULT:      -9.1     26.532     28.811
REMARK  7 active torsions:
REMARK  status: ('A' for Active; 'I' for Inactive)
REMARK    1  A    between atoms: C1_10  and  O4_4 
REMARK    2  A    between atoms: C25_34  and  O4_4 
REMARK    3  A    between atoms: C22_31  and  O5_5 
REMARK    4  A    between atoms: C26_35  and  O5_5 
REMARK    5  A    between atoms: C21_30  and  N1_9 
REMARK       I    between atoms: C25_34  and  N1_9 
REMARK    6  A    between atoms: C2_11  and  C3_12 
REMARK    7  A    between atoms: C21_30  and  C26_35 
ROOT
HETATM    1  O2  UNK     1      18.043  -0.242  35.785  1.00  0.00    -0.313 OA
HETATM    2  O6  UNK     1      20.340  -2.929  33.772  1.00  0.00    -0.286 OA
HETATM    3  C2  UNK     1      19.255  -2.337  35.805  1.00  0.00     0.055 A 
HETATM    4  C5  UNK     1      19.163  -0.895  33.739  1.00  0.00     0.049 A 
HETATM    5  C8  UNK     1      18.491  -1.400  36.408  1.00  0.00     0.065 A 
HETATM    6  C9  UNK     1      19.648  -2.123  34.382  1.00  0.00     0.198 A 
HETATM    7  C11 UNK     1      18.381  -0.015  34.478  1.00  0.00     0.092 A 
HETATM    8  C19 UNK     1      19.479  -0.610  32.407  1.00  0.00     0.021 A 
HETATM    9  C20 UNK     1      17.907   1.159  33.892  1.00  0.00     0.075 A 
HETATM   10  C22 UNK     1      18.218   1.447  32.564  1.00  0.00     0.082 A 
HETATM   11  C23 UNK     1      18.016  -1.472  37.834  1.00  0.00     0.077 C 
HETATM   12  C24 UNK     1      19.003   0.564  31.823  1.00  0.00     0.038 A 
ENDROOT
BRANCH  10  13
HETATM   13  O5  UNK     1      17.756   2.592  31.990  1.00  0.00    -0.277 OA
BRANCH  13  14
HETATM   14  C26 UNK     1      18.148   3.772  32.643  1.00  0.00     0.286 C 
HETATM   15  O8  UNK     1      18.447   3.841  33.832  1.00  0.00    -0.263 OA
BRANCH  14  16
HETATM   16  C21 UNK     1      18.174   4.980  31.716  1.00  0.00     0.183 C 
HETATM   17  C27 UNK     1      19.408   4.936  30.828  1.00  0.00     0.043 C 
BRANCH  16  18
HETATM   18  N1  UNK     1      18.126   6.220  32.446  1.00  0.00    -0.323 N 
HETATM   19  C25 UNK     1      17.490   7.359  31.990  1.00  0.00     0.362 C 
HETATM   20  O7  UNK     1      16.891   7.463  30.924  1.00  0.00    -0.238 OA
HETATM   21  H26 UNK     1      18.539   6.254  33.374  1.00  0.00     0.165 HD
BRANCH  19  22
HETATM   22  O4  UNK     1      17.623   8.364  32.906  1.00  0.00    -0.294 OA
BRANCH  22  23
HETATM   23  C1  UNK     1      16.575   8.468  33.876  1.00  0.00     0.061 C 
HETATM   24  C15 UNK     1      15.328   7.781  33.320  1.00  0.00     0.046 C 
HETATM   25  C16 UNK     1      16.311   9.953  34.112  1.00  0.00     0.046 C 
HETATM   26  C17 UNK     1      17.039   7.792  35.166  1.00  0.00     0.046 C 
ENDBRANCH  22  23
ENDBRANCH  19  22
ENDBRANCH  16  18
ENDBRANCH  14  16
ENDBRANCH  13  14
ENDBRANCH  10  13
BRANCH   3  27
HETATM   27  C3  UNK     1      19.702  -3.537  36.496  1.00  0.00    -0.017 A 
HETATM   28  C10 UNK     1      18.922  -4.692  36.466  1.00  0.00     0.052 A 
HETATM   29  C4  UNK     1      19.352  -5.855  37.115  1.00  0.00     0.102 A 
HETATM   30  O1  UNK     1      18.521  -6.938  36.974  1.00  0.00    -0.348 OA
HETATM   31  C7  UNK     1      20.547  -5.837  37.848  1.00  0.00     0.102 A 
HETATM   32  C12 UNK     1      19.208  -8.188  36.897  1.00  0.00     0.178 C 
HETATM   33  C6  UNK     1      19.501  -8.739  38.284  1.00  0.00     0.053 C 
HETATM   34  C13 UNK     1      20.044  -7.673  39.223  1.00  0.00     0.178 C 
HETATM   35  O3  UNK     1      21.046  -6.883  38.582  1.00  0.00    -0.348 OA
HETATM   36  C18 UNK     1      21.337  -4.682  37.853  1.00  0.00     0.040 A 
HETATM   37  C14 UNK     1      20.915  -3.535  37.181  1.00  0.00     0.015 A 
ENDBRANCH   3  27
TORSDOF 7
ENDMDL
MODEL 6
REMARK VINA RESULT:      -9.0     24.084     25.945
REMARK  7 active torsions:
REMARK  status: ('A' for Active; 'I' for Inactive)
REMARK    1  A    between atoms: C1_10  and  O4_4 
REMARK    2  A    between atoms: C25_34  and  O4_4 
REMARK    3  A    between atoms: C22_31  and  O5_5 
REMARK    4  A    between atoms: C26_35  and  O5_5 
REMARK    5  A    between atoms: C21_30  and  N1_9 
REMARK       I    between atoms: C25_34  and  N1_9 
REMARK    6  A    between atoms: C2_11  and  C3_12 
REMARK    7  A    between atoms: C21_30  and  C26_35 
ROOT
HETATM    1  O2  UNK     1      15.459   6.512  32.210  1.00  0.00    -0.313 OA
HETATM    2  O6  UNK     1      17.849   9.406  33.778  1.00  0.00    -0.286 OA
HETATM    3  C2  UNK     1      15.639   8.664  33.305  1.00  0.00     0.055 A 
HETATM    4  C5  UNK     1      17.687   7.315  32.719  1.00  0.00     0.049 A 
HETATM    5  C8  UNK     1      14.911   7.661  32.765  1.00  0.00     0.065 A 
HETATM    6  C9  UNK     1      17.125   8.538  33.308  1.00  0.00     0.198 A 
HETATM    7  C11 UNK     1      16.819   6.361  32.199  1.00  0.00     0.092 A 
HETATM    8  C19 UNK     1      19.069   7.107  32.679  1.00  0.00     0.021 A 
HETATM    9  C20 UNK     1      17.326   5.190  31.634  1.00  0.00     0.075 A 
HETATM   10  C22 UNK     1      18.704   4.978  31.593  1.00  0.00     0.082 A 
HETATM   11  C23 UNK     1      13.409   7.643  32.687  1.00  0.00     0.077 C 
HETATM   12  C24 UNK     1      19.574   5.936  32.114  1.00  0.00     0.038 A 
ENDROOT
BRANCH  10  13
HETATM   13  O5  UNK     1      19.200   3.836  31.042  1.00  0.00    -0.277 OA
BRANCH  13  14
HETATM   14  C26 UNK     1      18.364   2.715  31.168  1.00  0.00     0.286 C 
HETATM   15  O8  UNK     1      17.386   2.496  30.460  1.00  0.00    -0.263 OA
BRANCH  14  16
HETATM   16  C21 UNK     1      18.801   1.775  32.284  1.00  0.00     0.183 C 
HETATM   17  C27 UNK     1      18.947   0.358  31.753  1.00  0.00     0.043 C 
BRANCH  16  18
HETATM   18  N1  UNK     1      17.889   1.801  33.398  1.00  0.00    -0.323 N 
HETATM   19  C25 UNK     1      18.197   1.325  34.657  1.00  0.00     0.362 C 
HETATM   20  O7  UNK     1      19.268   0.828  34.990  1.00  0.00    -0.238 OA
HETATM   21  H26 UNK     1      16.981   2.240  33.271  1.00  0.00     0.165 HD
BRANCH  19  22
HETATM   22  O4  UNK     1      17.126   1.490  35.491  1.00  0.00    -0.294 OA
BRANCH  22  23
HETATM   23  C1  UNK     1      16.554   0.288  36.018  1.00  0.00     0.061 C 
HETATM   24  C15 UNK     1      15.128   0.589  36.477  1.00  0.00     0.046 C 
HETATM   25  C16 UNK     1      17.416  -0.154  37.198  1.00  0.00     0.046 C 
HETATM   26  C17 UNK     1      16.560  -0.775  34.920  1.00  0.00     0.046 C 
ENDBRANCH  22  23
ENDBRANCH  19  22
ENDBRANCH  16  18
ENDBRANCH  14  16
ENDBRANCH  13  14
ENDBRANCH  10  13
BRANCH   3  27
HETATM   27  C3  UNK     1      15.022   9.850  33.877  1.00  0.00    -0.017 A 
HETATM   28  C10 UNK     1      14.782   9.921  35.248  1.00  0.00     0.052 A 
HETATM   29  C4  UNK     1      14.203  11.065  35.809  1.00  0.00     0.102 A 
HETATM   30  O1  UNK     1      14.060  11.034  37.173  1.00  0.00    -0.348 OA
HETATM   31  C7  UNK     1      13.811  12.121  34.975  1.00  0.00     0.102 A 
HETATM   32  C12 UNK     1      14.243  12.301  37.805  1.00  0.00     0.178 C 
HETATM   33  C6  UNK     1      12.952  13.106  37.803  1.00  0.00     0.053 C 
HETATM   34  C13 UNK     1      12.251  13.065  36.455  1.00  0.00     0.178 C 
HETATM   35  O3  UNK     1      13.176  13.266  35.386  1.00  0.00    -0.348 OA
HETATM   36  C18 UNK     1      14.079  12.055  33.603  1.00  0.00     0.040 A 
HETATM   37  C14 UNK     1      14.680  10.922  33.055  1.00  0.00     0.015 A 
ENDBRANCH   3  27
TORSDOF 7
ENDMDL
MODEL 7
REMARK VINA RESULT:      -9.0     33.739     36.896
REMARK  7 active torsions:
REMARK  status: ('A' for Active; 'I' for Inactive)
REMARK    1  A    between atoms: C1_10  and  O4_4 
REMARK    2  A    between atoms: C25_34  and  O4_4 
REMARK    3  A    between atoms: C22_31  and  O5_5 
REMARK    4  A    between atoms: C26_35  and  O5_5 
REMARK    5  A    between atoms: C21_30  and  N1_9 
REMARK       I    between atoms: C25_34  and  N1_9 
REMARK    6  A    between atoms: C2_11  and  C3_12 
REMARK    7  A    between atoms: C21_30  and  C26_35 
ROOT
HETATM    1  O2  UNK     1      27.834  -8.485  38.334  1.00  0.00    -0.313 OA
HETATM    2  O6  UNK     1      25.188  -5.437  38.841  1.00  0.00    -0.286 OA
HETATM    3  C2  UNK     1      25.534  -7.778  38.594  1.00  0.00     0.055 A 
HETATM    4  C5  UNK     1      27.426  -6.111  38.593  1.00  0.00     0.049 A 
HETATM    5  C8  UNK     1      26.472  -8.736  38.426  1.00  0.00     0.065 A 
HETATM    6  C9  UNK     1      25.981  -6.358  38.689  1.00  0.00     0.198 A 
HETATM    7  C11 UNK     1      28.281  -7.194  38.421  1.00  0.00     0.092 A 
HETATM    8  C19 UNK     1      27.938  -4.813  38.673  1.00  0.00     0.021 A 
HETATM    9  C20 UNK     1      29.657  -6.988  38.327  1.00  0.00     0.075 A 
HETATM   10  C22 UNK     1      30.174  -5.695  38.407  1.00  0.00     0.082 A 
HETATM   11  C23 UNK     1      26.179 -10.208  38.313  1.00  0.00     0.077 C 
HETATM   12  C24 UNK     1      29.315  -4.609  38.579  1.00  0.00     0.038 A 
ENDROOT
BRANCH  10  13
HETATM   13  O5  UNK     1      31.517  -5.492  38.315  1.00  0.00    -0.277 OA
BRANCH  13  14
HETATM   14  C26 UNK     1      32.039  -5.611  37.017  1.00  0.00     0.286 C 
HETATM   15  O8  UNK     1      31.800  -6.543  36.256  1.00  0.00    -0.263 OA
BRANCH  14  16
HETATM   16  C21 UNK     1      32.940  -4.445  36.633  1.00  0.00     0.183 C 
HETATM   17  C27 UNK     1      32.112  -3.191  36.403  1.00  0.00     0.043 C 
BRANCH  16  18
HETATM   18  N1  UNK     1      33.736  -4.740  35.470  1.00  0.00    -0.323 N 
HETATM   19  C25 UNK     1      34.987  -5.325  35.520  1.00  0.00     0.362 C 
HETATM   20  O7  UNK     1      35.575  -5.666  36.541  1.00  0.00    -0.238 OA
HETATM   21  H26 UNK     1      33.341  -4.556  34.552  1.00  0.00     0.165 HD
BRANCH  19  22
HETATM   22  O4  UNK     1      35.482  -5.472  34.255  1.00  0.00    -0.294 OA
BRANCH  22  23
HETATM   23  C1  UNK     1      35.774  -6.814  33.850  1.00  0.00     0.061 C 
HETATM   24  C15 UNK     1      37.085  -7.245  34.506  1.00  0.00     0.046 C 
HETATM   25  C16 UNK     1      35.907  -6.818  32.329  1.00  0.00     0.046 C 
HETATM   26  C17 UNK     1      34.623  -7.716  34.292  1.00  0.00     0.046 C 
ENDBRANCH  22  23
ENDBRANCH  19  22
ENDBRANCH  16  18
ENDBRANCH  14  16
ENDBRANCH  13  14
ENDBRANCH  10  13
BRANCH   3  27
HETATM   27  C3  UNK     1      24.116  -8.087  38.686  1.00  0.00    -0.017 A 
HETATM   28  C10 UNK     1      23.397  -8.419  37.539  1.00  0.00     0.052 A 
HETATM   29  C4  UNK     1      22.036  -8.733  37.620  1.00  0.00     0.102 A 
HETATM   30  O1  UNK     1      21.449  -9.087  36.432  1.00  0.00    -0.348 OA
HETATM   31  C7  UNK     1      21.381  -8.657  38.858  1.00  0.00     0.102 A 
HETATM   32  C12 UNK     1      20.441 -10.090  36.559  1.00  0.00     0.178 C 
HETATM   33  C6  UNK     1      19.094  -9.473  36.906  1.00  0.00     0.053 C 
HETATM   34  C13 UNK     1      19.209  -8.420  37.997  1.00  0.00     0.178 C 
HETATM   35  O3  UNK     1      20.042  -8.873  39.065  1.00  0.00    -0.348 OA
HETATM   36  C18 UNK     1      22.114  -8.349  40.010  1.00  0.00     0.040 A 
HETATM   37  C14 UNK     1      23.476  -8.063  39.924  1.00  0.00     0.015 A 
ENDBRANCH   3  27
TORSDOF 7
ENDMDL
MODEL 8
REMARK VINA RESULT:      -9.0     23.425     25.455
REMARK  7 active torsions:
REMARK  status: ('A' for Active; 'I' for Inactive)
REMARK    1  A    between atoms: C1_10  and  O4_4 
REMARK    2  A    between atoms: C25_34  and  O4_4 
REMARK    3  A    between atoms: C22_31  and  O5_5 
REMARK    4  A    between atoms: C26_35  and  O5_5 
REMARK    5  A    between atoms: C21_30  and  N1_9 
REMARK       I    between atoms: C25_34  and  N1_9 
REMARK    6  A    between atoms: C2_11  and  C3_12 
REMARK    7  A    between atoms: C21_30  and  C26_35 
ROOT
HETATM    1  O2  UNK     1      16.070   7.558  32.405  1.00  0.00    -0.313 OA
HETATM    2  O6  UNK     1      19.198   8.901  34.631  1.00  0.00    -0.286 OA
HETATM    3  C2  UNK     1      17.085   9.373  33.644  1.00  0.00     0.055 A 
HETATM    4  C5  UNK     1      18.221   7.131  33.434  1.00  0.00     0.049 A 
HETATM    5  C8  UNK     1      16.084   8.856  32.898  1.00  0.00     0.065 A 
HETATM    6  C9  UNK     1      18.254   8.501  33.962  1.00  0.00     0.198 A 
HETATM    7  C11 UNK     1      17.124   6.729  32.680  1.00  0.00     0.092 A 
HETATM    8  C19 UNK     1      19.270   6.241  33.682  1.00  0.00     0.021 A 
HETATM    9  C20 UNK     1      17.067   5.434  32.166  1.00  0.00     0.075 A 
HETATM   10  C22 UNK     1      18.110   4.542  32.412  1.00  0.00     0.082 A 
HETATM   11  C23 UNK     1      14.844   9.608  32.495  1.00  0.00     0.077 C 
HETATM   12  C24 UNK     1      19.210   4.946  33.169  1.00  0.00     0.038 A 
ENDROOT
BRANCH  10  13
HETATM   13  O5  UNK     1      18.056   3.277  31.911  1.00  0.00    -0.277 OA
BRANCH  13  14
HETATM   14  C26 UNK     1      18.702   3.109  30.676  1.00  0.00     0.286 C 
HETATM   15  O8  UNK     1      18.987   4.026  29.912  1.00  0.00    -0.263 OA
BRANCH  14  16
HETATM   16  C21 UNK     1      19.029   1.653  30.374  1.00  0.00     0.183 C 
HETATM   17  C27 UNK     1      18.666   1.319  28.935  1.00  0.00     0.043 C 
BRANCH  16  18
HETATM   18  N1  UNK     1      18.365   0.752  31.280  1.00  0.00    -0.323 N 
HETATM   19  C25 UNK     1      19.011  -0.243  31.988  1.00  0.00     0.362 C 
HETATM   20  O7  UNK     1      20.212  -0.488  31.942  1.00  0.00    -0.238 OA
HETATM   21  H26 UNK     1      17.373   0.882  31.453  1.00  0.00     0.165 HD
BRANCH  19  22
HETATM   22  O4  UNK     1      18.110  -0.925  32.758  1.00  0.00    -0.294 OA
BRANCH  22  23
HETATM   23  C1  UNK     1      18.055  -0.547  34.138  1.00  0.00     0.061 C 
HETATM   24  C15 UNK     1      18.385   0.941  34.248  1.00  0.00     0.046 C 
HETATM   25  C16 UNK     1      19.091  -1.384  34.886  1.00  0.00     0.046 C 
HETATM   26  C17 UNK     1      16.650  -0.834  34.664  1.00  0.00     0.046 C 
ENDBRANCH  22  23
ENDBRANCH  19  22
ENDBRANCH  16  18
ENDBRANCH  14  16
ENDBRANCH  13  14
ENDBRANCH  10  13
BRANCH   3  27
HETATM   27  C3  UNK     1      17.058  10.739  34.142  1.00  0.00    -0.017 A 
HETATM   28  C10 UNK     1      16.029  11.155  34.985  1.00  0.00     0.052 A 
HETATM   29  C4  UNK     1      16.003  12.464  35.480  1.00  0.00     0.102 A 
HETATM   30  O1  UNK     1      14.967  12.740  36.336  1.00  0.00    -0.348 OA
HETATM   31  C7  UNK     1      16.990  13.375  35.078  1.00  0.00     0.102 A 
HETATM   32  C12 UNK     1      15.307  13.648  37.385  1.00  0.00     0.178 C 
HETATM   33  C6  UNK     1      15.163  15.092  36.929  1.00  0.00     0.053 C 
HETATM   34  C13 UNK     1      15.764  15.322  35.551  1.00  0.00     0.178 C 
HETATM   35  O3  UNK     1      17.043  14.699  35.436  1.00  0.00    -0.348 OA
HETATM   36  C18 UNK     1      18.035  12.943  34.253  1.00  0.00     0.040 A 
HETATM   37  C14 UNK     1      18.067  11.631  33.785  1.00  0.00     0.015 A 
ENDBRANCH   3  27
TORSDOF 7
ENDMDL
MODEL 9
REMARK VINA RESULT:      -8.9      2.415      3.379
REMARK  7 active torsions:
REMARK  status: ('A' for Active; 'I' for Inactive)
REMARK    1  A    between atoms: C1_10  and  O4_4 
REMARK    2  A    between atoms: C25_34  and  O4_4 
REMARK    3  A    between atoms: C22_31  and  O5_5 
REMARK    4  A    between atoms: C26_35  and  O5_5 
REMARK    5  A    between atoms: C21_30  and  N1_9 
REMARK       I    between atoms: C25_34  and  N1_9 
REMARK    6  A    between atoms: C2_11  and  C3_12 
REMARK    7  A    between atoms: C21_30  and  C26_35 
ROOT
HETATM    1  O2  UNK     1      14.950  10.865   8.387  1.00  0.00    -0.313 OA
HETATM    2  O6  UNK     1      18.851  10.617   9.511  1.00  0.00    -0.286 OA
HETATM    3  C2  UNK     1      17.159  11.856   8.388  1.00  0.00     0.055 A 
HETATM    4  C5  UNK     1      16.711   9.647   9.520  1.00  0.00     0.049 A 
HETATM    5  C8  UNK     1      15.850  11.868   8.051  1.00  0.00     0.065 A 
HETATM    6  C9  UNK     1      17.678  10.696   9.171  1.00  0.00     0.198 A 
HETATM    7  C11 UNK     1      15.390   9.789   9.108  1.00  0.00     0.092 A 
HETATM    8  C19 UNK     1      17.105   8.524  10.253  1.00  0.00     0.021 A 
HETATM    9  C20 UNK     1      14.451   8.807   9.426  1.00  0.00     0.075 A 
HETATM   10  C22 UNK     1      14.839   7.685  10.158  1.00  0.00     0.082 A 
HETATM   11  C23 UNK     1      15.181  12.963   7.265  1.00  0.00     0.077 C 
HETATM   12  C24 UNK     1      16.164   7.544  10.571  1.00  0.00     0.038 A 
ENDROOT
BRANCH  10  13
HETATM   13  O5  UNK     1      13.924   6.726  10.469  1.00  0.00    -0.277 OA
BRANCH  13  14
HETATM   14  C26 UNK     1      14.060   5.532   9.744  1.00  0.00     0.286 C 
HETATM   15  O8  UNK     1      14.881   4.656   9.998  1.00  0.00    -0.263 OA
BRANCH  14  16
HETATM   16  C21 UNK     1      13.066   5.421   8.595  1.00  0.00     0.183 C 
HETATM   17  C27 UNK     1      13.669   5.989   7.320  1.00  0.00     0.043 C 
BRANCH  16  18
HETATM   18  N1  UNK     1      11.820   6.078   8.896  1.00  0.00    -0.323 N 
HETATM   19  C25 UNK     1      10.660   5.409   9.236  1.00  0.00     0.362 C 
HETATM   20  O7  UNK     1      10.537   4.192   9.327  1.00  0.00    -0.238 OA
HETATM   21  H26 UNK     1      11.798   7.093   8.911  1.00  0.00     0.165 HD
BRANCH  19  22
HETATM   22  O4  UNK     1       9.655   6.309   9.460  1.00  0.00    -0.294 OA
BRANCH  22  23
HETATM   23  C1  UNK     1       8.547   6.246   8.555  1.00  0.00     0.061 C 
HETATM   24  C15 UNK     1       7.694   5.031   8.915  1.00  0.00     0.046 C 
HETATM   25  C16 UNK     1       9.112   6.108   7.144  1.00  0.00     0.046 C 
HETATM   26  C17 UNK     1       7.739   7.537   8.688  1.00  0.00     0.046 C 
ENDBRANCH  22  23
ENDBRANCH  19  22
ENDBRANCH  16  18
ENDBRANCH  14  16
ENDBRANCH  13  14
ENDBRANCH  10  13
BRANCH   3  27
HETATM   27  C3  UNK     1      18.067  12.929   8.015  1.00  0.00    -0.017 A 
HETATM   28  C10 UNK     1      18.590  12.985   6.724  1.00  0.00     0.052 A 
HETATM   29  C4  UNK     1      19.452  14.023   6.352  1.00  0.00     0.102 A 
HETATM   30  O1  UNK     1      19.863  13.995   5.044  1.00  0.00    -0.348 OA
HETATM   31  C7  UNK     1      19.835  14.978   7.304  1.00  0.00     0.102 A 
HETATM   32  C12 UNK     1      20.025  15.288   4.459  1.00  0.00     0.178 C 
HETATM   33  C6  UNK     1      21.403  15.857   4.760  1.00  0.00     0.053 C 
HETATM   34  C13 UNK     1      21.798  15.668   6.216  1.00  0.00     0.178 C 
HETATM   35  O3  UNK     1      20.721  16.004   7.090  1.00  0.00    -0.348 OA
HETATM   36  C18 UNK     1      19.285  14.931   8.591  1.00  0.00     0.040 A 
HETATM   37  C14 UNK     1      18.406  13.909   8.946  1.00  0.00     0.015 A 
ENDBRANCH   3  27
TORSDOF 7
ENDMDL
MODEL 10
REMARK VINA RESULT:      -8.9     34.234     36.992
REMARK  7 active torsions:
REMARK  status: ('A' for Active; 'I' for Inactive)
REMARK    1  A    between atoms: C1_10  and  O4_4 
REMARK    2  A    between atoms: C25_34  and  O4_4 
REMARK    3  A    between atoms: C22_31  and  O5_5 
REMARK    4  A    between atoms: C26_35  and  O5_5 
REMARK    5  A    between atoms: C21_30  and  N1_9 
REMARK       I    between atoms: C25_34  and  N1_9 
REMARK    6  A    between atoms: C2_11  and  C3_12 
REMARK    7  A    between atoms: C21_30  and  C26_35 
ROOT
HETATM    1  O2  UNK     1      28.561  -8.208  38.649  1.00  0.00    -0.313 OA
HETATM    2  O6  UNK     1      25.790  -5.233  38.509  1.00  0.00    -0.286 OA
HETATM    3  C2  UNK     1      26.226  -7.571  38.585  1.00  0.00     0.055 A 
HETATM    4  C5  UNK     1      28.059  -5.839  38.575  1.00  0.00     0.049 A 
HETATM    5  C8  UNK     1      27.204  -8.503  38.631  1.00  0.00     0.065 A 
HETATM    6  C9  UNK     1      26.620  -6.132  38.552  1.00  0.00     0.198 A 
HETATM    7  C11 UNK     1      28.958  -6.898  38.624  1.00  0.00     0.092 A 
HETATM    8  C19 UNK     1      28.523  -4.521  38.549  1.00  0.00     0.021 A 
HETATM    9  C20 UNK     1      30.330  -6.648  38.647  1.00  0.00     0.075 A 
HETATM   10  C22 UNK     1      30.798  -5.335  38.622  1.00  0.00     0.082 A 
HETATM   11  C23 UNK     1      26.967  -9.988  38.667  1.00  0.00     0.077 C 
HETATM   12  C24 UNK     1      29.895  -4.272  38.573  1.00  0.00     0.038 A 
ENDROOT
BRANCH  10  13
HETATM   13  O5  UNK     1      32.137  -5.089  38.645  1.00  0.00    -0.277 OA
BRANCH  13  14
HETATM   14  C26 UNK     1      32.777  -5.221  37.402  1.00  0.00     0.286 C 
HETATM   15  O8  UNK     1      32.441  -4.625  36.382  1.00  0.00    -0.263 OA
BRANCH  14  16
HETATM   16  C21 UNK     1      33.954  -6.186  37.442  1.00  0.00     0.183 C 
HETATM   17  C27 UNK     1      35.056  -5.713  36.508  1.00  0.00     0.043 C 
BRANCH  16  18
HETATM   18  N1  UNK     1      33.559  -7.531  37.110  1.00  0.00    -0.323 N 
HETATM   19  C25 UNK     1      33.237  -7.946  35.832  1.00  0.00     0.362 C 
HETATM   20  O7  UNK     1      33.246  -7.240  34.829  1.00  0.00    -0.238 OA
HETATM   21  H26 UNK     1      33.564  -8.233  37.844  1.00  0.00     0.165 HD
BRANCH  19  22
HETATM   22  O4  UNK     1      32.904  -9.271  35.845  1.00  0.00    -0.294 OA
BRANCH  22  23
HETATM   23  C1  UNK     1      31.505  -9.564  35.920  1.00  0.00     0.061 C 
HETATM   24  C15 UNK     1      30.724  -8.293  35.587  1.00  0.00     0.046 C 
HETATM   25  C16 UNK     1      31.205 -10.021  37.345  1.00  0.00     0.046 C 
HETATM   26  C17 UNK     1      31.186 -10.675  34.920  1.00  0.00     0.046 C 
ENDBRANCH  22  23
ENDBRANCH  19  22
ENDBRANCH  16  18
ENDBRANCH  14  16
ENDBRANCH  13  14
ENDBRANCH  10  13
BRANCH   3  27
HETATM   27  C3  UNK     1      24.816  -7.925  38.568  1.00  0.00    -0.017 A 
HETATM   28  C10 UNK     1      24.261  -8.533  37.442  1.00  0.00     0.052 A 
HETATM   29  C4  UNK     1      22.909  -8.891  37.423  1.00  0.00     0.102 A 
HETATM   30  O1  UNK     1      22.492  -9.523  36.279  1.00  0.00    -0.348 OA
HETATM   31  C7  UNK     1      22.096  -8.583  38.524  1.00  0.00     0.102 A 
HETATM   32  C12 UNK     1      21.498 -10.525  36.499  1.00  0.00     0.178 C 
HETATM   33  C6  UNK     1      20.104  -9.917  36.534  1.00  0.00     0.053 C 
HETATM   34  C13 UNK     1      20.051  -8.650  37.372  1.00  0.00     0.178 C 
HETATM   35  O3  UNK     1      20.747  -8.819  38.607  1.00  0.00    -0.348 OA
HETATM   36  C18 UNK     1      22.665  -7.998  39.660  1.00  0.00     0.040 A 
HETATM   37  C14 UNK     1      24.019  -7.668  39.682  1.00  0.00     0.015 A 
ENDBRANCH   3  27
TORSDOF 7
ENDMDL
