MODEL 1
REMARK VINA RESULT:      -8.3      0.000      0.000
REMARK  1 active torsions:
REMARK  status: ('A' for Active; 'I' for Inactive)
REMARK    1  A    between atoms: N1_5  and  O3_3 
ROOT
HETATM    1  O1  UNK     1      10.089   7.888   8.695  1.00  0.00    -0.334 OA
HETATM    2  O2  UNK     1      13.922   5.021   9.540  1.00  0.00    -0.274 OA
HETATM    3  O4  UNK     1      15.767   3.721   9.927  1.00  0.00    -0.260 OA
HETATM    4  N1  UNK     1       8.766   4.700   9.572  1.00  0.00    -0.142 NA
HETATM    5  C1  UNK     1       9.264   6.775   8.340  1.00  0.00     0.103 C 
HETATM    6  C2  UNK     1      11.118   5.158   9.148  1.00  0.00     0.104 C 
HETATM    7  C3  UNK     1       9.656   5.501   9.083  1.00  0.00     0.078 C 
HETATM    8  C4  UNK     1      11.970   6.390   9.134  1.00  0.00     0.016 A 
HETATM    9  C5  UNK     1      11.418   7.655   8.915  1.00  0.00     0.079 A 
HETATM   10  C6  UNK     1       7.832   7.198   8.695  1.00  0.00     0.053 C 
HETATM   11  C7  UNK     1       9.355   6.537   6.828  1.00  0.00     0.053 C 
HETATM   12  C8  UNK     1      13.357   6.302   9.337  1.00  0.00     0.099 A 
HETATM   13  C9  UNK     1      14.180   7.427   9.346  1.00  0.00    -0.001 A 
HETATM   14  C10 UNK     1      12.233   8.795   8.934  1.00  0.00     0.038 A 
HETATM   15  C11 UNK     1      13.608   8.683   9.146  1.00  0.00     0.017 A 
HETATM   16  C12 UNK     1      15.607   7.260   9.564  1.00  0.00     0.020 A 
HETATM   17  C13 UNK     1      16.124   6.043   9.754  1.00  0.00     0.083 A 
HETATM   18  C14 UNK     1      15.283   4.833   9.751  1.00  0.00     0.288 A 
ENDROOT
BRANCH   4  19
HETATM   19  O3  UNK     1       9.421   3.588  10.101  1.00  0.00    -0.266 OA
HETATM   20  H13 UNK     1       9.448   3.808  11.047  1.00  0.00     0.247 HD
ENDBRANCH   4  19
TORSDOF 1
ENDMDL
MODEL 2
REMARK VINA RESULT:      -8.3     22.611     24.104
REMARK  1 active torsions:
REMARK  status: ('A' for Active; 'I' for Inactive)
REMARK    1  A    between atoms: N1_5  and  O3_3 
ROOT
HETATM    1  O1  UNK     1      18.073   5.946  34.303  1.00  0.00    -0.334 OA
HETATM    2  O2  UNK     1      18.185   3.671  30.009  1.00  0.00    -0.274 OA
HETATM    3  O4  UNK     1      18.258   2.543  28.017  1.00  0.00    -0.260 OA
HETATM    4  N1  UNK     1      16.923   8.310  31.900  1.00  0.00    -0.142 NA
HETATM    5  C1  UNK     1      18.226   7.228  33.690  1.00  0.00     0.103 C 
HETATM    6  C2  UNK     1      17.894   6.144  31.363  1.00  0.00     0.104 C 
HETATM    7  C3  UNK     1      17.606   7.285  32.297  1.00  0.00     0.078 C 
HETATM    8  C4  UNK     1      18.105   4.863  32.111  1.00  0.00     0.016 A 
HETATM    9  C5  UNK     1      18.179   4.839  33.507  1.00  0.00     0.079 A 
HETATM   10  C6  UNK     1      17.537   8.220  34.638  1.00  0.00     0.053 C 
HETATM   11  C7  UNK     1      19.718   7.575  33.603  1.00  0.00     0.053 C 
HETATM   12  C8  UNK     1      18.240   3.647  31.423  1.00  0.00     0.099 A 
HETATM   13  C9  UNK     1      18.422   2.434  32.086  1.00  0.00    -0.001 A 
HETATM   14  C10 UNK     1      18.348   3.625  34.185  1.00  0.00     0.038 A 
HETATM   15  C11 UNK     1      18.472   2.427  33.479  1.00  0.00     0.017 A 
HETATM   16  C12 UNK     1      18.552   1.214  31.307  1.00  0.00     0.020 A 
HETATM   17  C13 UNK     1      18.498   1.254  29.973  1.00  0.00     0.083 A 
HETATM   18  C14 UNK     1      18.306   2.518  29.241  1.00  0.00     0.288 A 
ENDROOT
BRANCH   4  19
HETATM   19  O3  UNK     1      16.572   8.110  30.565  1.00  0.00    -0.266 OA
HETATM   20  H13 UNK     1      15.789   8.679  30.481  1.00  0.00     0.247 HD
ENDBRANCH   4  19
TORSDOF 1
ENDMDL
MODEL 3
REMARK VINA RESULT:      -8.2     24.151     25.962
REMARK  1 active torsions:
REMARK  status: ('A' for Active; 'I' for Inactive)
REMARK    1  A    between atoms: N1_5  and  O3_3 
ROOT
HETATM    1  O1  UNK     1      19.196  -2.074  34.899  1.00  0.00    -0.334 OA
HETATM    2  O2  UNK     1      18.697   0.635  30.894  1.00  0.00    -0.274 OA
HETATM    3  O4  UNK     1      18.516   1.882  28.982  1.00  0.00    -0.260 OA
HETATM    4  N1  UNK     1      16.227  -0.161  35.361  1.00  0.00    -0.142 NA
HETATM    5  C1  UNK     1      18.467  -1.135  35.692  1.00  0.00     0.103 C 
HETATM    6  C2  UNK     1      17.816   0.157  33.545  1.00  0.00     0.104 C 
HETATM    7  C3  UNK     1      17.408  -0.389  34.885  1.00  0.00     0.078 C 
HETATM    8  C4  UNK     1      18.883  -0.683  32.913  1.00  0.00     0.016 A 
HETATM    9  C5  UNK     1      19.496  -1.727  33.611  1.00  0.00     0.079 A 
HETATM   10  C6  UNK     1      17.820  -1.960  36.813  1.00  0.00     0.053 C 
HETATM   11  C7  UNK     1      19.444  -0.129  36.313  1.00  0.00     0.053 C 
HETATM   12  C8  UNK     1      19.302  -0.435  31.596  1.00  0.00     0.099 A 
HETATM   13  C9  UNK     1      20.281  -1.204  30.970  1.00  0.00    -0.001 A 
HETATM   14  C10 UNK     1      20.472  -2.516  32.988  1.00  0.00     0.038 A 
HETATM   15  C11 UNK     1      20.866  -2.255  31.674  1.00  0.00     0.017 A 
HETATM   16  C12 UNK     1      20.662  -0.890  29.603  1.00  0.00     0.020 A 
HETATM   17  C13 UNK     1      20.081   0.122  28.955  1.00  0.00     0.083 A 
HETATM   18  C14 UNK     1      19.042   0.955  29.586  1.00  0.00     0.288 A 
ENDROOT
BRANCH   4  19
HETATM   19  O3  UNK     1      15.526   0.616  34.439  1.00  0.00    -0.266 OA
HETATM   20  H13 UNK     1      15.626   0.092  33.626  1.00  0.00     0.247 HD
ENDBRANCH   4  19
TORSDOF 1
ENDMDL
MODEL 4
REMARK VINA RESULT:      -8.2     24.087     25.695
REMARK  1 active torsions:
REMARK  status: ('A' for Active; 'I' for Inactive)
REMARK    1  A    between atoms: N1_5  and  O3_3 
ROOT
HETATM    1  O1  UNK     1      17.756   1.736  34.390  1.00  0.00    -0.334 OA
HETATM    2  O2  UNK     1      19.826  -1.456  31.366  1.00  0.00    -0.274 OA
HETATM    3  O4  UNK     1      20.791  -2.918  29.890  1.00  0.00    -0.260 OA
HETATM    4  N1  UNK     1      18.810  -1.001  36.410  1.00  0.00    -0.142 NA
HETATM    5  C1  UNK     1      17.410   0.711  35.324  1.00  0.00     0.103 C 
HETATM    6  C2  UNK     1      18.831  -0.982  33.977  1.00  0.00     0.104 C 
HETATM    7  C3  UNK     1      18.405  -0.446  35.314  1.00  0.00     0.078 C 
HETATM    8  C4  UNK     1      18.810   0.086  32.926  1.00  0.00     0.016 A 
HETATM    9  C5  UNK     1      18.287   1.355  33.189  1.00  0.00     0.079 A 
HETATM   10  C6  UNK     1      17.382   1.399  36.696  1.00  0.00     0.053 C 
HETATM   11  C7  UNK     1      16.006   0.184  35.002  1.00  0.00     0.053 C 
HETATM   12  C8  UNK     1      19.314  -0.166  31.640  1.00  0.00     0.099 A 
HETATM   13  C9  UNK     1      19.325   0.807  30.642  1.00  0.00    -0.001 A 
HETATM   14  C10 UNK     1      18.304   2.346  32.199  1.00  0.00     0.038 A 
HETATM   15  C11 UNK     1      18.818   2.073  30.929  1.00  0.00     0.017 A 
HETATM   16  C12 UNK     1      19.864   0.474  29.335  1.00  0.00     0.020 A 
HETATM   17  C13 UNK     1      20.344  -0.748  29.091  1.00  0.00     0.083 A 
HETATM   18  C14 UNK     1      20.349  -1.800  30.124  1.00  0.00     0.288 A 
ENDROOT
BRANCH   4  19
HETATM   19  O3  UNK     1      19.631  -2.079  36.076  1.00  0.00    -0.266 OA
HETATM   20  H13 UNK     1      20.155  -1.707  35.347  1.00  0.00     0.247 HD
ENDBRANCH   4  19
TORSDOF 1
ENDMDL
MODEL 5
REMARK VINA RESULT:      -8.0     24.167     25.698
REMARK  1 active torsions:
REMARK  status: ('A' for Active; 'I' for Inactive)
REMARK    1  A    between atoms: N1_5  and  O3_3 
ROOT
HETATM    1  O1  UNK     1      17.892   1.935  35.726  1.00  0.00    -0.334 OA
HETATM    2  O2  UNK     1      18.646   0.997  31.016  1.00  0.00    -0.274 OA
HETATM    3  O4  UNK     1      18.989   0.618  28.783  1.00  0.00    -0.260 OA
HETATM    4  N1  UNK     1      18.835  -1.495  35.538  1.00  0.00    -0.142 NA
HETATM    5  C1  UNK     1      17.572   0.570  36.003  1.00  0.00     0.103 C 
HETATM    6  C2  UNK     1      18.337  -0.084  33.618  1.00  0.00     0.104 C 
HETATM    7  C3  UNK     1      18.313  -0.400  35.087  1.00  0.00     0.078 C 
HETATM    8  C4  UNK     1      18.288   1.393  33.375  1.00  0.00     0.016 A 
HETATM    9  C5  UNK     1      18.075   2.297  34.419  1.00  0.00     0.079 A 
HETATM   10  C6  UNK     1      17.965   0.347  37.470  1.00  0.00     0.053 C 
HETATM   11  C7  UNK     1      16.059   0.363  35.855  1.00  0.00     0.053 C 
HETATM   12  C8  UNK     1      18.450   1.910  32.079  1.00  0.00     0.099 A 
HETATM   13  C9  UNK     1      18.424   3.279  31.816  1.00  0.00    -0.001 A 
HETATM   14  C10 UNK     1      18.060   3.675  34.170  1.00  0.00     0.038 A 
HETATM   15  C11 UNK     1      18.232   4.165  32.874  1.00  0.00     0.017 A 
HETATM   16  C12 UNK     1      18.601   3.741  30.450  1.00  0.00     0.020 A 
HETATM   17  C13 UNK     1      18.786   2.866  29.458  1.00  0.00     0.083 A 
HETATM   18  C14 UNK     1      18.819   1.413  29.701  1.00  0.00     0.288 A 
ENDROOT
BRANCH   4  19
HETATM   19  O3  UNK     1      19.353  -2.209  34.458  1.00  0.00    -0.266 OA
HETATM   20  H13 UNK     1      18.990  -1.715  33.704  1.00  0.00     0.247 HD
ENDBRANCH   4  19
TORSDOF 1
ENDMDL
MODEL 6
REMARK VINA RESULT:      -7.8     31.383     33.278
REMARK  1 active torsions:
REMARK  status: ('A' for Active; 'I' for Inactive)
REMARK    1  A    between atoms: N1_5  and  O3_3 
ROOT
HETATM    1  O1  UNK     1      19.924  -9.046  36.094  1.00  0.00    -0.334 OA
HETATM    2  O2  UNK     1      24.612  -8.693  37.329  1.00  0.00    -0.274 OA
HETATM    3  O4  UNK     1      26.830  -8.590  37.894  1.00  0.00    -0.260 OA
HETATM    4  N1  UNK     1      20.435  -5.663  37.083  1.00  0.00    -0.142 NA
HETATM    5  C1  UNK     1      19.559  -7.963  36.952  1.00  0.00     0.103 C 
HETATM    6  C2  UNK     1      22.065  -7.450  37.353  1.00  0.00     0.104 C 
HETATM    7  C3  UNK     1      20.677  -6.934  37.097  1.00  0.00     0.078 C 
HETATM    8  C4  UNK     1      22.272  -8.797  36.731  1.00  0.00     0.016 A 
HETATM    9  C5  UNK     1      21.213  -9.501  36.149  1.00  0.00     0.079 A 
HETATM   10  C6  UNK     1      18.315  -7.333  36.309  1.00  0.00     0.053 C 
HETATM   11  C7  UNK     1      19.184  -8.513  38.333  1.00  0.00     0.053 C 
HETATM   12  C8  UNK     1      23.542  -9.394  36.723  1.00  0.00     0.099 A 
HETATM   13  C9  UNK     1      23.776 -10.639  36.141  1.00  0.00    -0.001 A 
HETATM   14  C10 UNK     1      21.437 -10.746  35.550  1.00  0.00     0.038 A 
HETATM   15  C11 UNK     1      22.712 -11.316  35.547  1.00  0.00     0.017 A 
HETATM   16  C12 UNK     1      25.119 -11.193  36.169  1.00  0.00     0.020 A 
HETATM   17  C13 UNK     1      26.118 -10.519  36.745  1.00  0.00     0.083 A 
HETATM   18  C14 UNK     1      25.906  -9.200  37.369  1.00  0.00     0.288 A 
ENDROOT
BRANCH   4  19
HETATM   19  O3  UNK     1      21.630  -4.988  37.332  1.00  0.00    -0.266 OA
HETATM   20  H13 UNK     1      22.233  -5.419  36.703  1.00  0.00     0.247 HD
ENDBRANCH   4  19
TORSDOF 1
ENDMDL
MODEL 7
REMARK VINA RESULT:      -7.6     35.868     36.732
REMARK  1 active torsions:
REMARK  status: ('A' for Active; 'I' for Inactive)
REMARK    1  A    between atoms: N1_5  and  O3_3 
ROOT
HETATM    1  O1  UNK     1      27.772  -7.752  39.365  1.00  0.00    -0.334 OA
HETATM    2  O2  UNK     1      31.804  -6.408  37.008  1.00  0.00    -0.274 OA
HETATM    3  O4  UNK     1      33.681  -5.712  35.894  1.00  0.00    -0.260 OA
HETATM    4  N1  UNK     1      29.847 -10.643  39.225  1.00  0.00    -0.142 NA
HETATM    5  C1  UNK     1      27.929  -9.117  38.970  1.00  0.00     0.103 C 
HETATM    6  C2  UNK     1      30.280  -8.564  38.037  1.00  0.00     0.104 C 
HETATM    7  C3  UNK     1      29.395  -9.508  38.800  1.00  0.00     0.078 C 
HETATM    8  C4  UNK     1      29.826  -7.145  38.187  1.00  0.00     0.016 A 
HETATM    9  C5  UNK     1      28.626  -6.828  38.829  1.00  0.00     0.079 A 
HETATM   10  C6  UNK     1      27.266  -9.944  40.081  1.00  0.00     0.053 C 
HETATM   11  C7  UNK     1      27.178  -9.355  37.654  1.00  0.00     0.053 C 
HETATM   12  C8  UNK     1      30.598  -6.089  37.677  1.00  0.00     0.099 A 
HETATM   13  C9  UNK     1      30.216  -4.755  37.810  1.00  0.00    -0.001 A 
HETATM   14  C10 UNK     1      28.237  -5.491  38.982  1.00  0.00     0.038 A 
HETATM   15  C11 UNK     1      29.026  -4.458  38.473  1.00  0.00     0.017 A 
HETATM   16  C12 UNK     1      31.067  -3.715  37.258  1.00  0.00     0.020 A 
HETATM   17  C13 UNK     1      32.202  -4.033  36.630  1.00  0.00     0.083 A 
HETATM   18  C14 UNK     1      32.637  -5.432  36.471  1.00  0.00     0.288 A 
ENDROOT
BRANCH   4  19
HETATM   19  O3  UNK     1      31.184 -10.751  38.843  1.00  0.00    -0.266 OA
HETATM   20  H13 UNK     1      31.538 -11.341  39.530  1.00  0.00     0.247 HD
ENDBRANCH   4  19
TORSDOF 1
ENDMDL
MODEL 8
REMARK VINA RESULT:      -7.6      2.659      5.814
REMARK  1 active torsions:
REMARK  status: ('A' for Active; 'I' for Inactive)
REMARK    1  A    between atoms: N1_5  and  O3_3 
ROOT
HETATM    1  O1  UNK     1      14.328   7.628   8.416  1.00  0.00    -0.334 OA
HETATM    2  O2  UNK     1       9.476   7.646   8.695  1.00  0.00    -0.274 OA
HETATM    3  O4  UNK     1       7.186   7.628   8.766  1.00  0.00    -0.260 OA
HETATM    4  N1  UNK     1      13.527   8.884  11.651  1.00  0.00    -0.142 NA
HETATM    5  C1  UNK     1      14.443   8.685   9.372  1.00  0.00     0.103 C 
HETATM    6  C2  UNK     1      11.911   8.489   9.875  1.00  0.00     0.104 C 
HETATM    7  C3  UNK     1      13.309   8.670  10.394  1.00  0.00     0.078 C 
HETATM    8  C4  UNK     1      11.893   7.665   8.624  1.00  0.00     0.016 A 
HETATM    9  C5  UNK     1      13.076   7.289   7.983  1.00  0.00     0.079 A 
HETATM   10  C6  UNK     1      15.801   8.474  10.055  1.00  0.00     0.053 C 
HETATM   11  C7  UNK     1      14.457  10.033   8.639  1.00  0.00     0.053 C 
HETATM   12  C8  UNK     1      10.676   7.251   8.058  1.00  0.00     0.099 A 
HETATM   13  C9  UNK     1      10.620   6.471   6.904  1.00  0.00    -0.001 A 
HETATM   14  C10 UNK     1      13.034   6.495   6.830  1.00  0.00     0.038 A 
HETATM   15  C11 UNK     1      11.812   6.089   6.290  1.00  0.00     0.017 A 
HETATM   16  C12 UNK     1       9.325   6.079   6.377  1.00  0.00     0.020 A 
HETATM   17  C13 UNK     1       8.201   6.460   6.990  1.00  0.00     0.083 A 
HETATM   18  C14 UNK     1       8.223   7.283   8.211  1.00  0.00     0.288 A 
ENDROOT
BRANCH   4  19
HETATM   19  O3  UNK     1      12.298   8.902  12.310  1.00  0.00    -0.266 OA
HETATM   20  H13 UNK     1      12.254   7.999  12.666  1.00  0.00     0.247 HD
ENDBRANCH   4  19
TORSDOF 1
ENDMDL
MODEL 9
REMARK VINA RESULT:      -7.5     23.459     24.516
REMARK  1 active torsions:
REMARK  status: ('A' for Active; 'I' for Inactive)
REMARK    1  A    between atoms: N1_5  and  O3_3 
ROOT
HETATM    1  O1  UNK     1      16.708   9.179  34.972  1.00  0.00    -0.334 OA
HETATM    2  O2  UNK     1      18.104   6.697  31.032  1.00  0.00    -0.274 OA
HETATM    3  O4  UNK     1      18.824   5.526  29.200  1.00  0.00    -0.260 OA
HETATM    4  N1  UNK     1      13.767   8.672  33.027  1.00  0.00    -0.142 NA
HETATM    5  C1  UNK     1      15.592   9.750  34.285  1.00  0.00     0.103 C 
HETATM    6  C2  UNK     1      16.029   8.168  32.282  1.00  0.00     0.104 C 
HETATM    7  C3  UNK     1      15.040   8.826  33.203  1.00  0.00     0.078 C 
HETATM    8  C4  UNK     1      17.340   7.932  32.966  1.00  0.00     0.016 A 
HETATM    9  C5  UNK     1      17.597   8.438  34.243  1.00  0.00     0.079 A 
HETATM   10  C6  UNK     1      14.538  10.018  35.368  1.00  0.00     0.053 C 
HETATM   11  C7  UNK     1      16.012  11.085  33.656  1.00  0.00     0.053 C 
HETATM   12  C8  UNK     1      18.354   7.195  32.334  1.00  0.00     0.099 A 
HETATM   13  C9  UNK     1      19.581   6.942  32.944  1.00  0.00    -0.001 A 
HETATM   14  C10 UNK     1      18.821   8.180  34.873  1.00  0.00     0.038 A 
HETATM   15  C11 UNK     1      19.811   7.437  34.227  1.00  0.00     0.017 A 
HETATM   16  C12 UNK     1      20.582   6.169  32.229  1.00  0.00     0.020 A 
HETATM   17  C13 UNK     1      20.331   5.707  31.001  1.00  0.00     0.083 A 
HETATM   18  C14 UNK     1      19.044   5.955  30.327  1.00  0.00     0.288 A 
ENDROOT
BRANCH   4  19
HETATM   19  O3  UNK     1      13.576   7.852  31.915  1.00  0.00    -0.266 OA
HETATM   20  H13 UNK     1      12.611   7.887  31.810  1.00  0.00     0.247 HD
ENDBRANCH   4  19
TORSDOF 1
ENDMDL
MODEL 10
REMARK VINA RESULT:      -7.4      2.143      5.435
REMARK  1 active torsions:
REMARK  status: ('A' for Active; 'I' for Inactive)
REMARK    1  A    between atoms: N1_5  and  O3_3 
ROOT
HETATM    1  O1  UNK     1      15.123   8.018   9.210  1.00  0.00    -0.334 OA
HETATM    2  O2  UNK     1      11.198   5.189   9.679  1.00  0.00    -0.274 OA
HETATM    3  O4  UNK     1       9.310   3.909   9.888  1.00  0.00    -0.260 OA
HETATM    4  N1  UNK     1      16.341   4.723   9.799  1.00  0.00    -0.142 NA
HETATM    5  C1  UNK     1      15.918   7.142  10.012  1.00  0.00     0.103 C 
HETATM    6  C2  UNK     1      14.009   5.394   9.978  1.00  0.00     0.104 C 
HETATM    7  C3  UNK     1      15.480   5.685   9.892  1.00  0.00     0.078 C 
HETATM    8  C4  UNK     1      13.193   6.537   9.457  1.00  0.00     0.016 A 
HETATM    9  C5  UNK     1      13.784   7.755   9.109  1.00  0.00     0.079 A 
HETATM   10  C6  UNK     1      17.358   7.324   9.512  1.00  0.00     0.053 C 
HETATM   11  C7  UNK     1      15.839   7.584  11.478  1.00  0.00     0.053 C 
HETATM   12  C8  UNK     1      11.802   6.415   9.310  1.00  0.00     0.099 A 
HETATM   13  C9  UNK     1      11.012   7.451   8.814  1.00  0.00    -0.001 A 
HETATM   14  C10 UNK     1      13.004   8.799   8.597  1.00  0.00     0.038 A 
HETATM   15  C11 UNK     1      11.623   8.650   8.452  1.00  0.00     0.017 A 
HETATM   16  C12 UNK     1       9.579   7.250   8.687  1.00  0.00     0.020 A 
HETATM   17  C13 UNK     1       9.024   6.088   9.041  1.00  0.00     0.083 A 
HETATM   18  C14 UNK     1       9.829   4.972   9.567  1.00  0.00     0.288 A 
ENDROOT
BRANCH   4  19
HETATM   19  O3  UNK     1      15.647   3.514   9.801  1.00  0.00    -0.266 OA
HETATM   20  H13 UNK     1      16.321   2.900   9.465  1.00  0.00     0.247 HD
ENDBRANCH   4  19
TORSDOF 1
ENDMDL
