MODEL 1
REMARK VINA RESULT:      -9.9      0.000      0.000
REMARK  7 active torsions:
REMARK  status: ('A' for Active; 'I' for Inactive)
REMARK       I    between atoms: C13_15  and  N1_2 
REMARK    1  A    between atoms: C14_16  and  N1_2 
REMARK    2  A    between atoms: C1_3  and  C2_4 
REMARK    3  A    between atoms: C2_4  and  C3_5 
REMARK    4  A    between atoms: C13_15  and  C4_6 
REMARK    5  A    between atoms: C4_6  and  C5_7 
REMARK    6  A    between atoms: C17_19  and  C20_22 
REMARK    7  A    between atoms: C21_23  and  C22_24 
ROOT
HETATM    1  O1  UNK     1      20.661   0.171  31.153  1.00  0.00    -0.272 OA
HETATM    2  N1  UNK     1      18.677  -0.241  32.336  1.00  0.00    -0.327 N 
HETATM    3  C13 UNK     1      19.457   0.325  31.331  1.00  0.00     0.230 C 
HETATM    4  H18 UNK     1      17.683  -0.022  32.343  1.00  0.00     0.169 HD
ENDROOT
BRANCH   2   5
HETATM    5  C14 UNK     1      19.104  -1.092  33.384  1.00  0.00     0.034 A 
HETATM    6  C16 UNK     1      19.990  -2.119  33.103  1.00  0.00     0.030 A 
HETATM    7  C19 UNK     1      20.412  -2.957  34.136  1.00  0.00     0.013 A 
HETATM    8  C17 UNK     1      19.942  -2.756  35.435  1.00  0.00    -0.036 A 
HETATM    9  C18 UNK     1      19.050  -1.716  35.700  1.00  0.00     0.013 A 
HETATM   10  C15 UNK     1      18.628  -0.879  34.667  1.00  0.00     0.030 A 
BRANCH   8  11
HETATM   11  C20 UNK     1      20.383  -3.629  36.511  1.00  0.00     0.012 C 
HETATM   12  C21 UNK     1      20.046  -4.934  36.644  1.00  0.00     0.012 C 
BRANCH  12  13
HETATM   13  C22 UNK     1      20.509  -5.825  37.722  1.00  0.00    -0.036 A 
HETATM   14  C23 UNK     1      21.838  -5.783  38.113  1.00  0.00     0.011 A 
HETATM   15  C25 UNK     1      22.276  -6.626  39.134  1.00  0.00     0.001 A 
HETATM   16  C27 UNK     1      21.380  -7.499  39.751  1.00  0.00     0.000 A 
HETATM   17  C26 UNK     1      20.044  -7.528  39.348  1.00  0.00     0.001 A 
HETATM   18  C24 UNK     1      19.606  -6.686  38.326  1.00  0.00     0.011 A 
ENDBRANCH  12  13
ENDBRANCH   8  11
ENDBRANCH   2   5
BRANCH   3  19
HETATM   19  C4  UNK     1      18.598   1.193  30.387  1.00  0.00     0.107 C 
HETATM   20  C12 UNK     1      19.095   1.032  28.938  1.00  0.00     0.025 C 
BRANCH  19  21
HETATM   21  C5  UNK     1      18.560   2.622  30.812  1.00  0.00    -0.045 A 
HETATM   22  C10 UNK     1      18.142   2.954  32.101  1.00  0.00     0.008 A 
HETATM   23  C6  UNK     1      18.105   4.290  32.500  1.00  0.00     0.007 A 
HETATM   24  C3  UNK     1      18.487   5.277  31.604  1.00  0.00    -0.058 A 
HETATM   25  C7  UNK     1      18.904   4.962  30.321  1.00  0.00     0.007 A 
HETATM   26  C11 UNK     1      18.941   3.626  29.922  1.00  0.00     0.008 A 
BRANCH  24  27
HETATM   27  C2  UNK     1      18.447   6.723  32.035  1.00  0.00     0.042 C 
BRANCH  27  28
HETATM   28  C1  UNK     1      19.248   7.013  33.318  1.00  0.00    -0.019 C 
HETATM   29  C8  UNK     1      20.755   6.848  33.104  1.00  0.00     0.010 C 
HETATM   30  C9  UNK     1      18.950   8.433  33.805  1.00  0.00     0.010 C 
ENDBRANCH  27  28
ENDBRANCH  24  27
ENDBRANCH  19  21
ENDBRANCH   3  19
TORSDOF 7
ENDMDL
MODEL 2
REMARK VINA RESULT:      -9.5      2.538     10.936
REMARK  7 active torsions:
REMARK  status: ('A' for Active; 'I' for Inactive)
REMARK       I    between atoms: C13_15  and  N1_2 
REMARK    1  A    between atoms: C14_16  and  N1_2 
REMARK    2  A    between atoms: C1_3  and  C2_4 
REMARK    3  A    between atoms: C2_4  and  C3_5 
REMARK    4  A    between atoms: C13_15  and  C4_6 
REMARK    5  A    between atoms: C4_6  and  C5_7 
REMARK    6  A    between atoms: C17_19  and  C20_22 
REMARK    7  A    between atoms: C21_23  and  C22_24 
ROOT
HETATM    1  O1  UNK     1      17.555   1.928  29.289  1.00  0.00    -0.272 OA
HETATM    2  N1  UNK     1      19.404   2.770  30.463  1.00  0.00    -0.327 N 
HETATM    3  C13 UNK     1      18.700   1.827  29.719  1.00  0.00     0.230 C 
HETATM    4  H18 UNK     1      20.356   2.539  30.738  1.00  0.00     0.169 HD
ENDROOT
BRANCH   2   5
HETATM    5  C14 UNK     1      18.948   4.035  30.906  1.00  0.00     0.034 A 
HETATM    6  C16 UNK     1      19.234   5.161  30.152  1.00  0.00     0.030 A 
HETATM    7  C19 UNK     1      18.783   6.407  30.588  1.00  0.00     0.013 A 
HETATM    8  C17 UNK     1      18.054   6.510  31.773  1.00  0.00    -0.036 A 
HETATM    9  C18 UNK     1      17.774   5.366  32.521  1.00  0.00     0.013 A 
HETATM   10  C15 UNK     1      18.225   4.120  32.085  1.00  0.00     0.030 A 
BRANCH   8  11
HETATM   11  C20 UNK     1      17.584   7.809  32.227  1.00  0.00     0.012 C 
HETATM   12  C21 UNK     1      17.965   8.420  33.374  1.00  0.00     0.012 C 
BRANCH  12  13
HETATM   13  C22 UNK     1      17.506   9.745  33.825  1.00  0.00    -0.036 A 
HETATM   14  C23 UNK     1      18.421  10.779  33.935  1.00  0.00     0.011 A 
HETATM   15  C25 UNK     1      17.986  12.034  34.361  1.00  0.00     0.001 A 
HETATM   16  C27 UNK     1      16.642  12.238  34.671  1.00  0.00     0.000 A 
HETATM   17  C26 UNK     1      15.731  11.186  34.553  1.00  0.00     0.001 A 
HETATM   18  C24 UNK     1      16.167   9.931  34.128  1.00  0.00     0.011 A 
ENDBRANCH  12  13
ENDBRANCH   8  11
ENDBRANCH   2   5
BRANCH   3  19
HETATM   19  C4  UNK     1      19.565   0.579  29.446  1.00  0.00     0.107 C 
HETATM   20  C12 UNK     1      18.997  -0.193  28.240  1.00  0.00     0.025 C 
BRANCH  19  21
HETATM   21  C5  UNK     1      19.704  -0.287  30.653  1.00  0.00    -0.045 A 
HETATM   22  C10 UNK     1      18.888  -0.070  31.764  1.00  0.00     0.008 A 
HETATM   23  C6  UNK     1      19.017  -0.878  32.893  1.00  0.00     0.007 A 
HETATM   24  C3  UNK     1      19.961  -1.894  32.896  1.00  0.00    -0.058 A 
HETATM   25  C7  UNK     1      20.777  -2.121  31.800  1.00  0.00     0.007 A 
HETATM   26  C11 UNK     1      20.648  -1.313  30.671  1.00  0.00     0.008 A 
BRANCH  24  27
HETATM   27  C2  UNK     1      20.101  -2.769  34.118  1.00  0.00     0.042 C 
BRANCH  27  28
HETATM   28  C1  UNK     1      20.081  -1.991  35.448  1.00  0.00    -0.019 C 
HETATM   29  C8  UNK     1      18.670  -1.528  35.821  1.00  0.00     0.010 C 
HETATM   30  C9  UNK     1      20.649  -2.865  36.568  1.00  0.00     0.010 C 
ENDBRANCH  27  28
ENDBRANCH  24  27
ENDBRANCH  19  21
ENDBRANCH   3  19
TORSDOF 7
ENDMDL
MODEL 3
REMARK VINA RESULT:      -9.0      6.401      9.888
REMARK  7 active torsions:
REMARK  status: ('A' for Active; 'I' for Inactive)
REMARK       I    between atoms: C13_15  and  N1_2 
REMARK    1  A    between atoms: C14_16  and  N1_2 
REMARK    2  A    between atoms: C1_3  and  C2_4 
REMARK    3  A    between atoms: C2_4  and  C3_5 
REMARK    4  A    between atoms: C13_15  and  C4_6 
REMARK    5  A    between atoms: C4_6  and  C5_7 
REMARK    6  A    between atoms: C17_19  and  C20_22 
REMARK    7  A    between atoms: C21_23  and  C22_24 
ROOT
HETATM    1  O1  UNK     1      15.603   9.184  32.451  1.00  0.00    -0.272 OA
HETATM    2  N1  UNK     1      17.221   8.157  33.807  1.00  0.00    -0.327 N 
HETATM    3  C13 UNK     1      16.270   9.120  33.480  1.00  0.00     0.230 C 
HETATM    4  H18 UNK     1      17.683   8.238  34.709  1.00  0.00     0.169 HD
ENDROOT
BRANCH   2   5
HETATM    5  C14 UNK     1      17.645   7.061  33.019  1.00  0.00     0.034 A 
HETATM    6  C16 UNK     1      18.199   7.297  31.771  1.00  0.00     0.030 A 
HETATM    7  C19 UNK     1      18.619   6.217  30.995  1.00  0.00     0.013 A 
HETATM    8  C17 UNK     1      18.479   4.914  31.477  1.00  0.00    -0.036 A 
HETATM    9  C18 UNK     1      17.918   4.694  32.736  1.00  0.00     0.013 A 
HETATM   10  C15 UNK     1      17.498   5.774  33.511  1.00  0.00     0.030 A 
BRANCH   8  11
HETATM   11  C20 UNK     1      18.917   3.789  30.668  1.00  0.00     0.012 C 
HETATM   12  C21 UNK     1      18.638   2.488  30.925  1.00  0.00     0.012 C 
BRANCH  12  13
HETATM   13  C22 UNK     1      19.064   1.349  30.094  1.00  0.00    -0.036 A 
HETATM   14  C23 UNK     1      18.419   1.106  28.892  1.00  0.00     0.011 A 
HETATM   15  C25 UNK     1      18.822   0.027  28.106  1.00  0.00     0.001 A 
HETATM   16  C27 UNK     1      19.866  -0.794  28.531  1.00  0.00     0.000 A 
HETATM   17  C26 UNK     1      20.508  -0.536  29.743  1.00  0.00     0.001 A 
HETATM   18  C24 UNK     1      20.104   0.542  30.530  1.00  0.00     0.011 A 
ENDBRANCH  12  13
ENDBRANCH   8  11
ENDBRANCH   2   5
BRANCH   3  19
HETATM   19  C4  UNK     1      16.103  10.145  34.622  1.00  0.00     0.107 C 
HETATM   20  C12 UNK     1      14.644  10.143  35.115  1.00  0.00     0.025 C 
BRANCH  19  21
HETATM   21  C5  UNK     1      16.562  11.509  34.229  1.00  0.00    -0.045 A 
HETATM   22  C10 UNK     1      15.632  12.537  34.069  1.00  0.00     0.008 A 
HETATM   23  C6  UNK     1      16.059  13.812  33.701  1.00  0.00     0.007 A 
HETATM   24  C3  UNK     1      17.411  14.043  33.496  1.00  0.00    -0.058 A 
HETATM   25  C7  UNK     1      18.345  13.032  33.650  1.00  0.00     0.007 A 
HETATM   26  C11 UNK     1      17.918  11.756  34.019  1.00  0.00     0.008 A 
BRANCH  24  27
HETATM   27  C2  UNK     1      17.873  15.423  33.097  1.00  0.00     0.042 C 
BRANCH  27  28
HETATM   28  C1  UNK     1      19.378  15.508  32.775  1.00  0.00    -0.019 C 
HETATM   29  C8  UNK     1      19.633  16.009  31.351  1.00  0.00     0.010 C 
HETATM   30  C9  UNK     1      20.070  16.433  33.778  1.00  0.00     0.010 C 
ENDBRANCH  27  28
ENDBRANCH  24  27
ENDBRANCH  19  21
ENDBRANCH   3  19
TORSDOF 7
ENDMDL
MODEL 4
REMARK VINA RESULT:      -8.9      2.617     11.867
REMARK  7 active torsions:
REMARK  status: ('A' for Active; 'I' for Inactive)
REMARK       I    between atoms: C13_15  and  N1_2 
REMARK    1  A    between atoms: C14_16  and  N1_2 
REMARK    2  A    between atoms: C1_3  and  C2_4 
REMARK    3  A    between atoms: C2_4  and  C3_5 
REMARK    4  A    between atoms: C13_15  and  C4_6 
REMARK    5  A    between atoms: C4_6  and  C5_7 
REMARK    6  A    between atoms: C17_19  and  C20_22 
REMARK    7  A    between atoms: C21_23  and  C22_24 
ROOT
HETATM    1  O1  UNK     1      20.538  -3.339  34.787  1.00  0.00    -0.272 OA
HETATM    2  N1  UNK     1      18.927  -2.147  36.009  1.00  0.00    -0.327 N 
HETATM    3  C13 UNK     1      19.783  -3.214  35.746  1.00  0.00     0.230 C 
HETATM    4  H18 UNK     1      18.369  -2.188  36.859  1.00  0.00     0.169 HD
ENDROOT
BRANCH   2   5
HETATM    5  C14 UNK     1      18.722  -0.991  35.219  1.00  0.00     0.034 A 
HETATM    6  C16 UNK     1      18.595   0.241  35.841  1.00  0.00     0.030 A 
HETATM    7  C19 UNK     1      18.394   1.381  35.062  1.00  0.00     0.013 A 
HETATM    8  C17 UNK     1      18.323   1.273  33.672  1.00  0.00    -0.036 A 
HETATM    9  C18 UNK     1      18.452   0.025  33.063  1.00  0.00     0.013 A 
HETATM   10  C15 UNK     1      18.653  -1.114  33.841  1.00  0.00     0.030 A 
BRANCH   8  11
HETATM   11  C20 UNK     1      18.114   2.462  32.861  1.00  0.00     0.012 C 
HETATM   12  C21 UNK     1      18.279   3.736  33.287  1.00  0.00     0.012 C 
BRANCH  12  13
HETATM   13  C22 UNK     1      18.088   4.940  32.460  1.00  0.00    -0.036 A 
HETATM   14  C23 UNK     1      17.160   5.892  32.852  1.00  0.00     0.011 A 
HETATM   15  C25 UNK     1      16.979   7.032  32.069  1.00  0.00     0.001 A 
HETATM   16  C27 UNK     1      17.728   7.205  30.905  1.00  0.00     0.000 A 
HETATM   17  C26 UNK     1      18.660   6.238  30.525  1.00  0.00     0.001 A 
HETATM   18  C24 UNK     1      18.840   5.098  31.307  1.00  0.00     0.011 A 
ENDBRANCH  12  13
ENDBRANCH   8  11
ENDBRANCH   2   5
BRANCH   3  19
HETATM   19  C4  UNK     1      19.706  -4.274  36.865  1.00  0.00     0.107 C 
HETATM   20  C12 UNK     1      20.474  -3.778  38.105  1.00  0.00     0.025 C 
BRANCH  19  21
HETATM   21  C5  UNK     1      20.181  -5.612  36.409  1.00  0.00    -0.045 A 
HETATM   22  C10 UNK     1      21.117  -6.315  37.168  1.00  0.00     0.008 A 
HETATM   23  C6  UNK     1      21.563  -7.567  36.741  1.00  0.00     0.007 A 
HETATM   24  C3  UNK     1      21.066  -8.098  35.561  1.00  0.00    -0.058 A 
HETATM   25  C7  UNK     1      20.136  -7.412  34.798  1.00  0.00     0.007 A 
HETATM   26  C11 UNK     1      19.691  -6.160  35.224  1.00  0.00     0.008 A 
BRANCH  24  27
HETATM   27  C2  UNK     1      21.548  -9.452  35.100  1.00  0.00     0.042 C 
BRANCH  27  28
HETATM   28  C1  UNK     1      22.057 -10.355  36.240  1.00  0.00    -0.019 C 
HETATM   29  C8  UNK     1      20.908 -11.023  37.000  1.00  0.00     0.010 C 
HETATM   30  C9  UNK     1      22.991 -11.426  35.674  1.00  0.00     0.010 C 
ENDBRANCH  27  28
ENDBRANCH  24  27
ENDBRANCH  19  21
ENDBRANCH   3  19
TORSDOF 7
ENDMDL
MODEL 5
REMARK VINA RESULT:      -8.7      4.677     12.389
REMARK  7 active torsions:
REMARK  status: ('A' for Active; 'I' for Inactive)
REMARK       I    between atoms: C13_15  and  N1_2 
REMARK    1  A    between atoms: C14_16  and  N1_2 
REMARK    2  A    between atoms: C1_3  and  C2_4 
REMARK    3  A    between atoms: C2_4  and  C3_5 
REMARK    4  A    between atoms: C13_15  and  C4_6 
REMARK    5  A    between atoms: C4_6  and  C5_7 
REMARK    6  A    between atoms: C17_19  and  C20_22 
REMARK    7  A    between atoms: C21_23  and  C22_24 
ROOT
HETATM    1  O1  UNK     1      21.238  -8.307  34.282  1.00  0.00    -0.272 OA
HETATM    2  N1  UNK     1      21.120  -8.070  36.613  1.00  0.00    -0.327 N 
HETATM    3  C13 UNK     1      21.344  -8.752  35.421  1.00  0.00     0.230 C 
HETATM    4  H18 UNK     1      21.261  -8.580  37.482  1.00  0.00     0.169 HD
ENDROOT
BRANCH   2   5
HETATM    5  C14 UNK     1      20.699  -6.728  36.774  1.00  0.00     0.034 A 
HETATM    6  C16 UNK     1      21.462  -5.867  37.546  1.00  0.00     0.030 A 
HETATM    7  C19 UNK     1      21.048  -4.544  37.703  1.00  0.00     0.013 A 
HETATM    8  C17 UNK     1      19.877  -4.100  37.086  1.00  0.00    -0.036 A 
HETATM    9  C18 UNK     1      19.122  -4.981  36.311  1.00  0.00     0.013 A 
HETATM   10  C15 UNK     1      19.535  -6.304  36.155  1.00  0.00     0.030 A 
BRANCH   8  11
HETATM   11  C20 UNK     1      19.447  -2.721  37.249  1.00  0.00     0.012 C 
HETATM   12  C21 UNK     1      18.861  -1.967  36.288  1.00  0.00     0.012 C 
BRANCH  12  13
HETATM   13  C22 UNK     1      18.406  -0.577  36.459  1.00  0.00    -0.036 A 
HETATM   14  C23 UNK     1      18.636   0.342  35.447  1.00  0.00     0.011 A 
HETATM   15  C25 UNK     1      18.205   1.658  35.609  1.00  0.00     0.001 A 
HETATM   16  C27 UNK     1      17.548   2.038  36.780  1.00  0.00     0.000 A 
HETATM   17  C26 UNK     1      17.322   1.101  37.789  1.00  0.00     0.001 A 
HETATM   18  C24 UNK     1      17.755  -0.215  37.627  1.00  0.00     0.011 A 
ENDBRANCH  12  13
ENDBRANCH   8  11
ENDBRANCH   2   5
BRANCH   3  19
HETATM   19  C4  UNK     1      21.795 -10.204  35.689  1.00  0.00     0.107 C 
HETATM   20  C12 UNK     1      20.851 -10.860  36.714  1.00  0.00     0.025 C 
BRANCH  19  21
HETATM   21  C5  UNK     1      23.223 -10.282  36.111  1.00  0.00    -0.045 A 
HETATM   22  C10 UNK     1      23.816  -9.204  36.767  1.00  0.00     0.008 A 
HETATM   23  C6  UNK     1      25.152  -9.275  37.162  1.00  0.00     0.007 A 
HETATM   24  C3  UNK     1      25.878 -10.426  36.893  1.00  0.00    -0.058 A 
HETATM   25  C7  UNK     1      25.303 -11.504  36.242  1.00  0.00     0.007 A 
HETATM   26  C11 UNK     1      23.967 -11.433  35.848  1.00  0.00     0.008 A 
BRANCH  24  27
HETATM   27  C2  UNK     1      27.324 -10.504  37.319  1.00  0.00     0.042 C 
BRANCH  27  28
HETATM   28  C1  UNK     1      27.700  -9.509  38.435  1.00  0.00    -0.019 C 
HETATM   29  C8  UNK     1      27.525 -10.118  39.829  1.00  0.00     0.010 C 
HETATM   30  C9  UNK     1      29.148  -9.049  38.252  1.00  0.00     0.010 C 
ENDBRANCH  27  28
ENDBRANCH  24  27
ENDBRANCH  19  21
ENDBRANCH   3  19
TORSDOF 7
ENDMDL
MODEL 6
REMARK VINA RESULT:      -8.5      3.528     12.096
REMARK  7 active torsions:
REMARK  status: ('A' for Active; 'I' for Inactive)
REMARK       I    between atoms: C13_15  and  N1_2 
REMARK    1  A    between atoms: C14_16  and  N1_2 
REMARK    2  A    between atoms: C1_3  and  C2_4 
REMARK    3  A    between atoms: C2_4  and  C3_5 
REMARK    4  A    between atoms: C13_15  and  C4_6 
REMARK    5  A    between atoms: C4_6  and  C5_7 
REMARK    6  A    between atoms: C17_19  and  C20_22 
REMARK    7  A    between atoms: C21_23  and  C22_24 
ROOT
HETATM    1  O1  UNK     1      17.833  -6.212  36.436  1.00  0.00    -0.272 OA
HETATM    2  N1  UNK     1      19.603  -4.839  37.137  1.00  0.00    -0.327 N 
HETATM    3  C13 UNK     1      18.826  -5.994  37.124  1.00  0.00     0.230 C 
HETATM    4  H18 UNK     1      20.406  -4.817  37.761  1.00  0.00     0.169 HD
ENDROOT
BRANCH   2   5
HETATM    5  C14 UNK     1      19.405  -3.657  36.383  1.00  0.00     0.034 A 
HETATM    6  C16 UNK     1      20.150  -3.454  35.234  1.00  0.00     0.030 A 
HETATM    7  C19 UNK     1      19.954  -2.290  34.490  1.00  0.00     0.013 A 
HETATM    8  C17 UNK     1      19.015  -1.346  34.906  1.00  0.00    -0.036 A 
HETATM    9  C18 UNK     1      18.272  -1.566  36.066  1.00  0.00     0.013 A 
HETATM   10  C15 UNK     1      18.469  -2.729  36.810  1.00  0.00     0.030 A 
BRANCH   8  11
HETATM   11  C20 UNK     1      18.810  -0.133  34.130  1.00  0.00     0.012 C 
HETATM   12  C21 UNK     1      18.569   1.094  34.650  1.00  0.00     0.012 C 
BRANCH  12  13
HETATM   13  C22 UNK     1      18.382   2.327  33.865  1.00  0.00    -0.036 A 
HETATM   14  C23 UNK     1      18.356   3.549  34.517  1.00  0.00     0.011 A 
HETATM   15  C25 UNK     1      18.179   4.717  33.774  1.00  0.00     0.001 A 
HETATM   16  C27 UNK     1      18.032   4.646  32.389  1.00  0.00     0.000 A 
HETATM   17  C26 UNK     1      18.063   3.407  31.746  1.00  0.00     0.001 A 
HETATM   18  C24 UNK     1      18.238   2.240  32.489  1.00  0.00     0.011 A 
ENDBRANCH  12  13
ENDBRANCH   8  11
ENDBRANCH   2   5
BRANCH   3  19
HETATM   19  C4  UNK     1      19.389  -7.051  38.097  1.00  0.00     0.107 C 
HETATM   20  C12 UNK     1      20.177  -6.355  39.222  1.00  0.00     0.025 C 
BRANCH  19  21
HETATM   21  C5  UNK     1      20.205  -8.086  37.397  1.00  0.00    -0.045 A 
HETATM   22  C10 UNK     1      20.361  -9.351  37.964  1.00  0.00     0.008 A 
HETATM   23  C6  UNK     1      21.124 -10.319  37.311  1.00  0.00     0.007 A 
HETATM   24  C3  UNK     1      21.721 -10.008  36.099  1.00  0.00    -0.058 A 
HETATM   25  C7  UNK     1      21.574  -8.756  35.524  1.00  0.00     0.007 A 
HETATM   26  C11 UNK     1      20.811  -7.788  36.177  1.00  0.00     0.008 A 
BRANCH  24  27
HETATM   27  C2  UNK     1      22.546 -11.055  35.391  1.00  0.00     0.042 C 
BRANCH  27  28
HETATM   28  C1  UNK     1      23.741 -11.569  36.217  1.00  0.00    -0.019 C 
HETATM   29  C8  UNK     1      24.373 -12.818  35.596  1.00  0.00     0.010 C 
HETATM   30  C9  UNK     1      24.796 -10.468  36.344  1.00  0.00     0.010 C 
ENDBRANCH  27  28
ENDBRANCH  24  27
ENDBRANCH  19  21
ENDBRANCH   3  19
TORSDOF 7
ENDMDL
MODEL 7
REMARK VINA RESULT:      -8.3     10.290     14.670
REMARK  7 active torsions:
REMARK  status: ('A' for Active; 'I' for Inactive)
REMARK       I    between atoms: C13_15  and  N1_2 
REMARK    1  A    between atoms: C14_16  and  N1_2 
REMARK    2  A    between atoms: C1_3  and  C2_4 
REMARK    3  A    between atoms: C2_4  and  C3_5 
REMARK    4  A    between atoms: C13_15  and  C4_6 
REMARK    5  A    between atoms: C4_6  and  C5_7 
REMARK    6  A    between atoms: C17_19  and  C20_22 
REMARK    7  A    between atoms: C21_23  and  C22_24 
ROOT
HETATM    1  O1  UNK     1      30.446  -6.056  36.365  1.00  0.00    -0.272 OA
HETATM    2  N1  UNK     1      30.190  -7.006  38.496  1.00  0.00    -0.327 N 
HETATM    3  C13 UNK     1      30.900  -6.446  37.437  1.00  0.00     0.230 C 
HETATM    4  H18 UNK     1      30.713  -7.270  39.327  1.00  0.00     0.169 HD
ENDROOT
BRANCH   2   5
HETATM    5  C14 UNK     1      28.801  -7.272  38.560  1.00  0.00     0.034 A 
HETATM    6  C16 UNK     1      27.912  -6.213  38.649  1.00  0.00     0.030 A 
HETATM    7  C19 UNK     1      26.543  -6.475  38.709  1.00  0.00     0.013 A 
HETATM    8  C17 UNK     1      26.082  -7.792  38.681  1.00  0.00    -0.036 A 
HETATM    9  C18 UNK     1      26.992  -8.846  38.591  1.00  0.00     0.013 A 
HETATM   10  C15 UNK     1      28.360  -8.584  38.531  1.00  0.00     0.030 A 
BRANCH   8  11
HETATM   11  C20 UNK     1      24.655  -8.065  38.744  1.00  0.00     0.012 C 
HETATM   12  C21 UNK     1      23.709  -7.183  39.146  1.00  0.00     0.012 C 
BRANCH  12  13
HETATM   13  C22 UNK     1      22.262  -7.451  39.190  1.00  0.00    -0.036 A 
HETATM   14  C23 UNK     1      21.818  -8.746  39.405  1.00  0.00     0.011 A 
HETATM   15  C25 UNK     1      20.447  -9.001  39.447  1.00  0.00     0.001 A 
HETATM   16  C27 UNK     1      19.539  -7.957  39.274  1.00  0.00     0.000 A 
HETATM   17  C26 UNK     1      20.001  -6.657  39.061  1.00  0.00     0.001 A 
HETATM   18  C24 UNK     1      21.372  -6.403  39.017  1.00  0.00     0.011 A 
ENDBRANCH  12  13
ENDBRANCH   8  11
ENDBRANCH   2   5
BRANCH   3  19
HETATM   19  C4  UNK     1      32.400  -6.328  37.777  1.00  0.00     0.107 C 
HETATM   20  C12 UNK     1      32.652  -5.035  38.576  1.00  0.00     0.025 C 
BRANCH  19  21
HETATM   21  C5  UNK     1      33.263  -6.415  36.563  1.00  0.00    -0.045 A 
HETATM   22  C10 UNK     1      33.835  -5.260  36.030  1.00  0.00     0.008 A 
HETATM   23  C6  UNK     1      34.641  -5.340  34.895  1.00  0.00     0.007 A 
HETATM   24  C3  UNK     1      34.865  -6.576  34.307  1.00  0.00    -0.058 A 
HETATM   25  C7  UNK     1      34.304  -7.731  34.826  1.00  0.00     0.007 A 
HETATM   26  C11 UNK     1      33.497  -7.651  35.961  1.00  0.00     0.008 A 
BRANCH  24  27
HETATM   27  C2  UNK     1      35.737  -6.663  33.078  1.00  0.00     0.042 C 
BRANCH  27  28
HETATM   28  C1  UNK     1      35.380  -7.834  32.143  1.00  0.00    -0.019 C 
HETATM   29  C8  UNK     1      35.055  -7.358  30.725  1.00  0.00     0.010 C 
HETATM   30  C9  UNK     1      36.540  -8.832  32.097  1.00  0.00     0.010 C 
ENDBRANCH  27  28
ENDBRANCH  24  27
ENDBRANCH  19  21
ENDBRANCH   3  19
TORSDOF 7
ENDMDL
MODEL 8
REMARK VINA RESULT:      -8.2      6.724     14.360
REMARK  7 active torsions:
REMARK  status: ('A' for Active; 'I' for Inactive)
REMARK       I    between atoms: C13_15  and  N1_2 
REMARK    1  A    between atoms: C14_16  and  N1_2 
REMARK    2  A    between atoms: C1_3  and  C2_4 
REMARK    3  A    between atoms: C2_4  and  C3_5 
REMARK    4  A    between atoms: C13_15  and  C4_6 
REMARK    5  A    between atoms: C4_6  and  C5_7 
REMARK    6  A    between atoms: C17_19  and  C20_22 
REMARK    7  A    between atoms: C21_23  and  C22_24 
ROOT
HETATM    1  O1  UNK     1      16.719   7.440  35.451  1.00  0.00    -0.272 OA
HETATM    2  N1  UNK     1      17.346   9.111  33.928  1.00  0.00    -0.327 N 
HETATM    3  C13 UNK     1      17.528   7.958  34.687  1.00  0.00     0.230 C 
HETATM    4  H18 UNK     1      18.115   9.409  33.331  1.00  0.00     0.169 HD
ENDROOT
BRANCH   2   5
HETATM    5  C14 UNK     1      16.206   9.949  33.890  1.00  0.00     0.034 A 
HETATM    6  C16 UNK     1      16.238  11.167  34.550  1.00  0.00     0.030 A 
HETATM    7  C19 UNK     1      15.115  11.993  34.511  1.00  0.00     0.013 A 
HETATM    8  C17 UNK     1      13.976  11.591  33.812  1.00  0.00    -0.036 A 
HETATM    9  C18 UNK     1      13.961  10.362  33.153  1.00  0.00     0.013 A 
HETATM   10  C15 UNK     1      15.083   9.535  33.192  1.00  0.00     0.030 A 
BRANCH   8  11
HETATM   11  C20 UNK     1      12.806  12.453  33.772  1.00  0.00     0.012 C 
HETATM   12  C21 UNK     1      11.679  12.207  33.061  1.00  0.00     0.012 C 
BRANCH  12  13
HETATM   13  C22 UNK     1      10.485  13.069  33.036  1.00  0.00    -0.036 A 
HETATM   14  C23 UNK     1      10.610  14.410  33.365  1.00  0.00     0.011 A 
HETATM   15  C25 UNK     1       9.479  15.227  33.341  1.00  0.00     0.001 A 
HETATM   16  C27 UNK     1       8.240  14.693  32.988  1.00  0.00     0.000 A 
HETATM   17  C26 UNK     1       8.131  13.341  32.657  1.00  0.00     0.001 A 
HETATM   18  C24 UNK     1       9.261  12.524  32.683  1.00  0.00     0.011 A 
ENDBRANCH  12  13
ENDBRANCH   8  11
ENDBRANCH   2   5
BRANCH   3  19
HETATM   19  C4  UNK     1      18.920   7.341  34.433  1.00  0.00     0.107 C 
HETATM   20  C12 UNK     1      19.973   8.460  34.327  1.00  0.00     0.025 C 
BRANCH  19  21
HETATM   21  C5  UNK     1      18.931   6.444  33.241  1.00  0.00    -0.045 A 
HETATM   22  C10 UNK     1      19.974   6.526  32.318  1.00  0.00     0.008 A 
HETATM   23  C6  UNK     1      19.985   5.689  31.202  1.00  0.00     0.007 A 
HETATM   24  C3  UNK     1      18.954   4.780  31.025  1.00  0.00    -0.058 A 
HETATM   25  C7  UNK     1      17.912   4.687  31.934  1.00  0.00     0.007 A 
HETATM   26  C11 UNK     1      17.900   5.525  33.049  1.00  0.00     0.008 A 
BRANCH  24  27
HETATM   27  C2  UNK     1      18.966   3.873  29.818  1.00  0.00     0.042 C 
BRANCH  27  28
HETATM   28  C1  UNK     1      18.228   2.538  30.034  1.00  0.00    -0.019 C 
HETATM   29  C8  UNK     1      17.788   1.905  28.711  1.00  0.00     0.010 C 
HETATM   30  C9  UNK     1      19.130   1.565  30.795  1.00  0.00     0.010 C 
ENDBRANCH  27  28
ENDBRANCH  24  27
ENDBRANCH  19  21
ENDBRANCH   3  19
TORSDOF 7
ENDMDL
MODEL 9
REMARK VINA RESULT:      -8.2     26.126     29.038
REMARK  7 active torsions:
REMARK  status: ('A' for Active; 'I' for Inactive)
REMARK       I    between atoms: C13_15  and  N1_2 
REMARK    1  A    between atoms: C14_16  and  N1_2 
REMARK    2  A    between atoms: C1_3  and  C2_4 
REMARK    3  A    between atoms: C2_4  and  C3_5 
REMARK    4  A    between atoms: C13_15  and  C4_6 
REMARK    5  A    between atoms: C4_6  and  C5_7 
REMARK    6  A    between atoms: C17_19  and  C20_22 
REMARK    7  A    between atoms: C21_23  and  C22_24 
ROOT
HETATM    1  O1  UNK     1      17.969  12.209  11.142  1.00  0.00    -0.272 OA
HETATM    2  N1  UNK     1      18.399  10.431   9.672  1.00  0.00    -0.327 N 
HETATM    3  C13 UNK     1      18.732  11.524  10.467  1.00  0.00     0.230 C 
HETATM    4  H18 UNK     1      19.153   9.959   9.178  1.00  0.00     0.169 HD
ENDROOT
BRANCH   2   5
HETATM    5  C14 UNK     1      17.111   9.888   9.446  1.00  0.00     0.034 A 
HETATM    6  C16 UNK     1      16.235  10.551   8.601  1.00  0.00     0.030 A 
HETATM    7  C19 UNK     1      14.967  10.014   8.378  1.00  0.00     0.013 A 
HETATM    8  C17 UNK     1      14.592   8.824   9.002  1.00  0.00    -0.036 A 
HETATM    9  C18 UNK     1      15.487   8.170   9.849  1.00  0.00     0.013 A 
HETATM   10  C15 UNK     1      16.754   8.706  10.073  1.00  0.00     0.030 A 
BRANCH   8  11
HETATM   11  C20 UNK     1      13.270   8.265   8.768  1.00  0.00     0.012 C 
HETATM   12  C21 UNK     1      12.809   7.827   7.572  1.00  0.00     0.012 C 
BRANCH  12  13
HETATM   13  C22 UNK     1      11.478   7.241   7.338  1.00  0.00    -0.036 A 
HETATM   14  C23 UNK     1      11.189   6.682   6.104  1.00  0.00     0.011 A 
HETATM   15  C25 UNK     1       9.929   6.128   5.882  1.00  0.00     0.001 A 
HETATM   16  C27 UNK     1       8.973   6.140   6.899  1.00  0.00     0.000 A 
HETATM   17  C26 UNK     1       9.279   6.705   8.137  1.00  0.00     0.001 A 
HETATM   18  C24 UNK     1      10.539   7.260   8.358  1.00  0.00     0.011 A 
ENDBRANCH  12  13
ENDBRANCH   8  11
ENDBRANCH   2   5
BRANCH   3  19
HETATM   19  C4  UNK     1      20.253  11.786  10.440  1.00  0.00     0.107 C 
HETATM   20  C12 UNK     1      20.692  12.439  11.764  1.00  0.00     0.025 C 
BRANCH  19  21
HETATM   21  C5  UNK     1      20.666  12.590   9.253  1.00  0.00    -0.045 A 
HETATM   22  C10 UNK     1      21.704  12.142   8.436  1.00  0.00     0.008 A 
HETATM   23  C6  UNK     1      22.092  12.892   7.326  1.00  0.00     0.007 A 
HETATM   24  C3  UNK     1      21.436  14.082   7.048  1.00  0.00    -0.058 A 
HETATM   25  C7  UNK     1      20.404  14.539   7.850  1.00  0.00     0.007 A 
HETATM   26  C11 UNK     1      20.016  13.788   8.960  1.00  0.00     0.008 A 
BRANCH  24  27
HETATM   27  C2  UNK     1      21.856  14.894   5.847  1.00  0.00     0.042 C 
BRANCH  27  28
HETATM   28  C1  UNK     1      20.770  15.007   4.760  1.00  0.00    -0.019 C 
HETATM   29  C8  UNK     1      20.903  16.297   3.947  1.00  0.00     0.010 C 
HETATM   30  C9  UNK     1      20.847  13.799   3.824  1.00  0.00     0.010 C 
ENDBRANCH  27  28
ENDBRANCH  24  27
ENDBRANCH  19  21
ENDBRANCH   3  19
TORSDOF 7
ENDMDL
MODEL 10
REMARK VINA RESULT:      -8.1     26.056     27.933
REMARK  7 active torsions:
REMARK  status: ('A' for Active; 'I' for Inactive)
REMARK       I    between atoms: C13_15  and  N1_2 
REMARK    1  A    between atoms: C14_16  and  N1_2 
REMARK    2  A    between atoms: C1_3  and  C2_4 
REMARK    3  A    between atoms: C2_4  and  C3_5 
REMARK    4  A    between atoms: C13_15  and  C4_6 
REMARK    5  A    between atoms: C4_6  and  C5_7 
REMARK    6  A    between atoms: C17_19  and  C20_22 
REMARK    7  A    between atoms: C21_23  and  C22_24 
ROOT
HETATM    1  O1  UNK     1      20.051  11.411   7.966  1.00  0.00    -0.272 OA
HETATM    2  N1  UNK     1      18.295  12.344   9.213  1.00  0.00    -0.327 N 
HETATM    3  C13 UNK     1      19.582  12.289   8.685  1.00  0.00     0.230 C 
HETATM    4  H18 UNK     1      18.054  13.149   9.787  1.00  0.00     0.169 HD
ENDROOT
BRANCH   2   5
HETATM    5  C14 UNK     1      17.258  11.393   9.059  1.00  0.00     0.034 A 
HETATM    6  C16 UNK     1      17.247  10.266   9.866  1.00  0.00     0.030 A 
HETATM    7  C19 UNK     1      16.224   9.330   9.716  1.00  0.00     0.013 A 
HETATM    8  C17 UNK     1      15.225   9.533   8.762  1.00  0.00    -0.036 A 
HETATM    9  C18 UNK     1      15.251  10.673   7.958  1.00  0.00     0.013 A 
HETATM   10  C15 UNK     1      16.275  11.609   8.108  1.00  0.00     0.030 A 
BRANCH   8  11
HETATM   11  C20 UNK     1      14.159   8.557   8.606  1.00  0.00     0.012 C 
HETATM   12  C21 UNK     1      12.835   8.824   8.713  1.00  0.00     0.012 C 
BRANCH  12  13
HETATM   13  C22 UNK     1      11.753   7.840   8.535  1.00  0.00    -0.036 A 
HETATM   14  C23 UNK     1      12.025   6.641   7.897  1.00  0.00     0.011 A 
HETATM   15  C25 UNK     1      11.001   5.709   7.729  1.00  0.00     0.001 A 
HETATM   16  C27 UNK     1       9.719   5.989   8.201  1.00  0.00     0.000 A 
HETATM   17  C26 UNK     1       9.461   7.201   8.844  1.00  0.00     0.001 A 
HETATM   18  C24 UNK     1      10.485   8.133   9.011  1.00  0.00     0.011 A 
ENDBRANCH  12  13
ENDBRANCH   8  11
ENDBRANCH   2   5
BRANCH   3  19
HETATM   19  C4  UNK     1      20.401  13.532   9.092  1.00  0.00     0.107 C 
HETATM   20  C12 UNK     1      20.801  14.326   7.834  1.00  0.00     0.025 C 
BRANCH  19  21
HETATM   21  C5  UNK     1      21.582  13.179   9.933  1.00  0.00    -0.045 A 
HETATM   22  C10 UNK     1      22.851  13.635   9.578  1.00  0.00     0.008 A 
HETATM   23  C6  UNK     1      23.956  13.306  10.363  1.00  0.00     0.007 A 
HETATM   24  C3  UNK     1      23.776  12.525  11.494  1.00  0.00    -0.058 A 
HETATM   25  C7  UNK     1      22.522  12.065  11.859  1.00  0.00     0.007 A 
HETATM   26  C11 UNK     1      21.417  12.394  11.074  1.00  0.00     0.008 A 
BRANCH  24  27
HETATM   27  C2  UNK     1      24.972  12.168  12.344  1.00  0.00     0.042 C 
BRANCH  27  28
HETATM   28  C1  UNK     1      26.186  11.673  11.535  1.00  0.00    -0.019 C 
HETATM   29  C8  UNK     1      27.467  12.428  11.903  1.00  0.00     0.010 C 
HETATM   30  C9  UNK     1      26.388  10.174  11.768  1.00  0.00     0.010 C 
ENDBRANCH  27  28
ENDBRANCH  24  27
ENDBRANCH  19  21
ENDBRANCH   3  19
TORSDOF 7
ENDMDL
