MODEL 1
REMARK VINA RESULT:      -8.8      0.000      0.000
REMARK  6 active torsions:
REMARK  status: ('A' for Active; 'I' for Inactive)
REMARK    1  A    between atoms: C1_6  and  O1_3 
REMARK    2  A    between atoms: C4_9  and  O1_3 
REMARK    3  A    between atoms: C3_8  and  O2_4 
REMARK    4  A    between atoms: C2_7  and  C9_14 
REMARK    5  A    between atoms: C4_9  and  C6_11 
REMARK    6  A    between atoms: C10_15  and  C11_16 
ROOT
HETATM    1  N1  UNK     1      17.903   2.357  33.592  1.00  0.00    -0.191 NA
HETATM    2  C9  UNK     1      18.736   4.289  30.861  1.00  0.00     0.036 C 
HETATM    3  C10 UNK     1      18.611   2.970  31.167  1.00  0.00     0.055 C 
HETATM    4  C23 UNK     1      18.219   2.640  32.513  1.00  0.00     0.100 C 
ENDROOT
BRANCH   3   5
HETATM    5  C11 UNK     1      18.841   1.893  30.217  1.00  0.00    -0.015 A 
HETATM    6  C16 UNK     1      19.840   0.950  30.459  1.00  0.00     0.013 A 
HETATM    7  C19 UNK     1      20.059  -0.083  29.548  1.00  0.00     0.001 A 
HETATM    8  C21 UNK     1      19.279  -0.175  28.395  1.00  0.00     0.000 A 
HETATM    9  C20 UNK     1      18.280   0.768  28.153  1.00  0.00     0.001 A 
HETATM   10  C17 UNK     1      18.061   1.802  29.065  1.00  0.00     0.013 A 
ENDBRANCH   3   5
BRANCH   2  11
HETATM   11  C2  UNK     1      18.508   5.408  31.785  1.00  0.00    -0.015 A 
HETATM   12  C5  UNK     1      17.194   5.666  32.156  1.00  0.00     0.052 A 
HETATM   13  C3  UNK     1      16.919   6.717  33.032  1.00  0.00     0.102 A 
HETATM   14  C1  UNK     1      17.959   7.500  33.529  1.00  0.00     0.103 A 
HETATM   15  C7  UNK     1      19.275   7.234  33.150  1.00  0.00     0.059 A 
HETATM   16  C8  UNK     1      19.550   6.184  32.275  1.00  0.00     0.024 A 
HETATM   17 Br1  UNK     1      21.365   5.875  31.801  1.00  0.00    -0.050 Br
BRANCH  13  18
HETATM   18  O2  UNK     1      15.629   6.967  33.393  1.00  0.00    -0.353 OA
HETATM   19  C22 UNK     1      14.723   7.326  32.354  1.00  0.00     0.210 C 
ENDBRANCH  13  18
BRANCH  14  20
HETATM   20  O1  UNK     1      17.703   8.530  34.384  1.00  0.00    -0.344 OA
BRANCH  20  21
HETATM   21  C4  UNK     1      17.653   9.840  33.823  1.00  0.00     0.214 C 
BRANCH  21  22
HETATM   22  C6  UNK     1      16.563  10.620  34.498  1.00  0.00    -0.034 A 
HETATM   23  C12 UNK     1      15.421   9.963  34.943  1.00  0.00     0.011 A 
HETATM   24  C14 UNK     1      14.408  10.687  35.572  1.00  0.00     0.019 A 
HETATM   25  C18 UNK     1      14.544  12.064  35.751  1.00  0.00     0.011 A 
HETATM   26 Br2  UNK     1      13.172  13.045  36.604  1.00  0.00    -0.051 Br
HETATM   27  C15 UNK     1      15.692  12.717  35.302  1.00  0.00     0.019 A 
HETATM   28  C13 UNK     1      16.705  11.992  34.673  1.00  0.00     0.011 A 
ENDBRANCH  21  22
ENDBRANCH  20  21
ENDBRANCH  14  20
ENDBRANCH   2  11
TORSDOF 6
ENDMDL
MODEL 2
REMARK VINA RESULT:      -8.4      1.240      1.923
REMARK  6 active torsions:
REMARK  status: ('A' for Active; 'I' for Inactive)
REMARK    1  A    between atoms: C1_6  and  O1_3 
REMARK    2  A    between atoms: C4_9  and  O1_3 
REMARK    3  A    between atoms: C3_8  and  O2_4 
REMARK    4  A    between atoms: C2_7  and  C9_14 
REMARK    5  A    between atoms: C4_9  and  C6_11 
REMARK    6  A    between atoms: C10_15  and  C11_16 
ROOT
HETATM    1  N1  UNK     1      17.925   2.861  33.800  1.00  0.00    -0.191 NA
HETATM    2  C9  UNK     1      18.554   4.670  30.933  1.00  0.00     0.036 C 
HETATM    3  C10 UNK     1      18.490   3.366  31.313  1.00  0.00     0.055 C 
HETATM    4  C23 UNK     1      18.176   3.096  32.693  1.00  0.00     0.100 C 
ENDROOT
BRANCH   3   5
HETATM    5  C11 UNK     1      18.711   2.247  30.410  1.00  0.00    -0.015 A 
HETATM    6  C16 UNK     1      18.124   2.244  29.145  1.00  0.00     0.013 A 
HETATM    7  C19 UNK     1      18.338   1.171  28.280  1.00  0.00     0.001 A 
HETATM    8  C21 UNK     1      19.140   0.102  28.678  1.00  0.00     0.000 A 
HETATM    9  C20 UNK     1      19.728   0.105  29.943  1.00  0.00     0.001 A 
HETATM   10  C17 UNK     1      19.514   1.179  30.810  1.00  0.00     0.013 A 
ENDBRANCH   3   5
BRANCH   2  11
HETATM   11  C2  UNK     1      18.332   5.829  31.809  1.00  0.00    -0.015 A 
HETATM   12  C5  UNK     1      17.016   6.228  32.012  1.00  0.00     0.052 A 
HETATM   13  C3  UNK     1      16.747   7.322  32.834  1.00  0.00     0.102 A 
HETATM   14  C1  UNK     1      17.795   8.008  33.447  1.00  0.00     0.103 A 
HETATM   15  C7  UNK     1      19.113   7.601  33.236  1.00  0.00     0.059 A 
HETATM   16  C8  UNK     1      19.381   6.507  32.414  1.00  0.00     0.024 A 
HETATM   17 Br1  UNK     1      21.199   6.004  32.171  1.00  0.00    -0.050 Br
BRANCH  13  18
HETATM   18  O2  UNK     1      15.456   7.710  33.031  1.00  0.00    -0.353 OA
HETATM   19  C22 UNK     1      14.469   7.133  32.181  1.00  0.00     0.210 C 
ENDBRANCH  13  18
BRANCH  14  20
HETATM   20  O1  UNK     1      17.545   9.079  34.251  1.00  0.00    -0.344 OA
BRANCH  20  21
HETATM   21  C4  UNK     1      18.453  10.176  34.169  1.00  0.00     0.214 C 
BRANCH  21  22
HETATM   22  C6  UNK     1      17.670  11.449  34.021  1.00  0.00    -0.034 A 
HETATM   23  C12 UNK     1      18.341  12.646  33.797  1.00  0.00     0.011 A 
HETATM   24  C14 UNK     1      17.614  13.829  33.657  1.00  0.00     0.019 A 
HETATM   25  C18 UNK     1      16.222  13.806  33.743  1.00  0.00     0.011 A 
HETATM   26 Br2  UNK     1      15.238  15.408  33.553  1.00  0.00    -0.051 Br
HETATM   27  C15 UNK     1      15.556  12.601  33.968  1.00  0.00     0.019 A 
HETATM   28  C13 UNK     1      16.283  11.419  34.107  1.00  0.00     0.011 A 
ENDBRANCH  21  22
ENDBRANCH  20  21
ENDBRANCH  14  20
ENDBRANCH   2  11
TORSDOF 6
ENDMDL
MODEL 3
REMARK VINA RESULT:      -8.3     18.489     20.414
REMARK  6 active torsions:
REMARK  status: ('A' for Active; 'I' for Inactive)
REMARK    1  A    between atoms: C1_6  and  O1_3 
REMARK    2  A    between atoms: C4_9  and  O1_3 
REMARK    3  A    between atoms: C3_8  and  O2_4 
REMARK    4  A    between atoms: C2_7  and  C9_14 
REMARK    5  A    between atoms: C4_9  and  C6_11 
REMARK    6  A    between atoms: C10_15  and  C11_16 
ROOT
HETATM    1  N1  UNK     1      27.258 -10.309  39.786  1.00  0.00    -0.191 NA
HETATM    2  C9  UNK     1      27.452  -8.885  36.651  1.00  0.00     0.036 C 
HETATM    3  C10 UNK     1      26.627  -9.726  37.332  1.00  0.00     0.055 C 
HETATM    4  C23 UNK     1      26.985 -10.043  38.690  1.00  0.00     0.100 C 
ENDROOT
BRANCH   3   5
HETATM    5  C11 UNK     1      25.418 -10.305  36.769  1.00  0.00    -0.015 A 
HETATM    6  C16 UNK     1      24.247  -9.550  36.704  1.00  0.00     0.013 A 
HETATM    7  C19 UNK     1      23.088 -10.107  36.163  1.00  0.00     0.001 A 
HETATM    8  C21 UNK     1      23.099 -11.417  35.685  1.00  0.00     0.000 A 
HETATM    9  C20 UNK     1      24.270 -12.172  35.751  1.00  0.00     0.001 A 
HETATM   10  C17 UNK     1      25.430 -11.616  36.292  1.00  0.00     0.013 A 
ENDBRANCH   3   5
BRANCH   2  11
HETATM   11  C2  UNK     1      28.678  -8.273  37.182  1.00  0.00    -0.015 A 
HETATM   12  C5  UNK     1      29.883  -8.884  36.859  1.00  0.00     0.052 A 
HETATM   13  C3  UNK     1      31.079  -8.346  37.335  1.00  0.00     0.102 A 
HETATM   14  C1  UNK     1      31.059  -7.201  38.130  1.00  0.00     0.103 A 
HETATM   15  C7  UNK     1      29.844  -6.594  38.450  1.00  0.00     0.059 A 
HETATM   16  C8  UNK     1      28.649  -7.133  37.974  1.00  0.00     0.024 A 
HETATM   17 Br1  UNK     1      27.030  -6.257  38.445  1.00  0.00    -0.050 Br
BRANCH  13  18
HETATM   18  O2  UNK     1      32.259  -8.948  37.017  1.00  0.00    -0.353 OA
HETATM   19  C22 UNK     1      32.549  -9.111  35.631  1.00  0.00     0.210 C 
ENDBRANCH  13  18
BRANCH  14  20
HETATM   20  O1  UNK     1      32.219  -6.666  38.603  1.00  0.00    -0.344 OA
BRANCH  20  21
HETATM   21  C4  UNK     1      32.618  -5.407  38.065  1.00  0.00     0.214 C 
BRANCH  21  22
HETATM   22  C6  UNK     1      33.384  -5.637  36.795  1.00  0.00    -0.034 A 
HETATM   23  C12 UNK     1      32.828  -5.257  35.578  1.00  0.00     0.011 A 
HETATM   24  C14 UNK     1      33.539  -5.469  34.397  1.00  0.00     0.019 A 
HETATM   25  C18 UNK     1      34.802  -6.059  34.441  1.00  0.00     0.011 A 
HETATM   26 Br2  UNK     1      35.767  -6.346  32.842  1.00  0.00    -0.051 Br
HETATM   27  C15 UNK     1      35.354  -6.438  35.665  1.00  0.00     0.019 A 
HETATM   28  C13 UNK     1      34.642  -6.226  36.846  1.00  0.00     0.011 A 
ENDBRANCH  21  22
ENDBRANCH  20  21
ENDBRANCH  14  20
ENDBRANCH   2  11
TORSDOF 6
ENDMDL
MODEL 4
REMARK VINA RESULT:      -8.3      7.382     10.106
REMARK  6 active torsions:
REMARK  status: ('A' for Active; 'I' for Inactive)
REMARK    1  A    between atoms: C1_6  and  O1_3 
REMARK    2  A    between atoms: C4_9  and  O1_3 
REMARK    3  A    between atoms: C3_8  and  O2_4 
REMARK    4  A    between atoms: C2_7  and  C9_14 
REMARK    5  A    between atoms: C4_9  and  C6_11 
REMARK    6  A    between atoms: C10_15  and  C11_16 
ROOT
HETATM    1  N1  UNK     1      17.719  -5.376  36.398  1.00  0.00    -0.191 NA
HETATM    2  C9  UNK     1      20.604  -3.543  36.845  1.00  0.00     0.036 C 
HETATM    3  C10 UNK     1      20.098  -4.743  37.234  1.00  0.00     0.055 C 
HETATM    4  C23 UNK     1      18.779  -5.085  36.766  1.00  0.00     0.100 C 
ENDROOT
BRANCH   3   5
HETATM    5  C11 UNK     1      20.811  -5.688  38.079  1.00  0.00    -0.015 A 
HETATM    6  C16 UNK     1      22.180  -5.534  38.297  1.00  0.00     0.013 A 
HETATM    7  C19 UNK     1      22.863  -6.441  39.108  1.00  0.00     0.001 A 
HETATM    8  C21 UNK     1      22.177  -7.500  39.703  1.00  0.00     0.000 A 
HETATM    9  C20 UNK     1      20.808  -7.653  39.485  1.00  0.00     0.001 A 
HETATM   10  C17 UNK     1      20.124  -6.747  38.672  1.00  0.00     0.013 A 
ENDBRANCH   3   5
BRANCH   2  11
HETATM   11  C2  UNK     1      19.922  -2.562  35.988  1.00  0.00    -0.015 A 
HETATM   12  C5  UNK     1      20.263  -2.551  34.642  1.00  0.00     0.052 A 
HETATM   13  C3  UNK     1      19.647  -1.641  33.782  1.00  0.00     0.102 A 
HETATM   14  C1  UNK     1      18.695  -0.750  34.277  1.00  0.00     0.103 A 
HETATM   15  C7  UNK     1      18.359  -0.769  35.632  1.00  0.00     0.059 A 
HETATM   16  C8  UNK     1      18.976  -1.679  36.490  1.00  0.00     0.024 A 
HETATM   17 Br1  UNK     1      18.472  -1.652  38.323  1.00  0.00    -0.050 Br
BRANCH  13  18
HETATM   18  O2  UNK     1      19.983  -1.632  32.463  1.00  0.00    -0.353 OA
HETATM   19  C22 UNK     1      20.952  -2.586  32.034  1.00  0.00     0.210 C 
ENDBRANCH  13  18
BRANCH  14  20
HETATM   20  O1  UNK     1      18.086   0.144  33.449  1.00  0.00    -0.344 OA
BRANCH  20  21
HETATM   21  C4  UNK     1      17.726   1.405  34.010  1.00  0.00     0.214 C 
BRANCH  21  22
HETATM   22  C6  UNK     1      18.088   2.493  33.041  1.00  0.00    -0.034 A 
HETATM   23  C12 UNK     1      18.167   3.809  33.483  1.00  0.00     0.011 A 
HETATM   24  C14 UNK     1      18.505   4.820  32.583  1.00  0.00     0.019 A 
HETATM   25  C18 UNK     1      18.761   4.509  31.248  1.00  0.00     0.011 A 
HETATM   26 Br2  UNK     1      19.220   5.879  30.030  1.00  0.00    -0.051 Br
HETATM   27  C15 UNK     1      18.680   3.187  30.812  1.00  0.00     0.019 A 
HETATM   28  C13 UNK     1      18.342   2.175  31.711  1.00  0.00     0.011 A 
ENDBRANCH  21  22
ENDBRANCH  20  21
ENDBRANCH  14  20
ENDBRANCH   2  11
TORSDOF 6
ENDMDL
MODEL 5
REMARK VINA RESULT:      -8.3      5.953      7.768
REMARK  6 active torsions:
REMARK  status: ('A' for Active; 'I' for Inactive)
REMARK    1  A    between atoms: C1_6  and  O1_3 
REMARK    2  A    between atoms: C4_9  and  O1_3 
REMARK    3  A    between atoms: C3_8  and  O2_4 
REMARK    4  A    between atoms: C2_7  and  C9_14 
REMARK    5  A    between atoms: C4_9  and  C6_11 
REMARK    6  A    between atoms: C10_15  and  C11_16 
ROOT
HETATM    1  N1  UNK     1      21.932  -1.706  35.322  1.00  0.00    -0.191 NA
HETATM    2  C9  UNK     1      18.587  -2.254  35.957  1.00  0.00     0.036 C 
HETATM    3  C10 UNK     1      19.772  -2.893  36.151  1.00  0.00     0.055 C 
HETATM    4  C23 UNK     1      20.963  -2.228  35.689  1.00  0.00     0.100 C 
ENDROOT
BRANCH   3   5
HETATM    5  C11 UNK     1      19.897  -4.189  36.798  1.00  0.00    -0.015 A 
HETATM    6  C16 UNK     1      18.953  -5.186  36.553  1.00  0.00     0.013 A 
HETATM    7  C19 UNK     1      19.074  -6.429  37.174  1.00  0.00     0.001 A 
HETATM    8  C21 UNK     1      20.141  -6.677  38.038  1.00  0.00     0.000 A 
HETATM    9  C20 UNK     1      21.085  -5.680  38.283  1.00  0.00     0.001 A 
HETATM   10  C17 UNK     1      20.963  -4.435  37.663  1.00  0.00     0.013 A 
ENDBRANCH   3   5
BRANCH   2  11
HETATM   11  C2  UNK     1      18.416  -0.943  35.315  1.00  0.00    -0.015 A 
HETATM   12  C5  UNK     1      18.611  -0.880  33.941  1.00  0.00     0.052 A 
HETATM   13  C3  UNK     1      18.462   0.339  33.279  1.00  0.00     0.102 A 
HETATM   14  C1  UNK     1      18.118   1.484  33.997  1.00  0.00     0.103 A 
HETATM   15  C7  UNK     1      17.925   1.411  35.377  1.00  0.00     0.059 A 
HETATM   16  C8  UNK     1      18.074   0.192  36.038  1.00  0.00     0.024 A 
HETATM   17 Br1  UNK     1      17.795   0.162  37.918  1.00  0.00    -0.050 Br
BRANCH  13  18
HETATM   18  O2  UNK     1      18.654   0.398  31.932  1.00  0.00    -0.353 OA
HETATM   19  C22 UNK     1      19.620  -0.490  31.376  1.00  0.00     0.210 C 
ENDBRANCH  13  18
BRANCH  14  20
HETATM   20  O1  UNK     1      17.970   2.681  33.363  1.00  0.00    -0.344 OA
BRANCH  20  21
HETATM   21  C4  UNK     1      18.654   3.800  33.923  1.00  0.00     0.214 C 
BRANCH  21  22
HETATM   22  C6  UNK     1      17.908   5.054  33.575  1.00  0.00    -0.034 A 
HETATM   23  C12 UNK     1      17.529   5.286  32.257  1.00  0.00     0.011 A 
HETATM   24  C14 UNK     1      16.833   6.451  31.934  1.00  0.00     0.019 A 
HETATM   25  C18 UNK     1      16.522   7.377  32.930  1.00  0.00     0.011 A 
HETATM   26 Br2  UNK     1      15.579   8.955  32.492  1.00  0.00    -0.051 Br
HETATM   27  C15 UNK     1      16.906   7.138  34.249  1.00  0.00     0.019 A 
HETATM   28  C13 UNK     1      17.602   5.973  34.573  1.00  0.00     0.011 A 
ENDBRANCH  21  22
ENDBRANCH  20  21
ENDBRANCH  14  20
ENDBRANCH   2  11
TORSDOF 6
ENDMDL
MODEL 6
REMARK VINA RESULT:      -8.0      2.240      2.723
REMARK  6 active torsions:
REMARK  status: ('A' for Active; 'I' for Inactive)
REMARK    1  A    between atoms: C1_6  and  O1_3 
REMARK    2  A    between atoms: C4_9  and  O1_3 
REMARK    3  A    between atoms: C3_8  and  O2_4 
REMARK    4  A    between atoms: C2_7  and  C9_14 
REMARK    5  A    between atoms: C4_9  and  C6_11 
REMARK    6  A    between atoms: C10_15  and  C11_16 
ROOT
HETATM    1  N1  UNK     1      20.019   6.208  29.712  1.00  0.00    -0.191 NA
HETATM    2  C9  UNK     1      17.847   4.824  32.005  1.00  0.00     0.036 C 
HETATM    3  C10 UNK     1      18.601   4.414  30.950  1.00  0.00     0.055 C 
HETATM    4  C23 UNK     1      19.383   5.415  30.271  1.00  0.00     0.100 C 
ENDROOT
BRANCH   3   5
HETATM    5  C11 UNK     1      18.664   3.037  30.486  1.00  0.00    -0.015 A 
HETATM    6  C16 UNK     1      19.118   2.032  31.340  1.00  0.00     0.013 A 
HETATM    7  C19 UNK     1      19.177   0.712  30.894  1.00  0.00     0.001 A 
HETATM    8  C21 UNK     1      18.780   0.396  29.594  1.00  0.00     0.000 A 
HETATM    9  C20 UNK     1      18.326   1.401  28.740  1.00  0.00     0.001 A 
HETATM   10  C17 UNK     1      18.268   2.722  29.187  1.00  0.00     0.013 A 
ENDBRANCH   3   5
BRANCH   2  11
HETATM   11  C2  UNK     1      17.758   6.201  32.511  1.00  0.00    -0.015 A 
HETATM   12  C5  UNK     1      16.688   6.970  32.073  1.00  0.00     0.052 A 
HETATM   13  C3  UNK     1      16.555   8.284  32.521  1.00  0.00     0.102 A 
HETATM   14  C1  UNK     1      17.493   8.818  33.405  1.00  0.00     0.103 A 
HETATM   15  C7  UNK     1      18.565   8.037  33.839  1.00  0.00     0.059 A 
HETATM   16  C8  UNK     1      18.697   6.724  33.390  1.00  0.00     0.024 A 
HETATM   17 Br1  UNK     1      20.180   5.715  34.023  1.00  0.00    -0.050 Br
BRANCH  13  18
HETATM   18  O2  UNK     1      15.505   9.037  32.089  1.00  0.00    -0.353 OA
HETATM   19  C22 UNK     1      14.270   8.888  32.787  1.00  0.00     0.210 C 
ENDBRANCH  13  18
BRANCH  14  20
HETATM   20  O1  UNK     1      17.374  10.100  33.849  1.00  0.00    -0.344 OA
BRANCH  20  21
HETATM   21  C4  UNK     1      18.563  10.888  33.878  1.00  0.00     0.214 C 
BRANCH  21  22
HETATM   22  C6  UNK     1      18.188  12.335  34.012  1.00  0.00    -0.034 A 
HETATM   23  C12 UNK     1      17.239  12.715  34.955  1.00  0.00     0.011 A 
HETATM   24  C14 UNK     1      16.892  14.060  35.081  1.00  0.00     0.019 A 
HETATM   25  C18 UNK     1      17.496  15.016  34.264  1.00  0.00     0.011 A 
HETATM   26 Br2  UNK     1      17.026  16.838  34.436  1.00  0.00    -0.051 Br
HETATM   27  C15 UNK     1      18.447  14.627  33.321  1.00  0.00     0.019 A 
HETATM   28  C13 UNK     1      18.794  13.282  33.194  1.00  0.00     0.011 A 
ENDBRANCH  21  22
ENDBRANCH  20  21
ENDBRANCH  14  20
ENDBRANCH   2  11
TORSDOF 6
ENDMDL
MODEL 7
REMARK VINA RESULT:      -8.0     17.269     19.055
REMARK  6 active torsions:
REMARK  status: ('A' for Active; 'I' for Inactive)
REMARK    1  A    between atoms: C1_6  and  O1_3 
REMARK    2  A    between atoms: C4_9  and  O1_3 
REMARK    3  A    between atoms: C3_8  and  O2_4 
REMARK    4  A    between atoms: C2_7  and  C9_14 
REMARK    5  A    between atoms: C4_9  and  C6_11 
REMARK    6  A    between atoms: C10_15  and  C11_16 
ROOT
HETATM    1  N1  UNK     1      29.476  -6.181  34.664  1.00  0.00    -0.191 NA
HETATM    2  C9  UNK     1      30.940  -6.915  37.698  1.00  0.00     0.036 C 
HETATM    3  C10 UNK     1      31.327  -6.502  36.462  1.00  0.00     0.055 C 
HETATM    4  C23 UNK     1      30.295  -6.327  35.472  1.00  0.00     0.100 C 
ENDROOT
BRANCH   3   5
HETATM    5  C11 UNK     1      32.706  -6.224  36.095  1.00  0.00    -0.015 A 
HETATM    6  C16 UNK     1      33.073  -4.947  35.669  1.00  0.00     0.013 A 
HETATM    7  C19 UNK     1      34.396  -4.682  35.319  1.00  0.00     0.001 A 
HETATM    8  C21 UNK     1      35.355  -5.693  35.397  1.00  0.00     0.000 A 
HETATM    9  C20 UNK     1      34.989  -6.969  35.823  1.00  0.00     0.001 A 
HETATM   10  C17 UNK     1      33.664  -7.235  36.173  1.00  0.00     0.013 A 
ENDBRANCH   3   5
BRANCH   2  11
HETATM   11  C2  UNK     1      29.559  -7.201  38.113  1.00  0.00    -0.015 A 
HETATM   12  C5  UNK     1      29.075  -8.479  37.868  1.00  0.00     0.052 A 
HETATM   13  C3  UNK     1      27.771  -8.806  38.240  1.00  0.00     0.102 A 
HETATM   14  C1  UNK     1      26.962  -7.851  38.856  1.00  0.00     0.103 A 
HETATM   15  C7  UNK     1      27.457  -6.569  39.097  1.00  0.00     0.059 A 
HETATM   16  C8  UNK     1      28.761  -6.243  38.724  1.00  0.00     0.024 A 
HETATM   17 Br1  UNK     1      29.373  -4.480  39.084  1.00  0.00    -0.050 Br
BRANCH  13  18
HETATM   18  O2  UNK     1      27.298 -10.060  37.998  1.00  0.00    -0.353 OA
HETATM   19  C22 UNK     1      26.533 -10.247  36.810  1.00  0.00     0.210 C 
ENDBRANCH  13  18
BRANCH  14  20
HETATM   20  O1  UNK     1      25.687  -8.156  39.224  1.00  0.00    -0.344 OA
BRANCH  20  21
HETATM   21  C4  UNK     1      24.662  -7.247  38.826  1.00  0.00     0.214 C 
BRANCH  21  22
HETATM   22  C6  UNK     1      23.384  -8.007  38.627  1.00  0.00    -0.034 A 
HETATM   23  C12 UNK     1      22.499  -8.156  39.689  1.00  0.00     0.011 A 
HETATM   24  C14 UNK     1      21.309  -8.861  39.504  1.00  0.00     0.019 A 
HETATM   25  C18 UNK     1      21.013  -9.412  38.258  1.00  0.00     0.011 A 
HETATM   26 Br2  UNK     1      19.400 -10.366  38.007  1.00  0.00    -0.051 Br
HETATM   27  C15 UNK     1      21.904  -9.259  37.196  1.00  0.00     0.019 A 
HETATM   28  C13 UNK     1      23.094  -8.554  37.381  1.00  0.00     0.011 A 
ENDBRANCH  21  22
ENDBRANCH  20  21
ENDBRANCH  14  20
ENDBRANCH   2  11
TORSDOF 6
ENDMDL
MODEL 8
REMARK VINA RESULT:      -8.0     17.850     20.143
REMARK  6 active torsions:
REMARK  status: ('A' for Active; 'I' for Inactive)
REMARK    1  A    between atoms: C1_6  and  O1_3 
REMARK    2  A    between atoms: C4_9  and  O1_3 
REMARK    3  A    between atoms: C3_8  and  O2_4 
REMARK    4  A    between atoms: C2_7  and  C9_14 
REMARK    5  A    between atoms: C4_9  and  C6_11 
REMARK    6  A    between atoms: C10_15  and  C11_16 
ROOT
HETATM    1  N1  UNK     1      27.546 -10.464  39.525  1.00  0.00    -0.191 NA
HETATM    2  C9  UNK     1      27.410  -8.816  36.500  1.00  0.00     0.036 C 
HETATM    3  C10 UNK     1      26.684  -9.743  37.181  1.00  0.00     0.055 C 
HETATM    4  C23 UNK     1      27.169 -10.136  38.479  1.00  0.00     0.100 C 
ENDROOT
BRANCH   3   5
HETATM    5  C11 UNK     1      25.457 -10.340  36.678  1.00  0.00    -0.015 A 
HETATM    6  C16 UNK     1      25.457 -11.661  36.229  1.00  0.00     0.013 A 
HETATM    7  C19 UNK     1      24.279 -12.233  35.747  1.00  0.00     0.001 A 
HETATM    8  C21 UNK     1      23.102 -11.486  35.716  1.00  0.00     0.000 A 
HETATM    9  C20 UNK     1      23.102 -10.165  36.165  1.00  0.00     0.001 A 
HETATM   10  C17 UNK     1      24.281  -9.592  36.646  1.00  0.00     0.013 A 
ENDBRANCH   3   5
BRANCH   2  11
HETATM   11  C2  UNK     1      28.649  -8.182  36.972  1.00  0.00    -0.015 A 
HETATM   12  C5  UNK     1      28.521  -7.130  37.870  1.00  0.00     0.052 A 
HETATM   13  C3  UNK     1      29.664  -6.491  38.351  1.00  0.00     0.102 A 
HETATM   14  C1  UNK     1      30.925  -6.911  37.932  1.00  0.00     0.103 A 
HETATM   15  C7  UNK     1      31.044  -7.969  37.029  1.00  0.00     0.059 A 
HETATM   16  C8  UNK     1      29.901  -8.607  36.548  1.00  0.00     0.024 A 
HETATM   17 Br1  UNK     1      30.134 -10.041  35.323  1.00  0.00    -0.050 Br
BRANCH  13  18
HETATM   18  O2  UNK     1      29.535  -5.460  39.231  1.00  0.00    -0.353 OA
HETATM   19  C22 UNK     1      28.831  -4.305  38.778  1.00  0.00     0.210 C 
ENDBRANCH  13  18
BRANCH  14  20
HETATM   20  O1  UNK     1      32.049  -6.296  38.394  1.00  0.00    -0.344 OA
BRANCH  20  21
HETATM   21  C4  UNK     1      32.470  -5.117  37.709  1.00  0.00     0.214 C 
BRANCH  21  22
HETATM   22  C6  UNK     1      33.365  -5.506  36.569  1.00  0.00    -0.034 A 
HETATM   23  C12 UNK     1      34.619  -6.046  36.832  1.00  0.00     0.011 A 
HETATM   24  C14 UNK     1      35.450  -6.409  35.772  1.00  0.00     0.019 A 
HETATM   25  C18 UNK     1      35.022  -6.229  34.457  1.00  0.00     0.011 A 
HETATM   26 Br2  UNK     1      36.148  -6.722  33.021  1.00  0.00    -0.051 Br
HETATM   27  C15 UNK     1      33.763  -5.687  34.200  1.00  0.00     0.019 A 
HETATM   28  C13 UNK     1      32.932  -5.324  35.260  1.00  0.00     0.011 A 
ENDBRANCH  21  22
ENDBRANCH  20  21
ENDBRANCH  14  20
ENDBRANCH   2  11
TORSDOF 6
ENDMDL
MODEL 9
REMARK VINA RESULT:      -7.8     23.402     24.866
REMARK  6 active torsions:
REMARK  status: ('A' for Active; 'I' for Inactive)
REMARK    1  A    between atoms: C1_6  and  O1_3 
REMARK    2  A    between atoms: C4_9  and  O1_3 
REMARK    3  A    between atoms: C3_8  and  O2_4 
REMARK    4  A    between atoms: C2_7  and  C9_14 
REMARK    5  A    between atoms: C4_9  and  C6_11 
REMARK    6  A    between atoms: C10_15  and  C11_16 
ROOT
HETATM    1  N1  UNK     1      12.958   5.855  10.268  1.00  0.00    -0.191 NA
HETATM    2  C9  UNK     1      12.236   8.986   9.017  1.00  0.00     0.036 C 
HETATM    3  C10 UNK     1      13.330   8.282   9.412  1.00  0.00     0.055 C 
HETATM    4  C23 UNK     1      13.114   6.938   9.885  1.00  0.00     0.100 C 
ENDROOT
BRANCH   3   5
HETATM    5  C11 UNK     1      14.687   8.804   9.374  1.00  0.00    -0.015 A 
HETATM    6  C16 UNK     1      15.719   8.117  10.012  1.00  0.00     0.013 A 
HETATM    7  C19 UNK     1      17.019   8.618   9.974  1.00  0.00     0.001 A 
HETATM    8  C21 UNK     1      17.290   9.807   9.296  1.00  0.00     0.000 A 
HETATM    9  C20 UNK     1      16.258  10.495   8.658  1.00  0.00     0.001 A 
HETATM   10  C17 UNK     1      14.956   9.993   8.696  1.00  0.00     0.013 A 
ENDBRANCH   3   5
BRANCH   2  11
HETATM   11  C2  UNK     1      10.850   8.496   9.032  1.00  0.00    -0.015 A 
HETATM   12  C5  UNK     1      10.544   7.433   8.192  1.00  0.00     0.052 A 
HETATM   13  C3  UNK     1       9.245   6.927   8.165  1.00  0.00     0.102 A 
HETATM   14  C1  UNK     1       8.262   7.488   8.980  1.00  0.00     0.103 A 
HETATM   15  C7  UNK     1       8.579   8.556   9.821  1.00  0.00     0.059 A 
HETATM   16  C8  UNK     1       9.878   9.061   9.846  1.00  0.00     0.024 A 
HETATM   17 Br1  UNK     1      10.242  10.515  11.015  1.00  0.00    -0.050 Br
BRANCH  13  18
HETATM   18  O2  UNK     1       8.948   5.885   7.340  1.00  0.00    -0.353 OA
HETATM   19  C22 UNK     1       9.403   5.976   5.992  1.00  0.00     0.210 C 
ENDBRANCH  13  18
BRANCH  14  20
HETATM   20  O1  UNK     1       6.989   7.004   8.963  1.00  0.00    -0.344 OA
BRANCH  20  21
HETATM   21  C4  UNK     1       6.131   7.399  10.032  1.00  0.00     0.214 C 
BRANCH  21  22
HETATM   22  C6  UNK     1       5.833   6.203  10.888  1.00  0.00    -0.034 A 
HETATM   23  C12 UNK     1       5.316   6.384  12.167  1.00  0.00     0.011 A 
HETATM   24  C14 UNK     1       5.037   5.272  12.962  1.00  0.00     0.019 A 
HETATM   25  C18 UNK     1       5.275   3.988  12.473  1.00  0.00     0.011 A 
HETATM   26 Br2  UNK     1       4.896   2.482  13.551  1.00  0.00    -0.051 Br
HETATM   27  C15 UNK     1       5.793   3.814  11.190  1.00  0.00     0.019 A 
HETATM   28  C13 UNK     1       6.073   4.925  10.395  1.00  0.00     0.011 A 
ENDBRANCH  21  22
ENDBRANCH  20  21
ENDBRANCH  14  20
ENDBRANCH   2  11
TORSDOF 6
ENDMDL
MODEL 10
REMARK VINA RESULT:      -7.7     18.726     20.448
REMARK  6 active torsions:
REMARK  status: ('A' for Active; 'I' for Inactive)
REMARK    1  A    between atoms: C1_6  and  O1_3 
REMARK    2  A    between atoms: C4_9  and  O1_3 
REMARK    3  A    between atoms: C3_8  and  O2_4 
REMARK    4  A    between atoms: C2_7  and  C9_14 
REMARK    5  A    between atoms: C4_9  and  C6_11 
REMARK    6  A    between atoms: C10_15  and  C11_16 
ROOT
HETATM    1  N1  UNK     1      30.463  -6.011  31.978  1.00  0.00    -0.191 NA
HETATM    2  C9  UNK     1      32.035  -9.059  31.618  1.00  0.00     0.036 C 
HETATM    3  C10 UNK     1      30.972  -8.399  31.084  1.00  0.00     0.055 C 
HETATM    4  C23 UNK     1      30.698  -7.077  31.586  1.00  0.00     0.100 C 
ENDROOT
BRANCH   3   5
HETATM    5  C11 UNK     1      30.117  -8.948  30.044  1.00  0.00    -0.015 A 
HETATM    6  C16 UNK     1      30.683  -9.547  28.918  1.00  0.00     0.013 A 
HETATM    7  C19 UNK     1      29.862 -10.074  27.922  1.00  0.00     0.001 A 
HETATM    8  C21 UNK     1      28.475 -10.004  28.051  1.00  0.00     0.000 A 
HETATM    9  C20 UNK     1      27.909  -9.404  29.176  1.00  0.00     0.001 A 
HETATM   10  C17 UNK     1      28.731  -8.876  30.173  1.00  0.00     0.013 A 
ENDBRANCH   3   5
BRANCH   2  11
HETATM   11  C2  UNK     1      32.928  -8.541  32.664  1.00  0.00    -0.015 A 
HETATM   12  C5  UNK     1      32.607  -8.846  33.981  1.00  0.00     0.052 A 
HETATM   13  C3  UNK     1      33.419  -8.380  35.014  1.00  0.00     0.102 A 
HETATM   14  C1  UNK     1      34.546  -7.613  34.722  1.00  0.00     0.103 A 
HETATM   15  C7  UNK     1      34.861  -7.311  33.397  1.00  0.00     0.059 A 
HETATM   16  C8  UNK     1      34.048  -7.777  32.364  1.00  0.00     0.024 A 
HETATM   17 Br1  UNK     1      34.534  -7.330  30.582  1.00  0.00    -0.050 Br
BRANCH  13  18
HETATM   18  O2  UNK     1      33.101  -8.681  36.304  1.00  0.00    -0.353 OA
HETATM   19  C22 UNK     1      31.716  -8.793  36.621  1.00  0.00     0.210 C 
ENDBRANCH  13  18
BRANCH  14  20
HETATM   20  O1  UNK     1      35.347  -7.151  35.723  1.00  0.00    -0.344 OA
BRANCH  20  21
HETATM   21  C4  UNK     1      35.342  -5.745  35.960  1.00  0.00     0.214 C 
BRANCH  21  22
HETATM   22  C6  UNK     1      34.016  -5.351  36.542  1.00  0.00    -0.034 A 
HETATM   23  C12 UNK     1      33.674  -5.771  37.823  1.00  0.00     0.011 A 
HETATM   24  C14 UNK     1      32.442  -5.405  38.365  1.00  0.00     0.019 A 
HETATM   25  C18 UNK     1      31.560  -4.621  37.622  1.00  0.00     0.011 A 
HETATM   26 Br2  UNK     1      29.891  -4.123  38.356  1.00  0.00    -0.051 Br
HETATM   27  C15 UNK     1      31.908  -4.203  36.338  1.00  0.00     0.019 A 
HETATM   28  C13 UNK     1      33.140  -4.570  35.796  1.00  0.00     0.011 A 
ENDBRANCH  21  22
ENDBRANCH  20  21
ENDBRANCH  14  20
ENDBRANCH   2  11
TORSDOF 6
ENDMDL
