MODEL 1
REMARK VINA RESULT:      -9.4      0.000      0.000
REMARK  1 active torsions:
REMARK  status: ('A' for Active; 'I' for Inactive)
REMARK       I    between atoms: C13_21  and  N1_6 
REMARK    1  A    between atoms: C9_17  and  N2_7 
ROOT
HETATM    1  O1  UNK     1      29.178  -6.286  33.569  1.00  0.00    -0.291 OA
HETATM    2  O2  UNK     1      28.510 -10.249  34.704  1.00  0.00    -0.274 OA
HETATM    3  O3  UNK     1      32.317  -8.728  32.572  1.00  0.00    -0.271 OA
HETATM    4  O4  UNK     1      29.495 -10.998  32.803  1.00  0.00    -0.259 OA
HETATM    5  O5  UNK     1      32.626 -11.431  29.250  1.00  0.00    -0.273 OA
HETATM    6  N1  UNK     1      31.519  -9.869  30.620  1.00  0.00    -0.251 N 
HETATM    7  N3  UNK     1      31.463  -6.027  29.350  1.00  0.00    -0.191 NA
HETATM    8  C1  UNK     1      30.047  -8.319  31.740  1.00  0.00     0.148 A 
HETATM    9  C2  UNK     1      29.380  -8.982  30.562  1.00  0.00    -0.003 A 
HETATM   10  C3  UNK     1      29.374  -8.624  33.069  1.00  0.00     0.080 A 
HETATM   11  C4  UNK     1      31.451  -8.972  31.740  1.00  0.00     0.255 A 
HETATM   12  C5  UNK     1      30.270  -9.860  29.934  1.00  0.00     0.053 A 
HETATM   13  C6  UNK     1      30.258  -6.821  31.507  1.00  0.00     0.100 A 
HETATM   14  C7  UNK     1      28.989  -7.620  33.876  1.00  0.00     0.105 A 
HETATM   15  C8  UNK     1      28.085  -8.797  30.095  1.00  0.00     0.011 A 
HETATM   16  C9  UNK     1      29.826  -5.904  32.401  1.00  0.00     0.160 A 
HETATM   17  C10 UNK     1      29.146 -10.041  33.485  1.00  0.00     0.299 A 
HETATM   18  C11 UNK     1      29.867 -10.570  28.812  1.00  0.00     0.031 A 
HETATM   19  C12 UNK     1      28.331  -7.873  35.157  1.00  0.00     0.033 A 
HETATM   20  C13 UNK     1      32.605 -10.672  30.220  1.00  0.00     0.227 C 
HETATM   21  C14 UNK     1      27.679  -9.511  28.970  1.00  0.00     0.001 A 
HETATM   22  C15 UNK     1      28.106  -9.190  35.535  1.00  0.00     0.092 A 
HETATM   23  C16 UNK     1      28.563 -10.390  28.334  1.00  0.00     0.002 A 
HETATM   24  C17 UNK     1      30.925  -6.382  30.315  1.00  0.00     0.101 C 
HETATM   25  C18 UNK     1      27.910  -6.858  36.027  1.00  0.00     0.017 A 
HETATM   26  C19 UNK     1      33.835 -10.572  31.089  1.00  0.00     0.118 C 
HETATM   27  C20 UNK     1      27.483  -9.524  36.737  1.00  0.00     0.038 A 
HETATM   28  C21 UNK     1      27.283  -7.173  37.237  1.00  0.00     0.001 A 
HETATM   29  C22 UNK     1      27.071  -8.506  37.591  1.00  0.00     0.003 A 
ENDROOT
BRANCH  16  30
HETATM   30  N2  UNK     1      29.967  -4.549  32.273  1.00  0.00    -0.379 N 
HETATM   31  H6  UNK     1      30.839  -4.091  32.506  1.00  0.00     0.158 HD
HETATM   32  H7  UNK     1      29.181  -4.007  31.939  1.00  0.00     0.158 HD
ENDBRANCH  16  30
TORSDOF 1
ENDMDL
MODEL 2
REMARK VINA RESULT:      -9.3      2.693      6.968
REMARK  1 active torsions:
REMARK  status: ('A' for Active; 'I' for Inactive)
REMARK       I    between atoms: C13_21  and  N1_6 
REMARK    1  A    between atoms: C9_17  and  N2_7 
ROOT
HETATM    1  O1  UNK     1      30.556 -10.449  33.585  1.00  0.00    -0.291 OA
HETATM    2  O2  UNK     1      28.002  -7.525  32.049  1.00  0.00    -0.274 OA
HETATM    3  O3  UNK     1      31.174  -6.789  35.329  1.00  0.00    -0.271 OA
HETATM    4  O4  UNK     1      27.762  -6.602  34.107  1.00  0.00    -0.259 OA
HETATM    5  O5  UNK     1      28.859  -4.891  38.406  1.00  0.00    -0.273 OA
HETATM    6  N1  UNK     1      29.346  -6.606  36.868  1.00  0.00    -0.251 N 
HETATM    7  N3  UNK     1      31.247  -9.877  38.306  1.00  0.00    -0.191 NA
HETATM    8  C1  UNK     1      29.481  -8.559  35.458  1.00  0.00     0.148 A 
HETATM    9  C2  UNK     1      28.255  -8.578  36.332  1.00  0.00    -0.003 A 
HETATM   10  C3  UNK     1      29.165  -8.533  33.970  1.00  0.00     0.080 A 
HETATM   11  C4  UNK     1      30.145  -7.213  35.841  1.00  0.00     0.255 A 
HETATM   12  C5  UNK     1      28.222  -7.438  37.143  1.00  0.00     0.053 A 
HETATM   13  C6  UNK     1      30.470  -9.663  35.839  1.00  0.00     0.100 A 
HETATM   14  C7  UNK     1      29.703  -9.454  33.151  1.00  0.00     0.105 A 
HETATM   15  C8  UNK     1      27.262  -9.547  36.396  1.00  0.00     0.011 A 
HETATM   16  C9  UNK     1      30.945 -10.529  34.917  1.00  0.00     0.160 A 
HETATM   17  C10 UNK     1      28.263  -7.480  33.414  1.00  0.00     0.299 A 
HETATM   18  C11 UNK     1      27.180  -7.256  38.042  1.00  0.00     0.031 A 
HETATM   19  C12 UNK     1      29.416  -9.468  31.717  1.00  0.00     0.033 A 
HETATM   20  C13 UNK     1      29.569  -5.381  37.526  1.00  0.00     0.227 C 
HETATM   21  C14 UNK     1      26.215  -9.365  37.296  1.00  0.00     0.001 A 
HETATM   22  C15 UNK     1      28.565  -8.497  31.205  1.00  0.00     0.092 A 
HETATM   23  C16 UNK     1      26.175  -8.228  38.113  1.00  0.00     0.002 A 
HETATM   24  C17 UNK     1      30.900  -9.780  37.203  1.00  0.00     0.101 C 
HETATM   25  C18 UNK     1      29.951 -10.410  30.828  1.00  0.00     0.017 A 
HETATM   26  C19 UNK     1      30.796  -4.624  37.080  1.00  0.00     0.118 C 
HETATM   27  C20 UNK     1      28.234  -8.436  29.852  1.00  0.00     0.038 A 
HETATM   28  C21 UNK     1      29.630 -10.364  29.467  1.00  0.00     0.001 A 
HETATM   29  C22 UNK     1      28.772  -9.378  28.980  1.00  0.00     0.003 A 
ENDROOT
BRANCH  16  30
HETATM   30  N2  UNK     1      31.826 -11.546  35.169  1.00  0.00    -0.379 N 
HETATM   31  H6  UNK     1      32.708 -11.605  34.679  1.00  0.00     0.158 HD
HETATM   32  H7  UNK     1      31.579 -12.244  35.859  1.00  0.00     0.158 HD
ENDBRANCH  16  30
TORSDOF 1
ENDMDL
MODEL 3
REMARK VINA RESULT:      -9.2      3.032      7.073
REMARK  1 active torsions:
REMARK  status: ('A' for Active; 'I' for Inactive)
REMARK       I    between atoms: C13_21  and  N1_6 
REMARK    1  A    between atoms: C9_17  and  N2_7 
ROOT
HETATM    1  O1  UNK     1      31.469  -9.081  33.604  1.00  0.00    -0.291 OA
HETATM    2  O2  UNK     1      27.737  -7.308  32.996  1.00  0.00    -0.274 OA
HETATM    3  O3  UNK     1      31.251  -5.336  35.260  1.00  0.00    -0.271 OA
HETATM    4  O4  UNK     1      27.788  -6.404  35.077  1.00  0.00    -0.259 OA
HETATM    5  O5  UNK     1      29.398  -4.172  38.954  1.00  0.00    -0.273 OA
HETATM    6  N1  UNK     1      29.989  -5.702  37.266  1.00  0.00    -0.251 N 
HETATM    7  N3  UNK     1      33.227  -8.031  37.950  1.00  0.00    -0.191 NA
HETATM    8  C1  UNK     1      30.385  -7.569  35.789  1.00  0.00     0.148 A 
HETATM    9  C2  UNK     1      29.542  -7.956  36.976  1.00  0.00    -0.003 A 
HETATM   10  C3  UNK     1      29.671  -7.740  34.456  1.00  0.00     0.080 A 
HETATM   11  C4  UNK     1      30.623  -6.057  36.026  1.00  0.00     0.255 A 
HETATM   12  C5  UNK     1      29.349  -6.852  37.813  1.00  0.00     0.053 A 
HETATM   13  C6  UNK     1      31.759  -8.241  35.821  1.00  0.00     0.100 A 
HETATM   14  C7  UNK     1      30.238  -8.467  33.477  1.00  0.00     0.105 A 
HETATM   15  C8  UNK     1      29.008  -9.203  37.278  1.00  0.00     0.011 A 
HETATM   16  C9  UNK     1      32.222  -8.945  34.764  1.00  0.00     0.160 A 
HETATM   17  C10 UNK     1      28.342  -7.096  34.230  1.00  0.00     0.299 A 
HETATM   18  C11 UNK     1      28.609  -6.987  38.979  1.00  0.00     0.031 A 
HETATM   19  C12 UNK     1      29.579  -8.663  32.187  1.00  0.00     0.033 A 
HETATM   20  C13 UNK     1      29.952  -4.439  37.886  1.00  0.00     0.227 C 
HETATM   21  C14 UNK     1      28.263  -9.339  38.447  1.00  0.00     0.001 A 
HETATM   22  C15 UNK     1      28.338  -8.075  31.983  1.00  0.00     0.092 A 
HETATM   23  C16 UNK     1      28.067  -8.239  39.291  1.00  0.00     0.002 A 
HETATM   24  C17 UNK     1      32.571  -8.124  36.998  1.00  0.00     0.101 C 
HETATM   25  C18 UNK     1      30.130  -9.414  31.140  1.00  0.00     0.017 A 
HETATM   26  C19 UNK     1      30.661  -3.334  37.142  1.00  0.00     0.118 C 
HETATM   27  C20 UNK     1      27.636  -8.211  30.786  1.00  0.00     0.038 A 
HETATM   28  C21 UNK     1      29.442  -9.561  29.931  1.00  0.00     0.001 A 
HETATM   29  C22 UNK     1      28.196  -8.960  29.755  1.00  0.00     0.003 A 
ENDROOT
BRANCH  16  30
HETATM   30  N2  UNK     1      33.432  -9.580  34.707  1.00  0.00    -0.379 N 
HETATM   31  H6  UNK     1      34.018  -9.660  35.527  1.00  0.00     0.158 HD
HETATM   32  H7  UNK     1      33.735  -9.973  33.824  1.00  0.00     0.158 HD
ENDBRANCH  16  30
TORSDOF 1
ENDMDL
MODEL 4
REMARK VINA RESULT:      -8.9      3.540      7.291
REMARK  1 active torsions:
REMARK  status: ('A' for Active; 'I' for Inactive)
REMARK       I    between atoms: C13_21  and  N1_6 
REMARK    1  A    between atoms: C9_17  and  N2_7 
ROOT
HETATM    1  O1  UNK     1      33.766  -7.879  33.028  1.00  0.00    -0.291 OA
HETATM    2  O2  UNK     1      29.995  -6.568  31.803  1.00  0.00    -0.274 OA
HETATM    3  O3  UNK     1      32.626  -4.442  34.952  1.00  0.00    -0.271 OA
HETATM    4  O4  UNK     1      29.485  -5.939  33.923  1.00  0.00    -0.259 OA
HETATM    5  O5  UNK     1      29.913  -4.023  38.254  1.00  0.00    -0.273 OA
HETATM    6  N1  UNK     1      31.066  -5.230  36.593  1.00  0.00    -0.251 N 
HETATM    7  N3  UNK     1      34.433  -7.163  37.732  1.00  0.00    -0.191 NA
HETATM    8  C1  UNK     1      32.042  -6.821  35.063  1.00  0.00     0.148 A 
HETATM    9  C2  UNK     1      31.052  -7.468  35.997  1.00  0.00    -0.003 A 
HETATM   10  C3  UNK     1      31.644  -6.916  33.598  1.00  0.00     0.080 A 
HETATM   11  C4  UNK     1      31.982  -5.333  35.491  1.00  0.00     0.255 A 
HETATM   12  C5  UNK     1      30.522  -6.517  36.875  1.00  0.00     0.053 A 
HETATM   13  C6  UNK     1      33.471  -7.298  35.326  1.00  0.00     0.100 A 
HETATM   14  C7  UNK     1      32.502  -7.427  32.699  1.00  0.00     0.105 A 
HETATM   15  C8  UNK     1      30.675  -8.804  36.055  1.00  0.00     0.011 A 
HETATM   16  C9  UNK     1      34.241  -7.790  34.331  1.00  0.00     0.160 A 
HETATM   17  C10 UNK     1      30.301  -6.435  33.153  1.00  0.00     0.299 A 
HETATM   18  C11 UNK     1      29.597  -6.899  37.836  1.00  0.00     0.031 A 
HETATM   19  C12 UNK     1      32.154  -7.544  31.283  1.00  0.00     0.033 A 
HETATM   20  C13 UNK     1      30.704  -4.073  37.310  1.00  0.00     0.227 C 
HETATM   21  C14 UNK     1      29.744  -9.188  37.017  1.00  0.00     0.001 A 
HETATM   22  C15 UNK     1      30.900  -7.110  30.875  1.00  0.00     0.092 A 
HETATM   23  C16 UNK     1      29.210  -8.243  37.901  1.00  0.00     0.002 A 
HETATM   24  C17 UNK     1      34.003  -7.223  36.657  1.00  0.00     0.101 C 
HETATM   25  C18 UNK     1      33.015  -8.073  30.313  1.00  0.00     0.017 A 
HETATM   26  C19 UNK     1      31.361  -2.796  36.847  1.00  0.00     0.118 C 
HETATM   27  C20 UNK     1      30.481  -7.185  29.546  1.00  0.00     0.038 A 
HETATM   28  C21 UNK     1      32.614  -8.157  28.976  1.00  0.00     0.001 A 
HETATM   29  C22 UNK     1      31.347  -7.713  28.593  1.00  0.00     0.003 A 
ENDROOT
BRANCH  16  30
HETATM   30  N2  UNK     1      35.524  -8.243  34.475  1.00  0.00    -0.379 N 
HETATM   31  H6  UNK     1      35.838  -8.653  35.345  1.00  0.00     0.158 HD
HETATM   32  H7  UNK     1      36.161  -8.160  33.693  1.00  0.00     0.158 HD
ENDBRANCH  16  30
TORSDOF 1
ENDMDL
MODEL 5
REMARK VINA RESULT:      -8.8      3.364      6.604
REMARK  1 active torsions:
REMARK  status: ('A' for Active; 'I' for Inactive)
REMARK       I    between atoms: C13_21  and  N1_6 
REMARK    1  A    between atoms: C9_17  and  N2_7 
ROOT
HETATM    1  O1  UNK     1      32.284  -8.172  31.791  1.00  0.00    -0.291 OA
HETATM    2  O2  UNK     1      28.364  -7.476  33.050  1.00  0.00    -0.274 OA
HETATM    3  O3  UNK     1      31.997  -4.854  34.183  1.00  0.00    -0.271 OA
HETATM    4  O4  UNK     1      29.098  -6.834  35.099  1.00  0.00    -0.259 OA
HETATM    5  O5  UNK     1      31.683  -4.685  38.461  1.00  0.00    -0.273 OA
HETATM    6  N1  UNK     1      31.814  -5.785  36.384  1.00  0.00    -0.251 N 
HETATM    7  N3  UNK     1      35.451  -7.159  35.260  1.00  0.00    -0.191 NA
HETATM    8  C1  UNK     1      31.934  -7.285  34.497  1.00  0.00     0.148 A 
HETATM    9  C2  UNK     1      31.778  -8.026  35.800  1.00  0.00    -0.003 A 
HETATM   10  C3  UNK     1      30.777  -7.502  33.533  1.00  0.00     0.080 A 
HETATM   11  C4  UNK     1      31.922  -5.804  34.951  1.00  0.00     0.255 A 
HETATM   12  C5  UNK     1      31.727  -7.123  36.867  1.00  0.00     0.053 A 
HETATM   13  C6  UNK     1      33.301  -7.538  33.858  1.00  0.00     0.100 A 
HETATM   14  C7  UNK     1      31.016  -7.923  32.279  1.00  0.00     0.105 A 
HETATM   15  C8  UNK     1      31.700  -9.399  36.001  1.00  0.00     0.011 A 
HETATM   16  C9  UNK     1      33.410  -7.958  32.577  1.00  0.00     0.160 A 
HETATM   17  C10 UNK     1      29.375  -7.240  33.976  1.00  0.00     0.299 A 
HETATM   18  C11 UNK     1      31.599  -7.592  38.167  1.00  0.00     0.031 A 
HETATM   19  C12 UNK     1      29.931  -8.152  31.326  1.00  0.00     0.033 A 
HETATM   20  C13 UNK     1      31.775  -4.662  37.233  1.00  0.00     0.227 C 
HETATM   21  C14 UNK     1      31.570  -9.870  37.305  1.00  0.00     0.001 A 
HETATM   22  C15 UNK     1      28.627  -7.922  31.744  1.00  0.00     0.092 A 
HETATM   23  C16 UNK     1      31.520  -8.974  38.379  1.00  0.00     0.002 A 
HETATM   24  C17 UNK     1      34.490  -7.328  34.633  1.00  0.00     0.101 C 
HETATM   25  C18 UNK     1      30.133  -8.593  30.011  1.00  0.00     0.017 A 
HETATM   26  C19 UNK     1      31.849  -3.326  36.536  1.00  0.00     0.118 C 
HETATM   27  C20 UNK     1      27.530  -8.117  30.904  1.00  0.00     0.038 A 
HETATM   28  C21 UNK     1      29.046  -8.794  29.154  1.00  0.00     0.001 A 
HETATM   29  C22 UNK     1      27.746  -8.555  29.601  1.00  0.00     0.003 A 
ENDROOT
BRANCH  16  30
HETATM   30  N2  UNK     1      34.586  -8.213  31.927  1.00  0.00    -0.379 N 
HETATM   31  H6  UNK     1      34.609  -8.356  30.926  1.00  0.00     0.158 HD
HETATM   32  H7  UNK     1      35.441  -8.257  32.467  1.00  0.00     0.158 HD
ENDBRANCH  16  30
TORSDOF 1
ENDMDL
MODEL 6
REMARK VINA RESULT:      -8.7      2.878      3.760
REMARK  1 active torsions:
REMARK  status: ('A' for Active; 'I' for Inactive)
REMARK       I    between atoms: C13_21  and  N1_6 
REMARK    1  A    between atoms: C9_17  and  N2_7 
ROOT
HETATM    1  O1  UNK     1      30.464  -6.114  37.477  1.00  0.00    -0.291 OA
HETATM    2  O2  UNK     1      28.737  -9.568  35.888  1.00  0.00    -0.274 OA
HETATM    3  O3  UNK     1      33.216  -8.476  35.563  1.00  0.00    -0.271 OA
HETATM    4  O4  UNK     1      30.058  -9.426  34.048  1.00  0.00    -0.259 OA
HETATM    5  O5  UNK     1      33.924  -8.840  31.344  1.00  0.00    -0.273 OA
HETATM    6  N1  UNK     1      32.801  -8.025  33.245  1.00  0.00    -0.251 N 
HETATM    7  N3  UNK     1      33.864  -4.353  34.573  1.00  0.00    -0.191 NA
HETATM    8  C1  UNK     1      31.404  -6.961  34.901  1.00  0.00     0.148 A 
HETATM    9  C2  UNK     1      30.985  -6.609  33.498  1.00  0.00    -0.003 A 
HETATM   10  C3  UNK     1      30.333  -7.705  35.686  1.00  0.00     0.080 A 
HETATM   11  C4  UNK     1      32.593  -7.925  34.663  1.00  0.00     0.255 A 
HETATM   12  C5  UNK     1      31.827  -7.232  32.571  1.00  0.00     0.053 A 
HETATM   13  C6  UNK     1      31.962  -5.750  35.651  1.00  0.00     0.100 A 
HETATM   14  C7  UNK     1      29.938  -7.247  36.886  1.00  0.00     0.105 A 
HETATM   15  C8  UNK     1      29.940  -5.786  33.096  1.00  0.00     0.011 A 
HETATM   16  C9  UNK     1      31.481  -5.393  36.863  1.00  0.00     0.160 A 
HETATM   17  C10 UNK     1      29.722  -8.948  35.127  1.00  0.00     0.299 A 
HETATM   18  C11 UNK     1      31.630  -7.033  31.211  1.00  0.00     0.031 A 
HETATM   19  C12 UNK     1      28.905  -7.927  37.666  1.00  0.00     0.033 A 
HETATM   20  C13 UNK     1      33.776  -8.780  32.565  1.00  0.00     0.227 C 
HETATM   21  C14 UNK     1      29.740  -5.587  31.733  1.00  0.00     0.001 A 
HETATM   22  C15 UNK     1      28.329  -9.075  37.139  1.00  0.00     0.092 A 
HETATM   23  C16 UNK     1      30.579  -6.205  30.797  1.00  0.00     0.002 A 
HETATM   24  C17 UNK     1      33.014  -4.978  35.055  1.00  0.00     0.101 C 
HETATM   25  C18 UNK     1      28.461  -7.484  38.920  1.00  0.00     0.017 A 
HETATM   26  C19 UNK     1      34.701  -9.580  33.448  1.00  0.00     0.118 C 
HETATM   27  C20 UNK     1      27.335  -9.786  37.811  1.00  0.00     0.038 A 
HETATM   28  C21 UNK     1      27.466  -8.185  39.609  1.00  0.00     0.001 A 
HETATM   29  C22 UNK     1      26.904  -9.335  39.055  1.00  0.00     0.003 A 
ENDROOT
BRANCH  16  30
HETATM   30  N2  UNK     1      31.916  -4.325  37.601  1.00  0.00    -0.379 N 
HETATM   31  H6  UNK     1      32.778  -3.849  37.372  1.00  0.00     0.158 HD
HETATM   32  H7  UNK     1      31.357  -4.016  38.386  1.00  0.00     0.158 HD
ENDBRANCH  16  30
TORSDOF 1
ENDMDL
MODEL 7
REMARK VINA RESULT:      -8.6      2.614      3.324
REMARK  1 active torsions:
REMARK  status: ('A' for Active; 'I' for Inactive)
REMARK       I    between atoms: C13_21  and  N1_6 
REMARK    1  A    between atoms: C9_17  and  N2_7 
ROOT
HETATM    1  O1  UNK     1      32.306  -5.646  35.375  1.00  0.00    -0.291 OA
HETATM    2  O2  UNK     1      28.438  -7.027  36.126  1.00  0.00    -0.274 OA
HETATM    3  O3  UNK     1      31.855  -9.595  34.368  1.00  0.00    -0.271 OA
HETATM    4  O4  UNK     1      28.477  -8.275  34.231  1.00  0.00    -0.259 OA
HETATM    5  O5  UNK     1      30.021 -11.245  30.853  1.00  0.00    -0.273 OA
HETATM    6  N1  UNK     1      30.679  -9.492  32.281  1.00  0.00    -0.251 N 
HETATM    7  N3  UNK     1      34.099  -7.544  31.342  1.00  0.00    -0.191 NA
HETATM    8  C1  UNK     1      31.173  -7.432  33.436  1.00  0.00     0.148 A 
HETATM    9  C2  UNK     1      30.394  -7.196  32.168  1.00  0.00    -0.003 A 
HETATM   10  C3  UNK     1      30.437  -6.986  34.691  1.00  0.00     0.080 A 
HETATM   11  C4  UNK     1      31.303  -8.975  33.467  1.00  0.00     0.255 A 
HETATM   12  C5  UNK     1      30.141  -8.412  31.523  1.00  0.00     0.053 A 
HETATM   13  C6  UNK     1      32.593  -6.871  33.345  1.00  0.00     0.100 A 
HETATM   14  C7  UNK     1      31.030  -6.143  35.555  1.00  0.00     0.105 A 
HETATM   15  C8  UNK     1      29.962  -5.986  31.639  1.00  0.00     0.011 A 
HETATM   16  C9  UNK     1      33.078  -6.031  34.286  1.00  0.00     0.160 A 
HETATM   17  C10 UNK     1      29.059  -7.489  34.970  1.00  0.00     0.299 A 
HETATM   18  C11 UNK     1      29.446  -8.428  30.322  1.00  0.00     0.031 A 
HETATM   19  C12 UNK     1      30.353  -5.684  36.767  1.00  0.00     0.033 A 
HETATM   20  C13 UNK     1      30.564 -10.838  31.882  1.00  0.00     0.227 C 
HETATM   21  C14 UNK     1      29.262  -6.002  30.435  1.00  0.00     0.001 A 
HETATM   22  C15 UNK     1      29.066  -6.141  37.017  1.00  0.00     0.092 A 
HETATM   23  C16 UNK     1      29.007  -7.214  29.782  1.00  0.00     0.002 A 
HETATM   24  C17 UNK     1      33.426  -7.244  32.237  1.00  0.00     0.101 C 
HETATM   25  C18 UNK     1      30.930  -4.805  37.693  1.00  0.00     0.017 A 
HETATM   26  C19 UNK     1      31.168 -11.845  32.829  1.00  0.00     0.118 C 
HETATM   27  C20 UNK     1      28.344  -5.754  38.146  1.00  0.00     0.038 A 
HETATM   28  C21 UNK     1      30.222  -4.405  38.831  1.00  0.00     0.001 A 
HETATM   29  C22 UNK     1      28.930  -4.881  39.057  1.00  0.00     0.003 A 
ENDROOT
BRANCH  16  30
HETATM   30  N2  UNK     1      34.331  -5.480  34.282  1.00  0.00    -0.379 N 
HETATM   31  H6  UNK     1      34.522  -4.622  33.782  1.00  0.00     0.158 HD
HETATM   32  H7  UNK     1      35.070  -5.947  34.792  1.00  0.00     0.158 HD
ENDBRANCH  16  30
TORSDOF 1
ENDMDL
MODEL 8
REMARK VINA RESULT:      -8.6      3.498      5.595
REMARK  1 active torsions:
REMARK  status: ('A' for Active; 'I' for Inactive)
REMARK       I    between atoms: C13_21  and  N1_6 
REMARK    1  A    between atoms: C9_17  and  N2_7 
ROOT
HETATM    1  O1  UNK     1      31.233  -8.850  36.488  1.00  0.00    -0.291 OA
HETATM    2  O2  UNK     1      31.291  -4.747  35.714  1.00  0.00    -0.274 OA
HETATM    3  O3  UNK     1      30.881  -8.028  32.486  1.00  0.00    -0.271 OA
HETATM    4  O4  UNK     1      32.516  -5.082  33.834  1.00  0.00    -0.259 OA
HETATM    5  O5  UNK     1      33.980  -6.953  29.715  1.00  0.00    -0.273 OA
HETATM    6  N1  UNK     1      33.127  -7.489  31.843  1.00  0.00    -0.251 N 
HETATM    7  N3  UNK     1      33.573 -11.313  33.090  1.00  0.00    -0.191 NA
HETATM    8  C1  UNK     1      32.674  -7.994  34.159  1.00  0.00     0.148 A 
HETATM    9  C2  UNK     1      34.119  -7.635  33.930  1.00  0.00    -0.003 A 
HETATM   10  C3  UNK     1      31.950  -7.035  35.092  1.00  0.00     0.080 A 
HETATM   11  C4  UNK     1      32.066  -7.850  32.741  1.00  0.00     0.255 A 
HETATM   12  C5  UNK     1      34.343  -7.364  32.576  1.00  0.00     0.053 A 
HETATM   13  C6  UNK     1      32.508  -9.461  34.562  1.00  0.00     0.100 A 
HETATM   14  C7  UNK     1      31.298  -7.507  36.168  1.00  0.00     0.105 A 
HETATM   15  C8  UNK     1      35.145  -7.570  34.866  1.00  0.00     0.011 A 
HETATM   16  C9  UNK     1      31.820  -9.810  35.672  1.00  0.00     0.160 A 
HETATM   17  C10 UNK     1      31.958  -5.568  34.811  1.00  0.00     0.299 A 
HETATM   18  C11 UNK     1      35.614  -7.023  32.137  1.00  0.00     0.031 A 
HETATM   19  C12 UNK     1      30.599  -6.618  37.094  1.00  0.00     0.033 A 
HETATM   20  C13 UNK     1      33.045  -7.261  30.455  1.00  0.00     0.227 C 
HETATM   21  C14 UNK     1      36.421  -7.226  34.427  1.00  0.00     0.001 A 
HETATM   22  C15 UNK     1      30.619  -5.253  36.839  1.00  0.00     0.092 A 
HETATM   23  C16 UNK     1      36.654  -6.956  33.073  1.00  0.00     0.002 A 
HETATM   24  C17 UNK     1      33.097 -10.485  33.747  1.00  0.00     0.101 C 
HETATM   25  C18 UNK     1      29.909  -7.065  38.229  1.00  0.00     0.017 A 
HETATM   26  C19 UNK     1      31.667  -7.411  29.859  1.00  0.00     0.118 C 
HETATM   27  C20 UNK     1      29.981  -4.330  37.669  1.00  0.00     0.038 A 
HETATM   28  C21 UNK     1      29.264  -6.155  39.073  1.00  0.00     0.001 A 
HETATM   29  C22 UNK     1      29.300  -4.789  38.793  1.00  0.00     0.003 A 
ENDROOT
BRANCH  16  30
HETATM   30  N2  UNK     1      31.626 -11.091  36.110  1.00  0.00    -0.379 N 
HETATM   31  H6  UNK     1      31.088 -11.753  35.566  1.00  0.00     0.158 HD
HETATM   32  H7  UNK     1      32.031 -11.371  36.994  1.00  0.00     0.158 HD
ENDBRANCH  16  30
TORSDOF 1
ENDMDL
MODEL 9
REMARK VINA RESULT:      -8.6      3.189      3.986
REMARK  1 active torsions:
REMARK  status: ('A' for Active; 'I' for Inactive)
REMARK       I    between atoms: C13_21  and  N1_6 
REMARK    1  A    between atoms: C9_17  and  N2_7 
ROOT
HETATM    1  O1  UNK     1      34.615  -7.124  33.378  1.00  0.00    -0.291 OA
HETATM    2  O2  UNK     1      31.283  -8.673  35.362  1.00  0.00    -0.274 OA
HETATM    3  O3  UNK     1      33.382 -10.690  31.772  1.00  0.00    -0.271 OA
HETATM    4  O4  UNK     1      30.406  -9.398  33.399  1.00  0.00    -0.259 OA
HETATM    5  O5  UNK     1      30.099 -11.402  29.098  1.00  0.00    -0.273 OA
HETATM    6  N1  UNK     1      31.465 -10.067  30.473  1.00  0.00    -0.251 N 
HETATM    7  N3  UNK     1      34.373  -7.924  28.646  1.00  0.00    -0.191 NA
HETATM    8  C1  UNK     1      32.603  -8.364  31.751  1.00  0.00     0.148 A 
HETATM    9  C2  UNK     1      31.398  -7.819  31.029  1.00  0.00    -0.003 A 
HETATM   10  C3  UNK     1      32.503  -8.257  33.265  1.00  0.00     0.080 A 
HETATM   11  C4  UNK     1      32.574  -9.864  31.364  1.00  0.00     0.255 A 
HETATM   12  C5  UNK     1      30.778  -8.832  30.290  1.00  0.00     0.053 A 
HETATM   13  C6  UNK     1      33.908  -7.791  31.196  1.00  0.00     0.100 A 
HETATM   14  C7  UNK     1      33.483  -7.658  33.964  1.00  0.00     0.105 A 
HETATM   15  C8  UNK     1      30.914  -6.517  31.032  1.00  0.00     0.011 A 
HETATM   16  C9  UNK     1      34.823  -7.215  32.007  1.00  0.00     0.160 A 
HETATM   17  C10 UNK     1      31.319  -8.822  33.980  1.00  0.00     0.299 A 
HETATM   18  C11 UNK     1      29.650  -8.547  29.533  1.00  0.00     0.031 A 
HETATM   19  C12 UNK     1      33.420  -7.526  35.418  1.00  0.00     0.033 A 
HETATM   20  C13 UNK     1      31.057 -11.267  29.860  1.00  0.00     0.227 C 
HETATM   21  C14 UNK     1      29.782  -6.230  30.274  1.00  0.00     0.001 A 
HETATM   22  C15 UNK     1      32.312  -8.039  36.079  1.00  0.00     0.092 A 
HETATM   23  C16 UNK     1      29.155  -7.237  29.530  1.00  0.00     0.002 A 
HETATM   24  C17 UNK     1      34.165  -7.866  29.786  1.00  0.00     0.101 C 
HETATM   25  C18 UNK     1      34.416  -6.908  36.186  1.00  0.00     0.017 A 
HETATM   26  C19 UNK     1      31.892 -12.478  30.197  1.00  0.00     0.118 C 
HETATM   27  C20 UNK     1      32.166  -7.956  37.464  1.00  0.00     0.038 A 
HETATM   28  C21 UNK     1      34.287  -6.815  37.576  1.00  0.00     0.001 A 
HETATM   29  C22 UNK     1      33.162  -7.339  38.214  1.00  0.00     0.003 A 
ENDROOT
BRANCH  16  30
HETATM   30  N2  UNK     1      36.012  -6.674  31.598  1.00  0.00    -0.379 N 
HETATM   31  H6  UNK     1      36.046  -5.998  30.846  1.00  0.00     0.158 HD
HETATM   32  H7  UNK     1      36.863  -6.962  32.063  1.00  0.00     0.158 HD
ENDBRANCH  16  30
TORSDOF 1
ENDMDL
MODEL 10
REMARK VINA RESULT:      -8.5      2.879      6.339
REMARK  1 active torsions:
REMARK  status: ('A' for Active; 'I' for Inactive)
REMARK       I    between atoms: C13_21  and  N1_6 
REMARK    1  A    between atoms: C9_17  and  N2_7 
ROOT
HETATM    1  O1  UNK     1      29.300 -10.202  31.994  1.00  0.00    -0.291 OA
HETATM    2  O2  UNK     1      31.603 -11.485  35.232  1.00  0.00    -0.274 OA
HETATM    3  O3  UNK     1      27.687  -9.055  35.586  1.00  0.00    -0.271 OA
HETATM    4  O4  UNK     1      31.206  -9.540  36.332  1.00  0.00    -0.259 OA
HETATM    5  O5  UNK     1      28.880  -5.793  38.109  1.00  0.00    -0.273 OA
HETATM    6  N1  UNK     1      29.057  -7.194  36.226  1.00  0.00    -0.251 N 
HETATM    7  N3  UNK     1      27.461  -5.830  32.766  1.00  0.00    -0.191 NA
HETATM    8  C1  UNK     1      29.581  -8.371  34.185  1.00  0.00     0.148 A 
HETATM    9  C2  UNK     1      30.560  -7.261  34.465  1.00  0.00    -0.003 A 
HETATM   10  C3  UNK     1      30.220  -9.752  34.163  1.00  0.00     0.080 A 
HETATM   11  C4  UNK     1      28.628  -8.292  35.404  1.00  0.00     0.255 A 
HETATM   12  C5  UNK     1      30.213  -6.596  35.646  1.00  0.00     0.053 A 
HETATM   13  C6  UNK     1      28.733  -8.085  32.944  1.00  0.00     0.100 A 
HETATM   14  C7  UNK     1      30.048 -10.556  33.100  1.00  0.00     0.105 A 
HETATM   15  C8  UNK     1      31.661  -6.878  33.710  1.00  0.00     0.011 A 
HETATM   16  C9  UNK     1      28.636  -8.983  31.938  1.00  0.00     0.160 A 
HETATM   17  C10 UNK     1      31.033 -10.219  35.326  1.00  0.00     0.299 A 
HETATM   18  C11 UNK     1      30.974  -5.523  36.088  1.00  0.00     0.031 A 
HETATM   19  C12 UNK     1      30.654 -11.885  33.036  1.00  0.00     0.033 A 
HETATM   20  C13 UNK     1      28.484  -6.742  37.431  1.00  0.00     0.227 C 
HETATM   21  C14 UNK     1      32.428  -5.804  34.153  1.00  0.00     0.001 A 
HETATM   22  C15 UNK     1      31.422 -12.313  34.112  1.00  0.00     0.092 A 
HETATM   23  C16 UNK     1      32.087  -5.131  35.333  1.00  0.00     0.002 A 
HETATM   24  C17 UNK     1      28.029  -6.839  32.846  1.00  0.00     0.101 C 
HETATM   25  C18 UNK     1      30.505 -12.755  31.948  1.00  0.00     0.017 A 
HETATM   26  C19 UNK     1      27.282  -7.521  37.905  1.00  0.00     0.118 C 
HETATM   27  C20 UNK     1      32.038 -13.563  34.137  1.00  0.00     0.038 A 
HETATM   28  C21 UNK     1      31.116 -14.013  31.955  1.00  0.00     0.001 A 
HETATM   29  C22 UNK     1      31.882 -14.417  33.049  1.00  0.00     0.003 A 
ENDROOT
BRANCH  16  30
HETATM   30  N2  UNK     1      27.907  -8.809  30.793  1.00  0.00    -0.379 N 
HETATM   31  H6  UNK     1      27.177  -8.112  30.741  1.00  0.00     0.158 HD
HETATM   32  H7  UNK     1      28.111  -9.394  29.993  1.00  0.00     0.158 HD
ENDBRANCH  16  30
TORSDOF 1
ENDMDL
