MODEL 1
REMARK VINA RESULT:      -8.9      0.000      0.000
REMARK  2 active torsions:
REMARK  status: ('A' for Active; 'I' for Inactive)
REMARK    1  A    between atoms: C12_17  and  O4_4 
REMARK    2  A    between atoms: C16_21  and  O4_4 
ROOT
HETATM    1  O1  UNK     1      17.619   4.005  30.820  1.00  0.00    -0.332 OA
HETATM    2  O2  UNK     1      19.780  -0.203  31.962  1.00  0.00    -0.274 OA
HETATM    3  O3  UNK     1      18.302   4.124  34.363  1.00  0.00    -0.289 OA
HETATM    4  O5  UNK     1      20.867  -2.164  32.431  1.00  0.00    -0.260 OA
HETATM    5  C1  UNK     1      18.113   4.636  32.003  1.00  0.00     0.125 C 
HETATM    6  C2  UNK     1      18.615   1.879  31.479  1.00  0.00     0.048 A 
HETATM    7  C3  UNK     1      18.266   3.702  33.209  1.00  0.00     0.196 C 
HETATM    8  C4  UNK     1      18.408   2.251  32.888  1.00  0.00     0.051 C 
HETATM    9  C5  UNK     1      18.176   2.792  30.509  1.00  0.00     0.084 A 
HETATM   10  C6  UNK     1      17.079   5.715  32.350  1.00  0.00     0.055 C 
HETATM   11  C7  UNK     1      19.461   5.305  31.706  1.00  0.00     0.055 C 
HETATM   12  C8  UNK     1      19.227   0.699  31.022  1.00  0.00     0.103 A 
HETATM   13  C9  UNK     1      19.336   0.399  29.660  1.00  0.00    -0.001 A 
HETATM   14  C10 UNK     1      18.257   2.493  29.144  1.00  0.00     0.039 A 
HETATM   15  C11 UNK     1      18.833   1.298  28.721  1.00  0.00     0.017 A 
HETATM   16  C12 UNK     1      18.217   1.388  33.898  1.00  0.00     0.150 C 
HETATM   17  C13 UNK     1      19.973  -0.843  29.251  1.00  0.00     0.020 A 
HETATM   18  C14 UNK     1      20.471  -1.683  30.160  1.00  0.00     0.083 A 
HETATM   19  C15 UNK     1      20.402  -1.393  31.600  1.00  0.00     0.288 A 
ENDROOT
BRANCH  16  20
HETATM   20  O4  UNK     1      18.185   0.032  33.765  1.00  0.00    -0.362 OA
BRANCH  20  21
HETATM   21  C16 UNK     1      17.446  -0.576  34.814  1.00  0.00     0.170 C 
HETATM   22  C17 UNK     1      16.142   0.171  34.996  1.00  0.00     0.034 C 
ENDBRANCH  20  21
ENDBRANCH  16  20
TORSDOF 2
ENDMDL
MODEL 2
REMARK VINA RESULT:      -7.9      1.595      4.720
REMARK  2 active torsions:
REMARK  status: ('A' for Active; 'I' for Inactive)
REMARK    1  A    between atoms: C12_17  and  O4_4 
REMARK    2  A    between atoms: C16_21  and  O4_4 
ROOT
HETATM    1  O1  UNK     1      19.207  -1.159  34.871  1.00  0.00    -0.332 OA
HETATM    2  O2  UNK     1      18.655   0.875  30.484  1.00  0.00    -0.274 OA
HETATM    3  O3  UNK     1      16.773   1.480  35.256  1.00  0.00    -0.289 OA
HETATM    4  O5  UNK     1      18.371   1.742  28.383  1.00  0.00    -0.260 OA
HETATM    5  C1  UNK     1      17.960  -0.630  35.326  1.00  0.00     0.125 C 
HETATM    6  C2  UNK     1      18.956  -0.030  32.724  1.00  0.00     0.048 A 
HETATM    7  C3  UNK     1      17.578   0.724  34.717  1.00  0.00     0.196 C 
HETATM    8  C4  UNK     1      18.218   1.045  33.407  1.00  0.00     0.051 C 
HETATM    9  C5  UNK     1      19.435  -1.079  33.522  1.00  0.00     0.084 A 
HETATM   10  C6  UNK     1      18.122  -0.454  36.842  1.00  0.00     0.055 C 
HETATM   11  C7  UNK     1      16.840  -1.643  35.053  1.00  0.00     0.055 C 
HETATM   12  C8  UNK     1      19.209  -0.105  31.343  1.00  0.00     0.103 A 
HETATM   13  C9  UNK     1      19.966  -1.138  30.782  1.00  0.00    -0.001 A 
HETATM   14  C10 UNK     1      20.216  -2.105  32.977  1.00  0.00     0.039 A 
HETATM   15  C11 UNK     1      20.483  -2.133  31.611  1.00  0.00     0.017 A 
HETATM   16  C12 UNK     1      18.171   2.326  33.010  1.00  0.00     0.150 C 
HETATM   17  C13 UNK     1      20.199  -1.155  29.346  1.00  0.00     0.020 A 
HETATM   18  C14 UNK     1      19.678  -0.209  28.562  1.00  0.00     0.083 A 
HETATM   19  C15 UNK     1      18.853   0.879  29.107  1.00  0.00     0.288 A 
ENDROOT
BRANCH  16  20
HETATM   20  O4  UNK     1      18.804   2.823  31.910  1.00  0.00    -0.362 OA
BRANCH  20  21
HETATM   21  C16 UNK     1      18.319   4.114  31.570  1.00  0.00     0.170 C 
HETATM   22  C17 UNK     1      19.109   4.644  30.394  1.00  0.00     0.034 C 
ENDBRANCH  20  21
ENDBRANCH  16  20
TORSDOF 2
ENDMDL
MODEL 3
REMARK VINA RESULT:      -7.5     12.791     14.744
REMARK  2 active torsions:
REMARK  status: ('A' for Active; 'I' for Inactive)
REMARK    1  A    between atoms: C12_17  and  O4_4 
REMARK    2  A    between atoms: C16_21  and  O4_4 
ROOT
HETATM    1  O1  UNK     1      27.181  -6.338  38.620  1.00  0.00    -0.332 OA
HETATM    2  O2  UNK     1      30.876  -6.041  35.466  1.00  0.00    -0.274 OA
HETATM    3  O3  UNK     1      27.044  -9.318  36.587  1.00  0.00    -0.289 OA
HETATM    4  O5  UNK     1      32.677  -5.893  34.059  1.00  0.00    -0.260 OA
HETATM    5  C1  UNK     1      27.071  -7.750  38.433  1.00  0.00     0.125 C 
HETATM    6  C2  UNK     1      28.951  -6.205  36.948  1.00  0.00     0.048 A 
HETATM    7  C3  UNK     1      27.436  -8.240  37.027  1.00  0.00     0.196 C 
HETATM    8  C4  UNK     1      28.330  -7.338  36.241  1.00  0.00     0.051 C 
HETATM    9  C5  UNK     1      28.309  -5.751  38.109  1.00  0.00     0.084 A 
HETATM   10  C6  UNK     1      25.596  -8.081  38.697  1.00  0.00     0.055 C 
HETATM   11  C7  UNK     1      27.944  -8.476  39.464  1.00  0.00     0.055 C 
HETATM   12  C8  UNK     1      30.136  -5.552  36.570  1.00  0.00     0.103 A 
HETATM   13  C9  UNK     1      30.631  -4.446  37.270  1.00  0.00    -0.001 A 
HETATM   14  C10 UNK     1      28.779  -4.631  38.804  1.00  0.00     0.039 A 
HETATM   15  C11 UNK     1      29.935  -3.979  38.384  1.00  0.00     0.017 A 
HETATM   16  C12 UNK     1      28.403  -7.562  34.920  1.00  0.00     0.150 C 
HETATM   17  C13 UNK     1      31.860  -3.808  36.823  1.00  0.00     0.020 A 
HETATM   18  C14 UNK     1      32.527  -4.281  35.769  1.00  0.00     0.083 A 
HETATM   19  C15 UNK     1      32.057  -5.458  35.022  1.00  0.00     0.288 A 
ENDROOT
BRANCH  16  20
HETATM   20  O4  UNK     1      29.067  -6.768  34.033  1.00  0.00    -0.362 OA
BRANCH  20  21
HETATM   21  C16 UNK     1      28.182  -6.206  33.075  1.00  0.00     0.170 C 
HETATM   22  C17 UNK     1      28.989  -5.455  32.038  1.00  0.00     0.034 C 
ENDBRANCH  20  21
ENDBRANCH  16  20
TORSDOF 2
ENDMDL
MODEL 4
REMARK VINA RESULT:      -7.5     22.547     25.270
REMARK  2 active torsions:
REMARK  status: ('A' for Active; 'I' for Inactive)
REMARK    1  A    between atoms: C12_17  and  O4_4 
REMARK    2  A    between atoms: C16_21  and  O4_4 
ROOT
HETATM    1  O1  UNK     1      14.332   7.507   8.325  1.00  0.00    -0.332 OA
HETATM    2  O2  UNK     1       9.499   7.635   8.885  1.00  0.00    -0.274 OA
HETATM    3  O3  UNK     1      13.711   8.812  11.634  1.00  0.00    -0.289 OA
HETATM    4  O5  UNK     1       7.222   7.597   9.129  1.00  0.00    -0.260 OA
HETATM    5  C1  UNK     1      14.545   7.558   9.737  1.00  0.00     0.125 C 
HETATM    6  C2  UNK     1      11.920   7.691   8.635  1.00  0.00     0.048 A 
HETATM    7  C3  UNK     1      13.490   8.351  10.516  1.00  0.00     0.196 C 
HETATM    8  C4  UNK     1      12.165   8.495   9.844  1.00  0.00     0.051 C 
HETATM    9  C5  UNK     1      13.046   7.256   7.921  1.00  0.00     0.084 A 
HETATM   10  C6  UNK     1      15.905   8.246   9.918  1.00  0.00     0.055 C 
HETATM   11  C7  UNK     1      14.623   6.132  10.298  1.00  0.00     0.055 C 
HETATM   12  C8  UNK     1      10.660   7.310   8.143  1.00  0.00     0.103 A 
HETATM   13  C9  UNK     1      10.514   6.588   6.954  1.00  0.00    -0.001 A 
HETATM   14  C10 UNK     1      12.915   6.555   6.717  1.00  0.00     0.039 A 
HETATM   15  C11 UNK     1      11.652   6.224   6.234  1.00  0.00     0.017 A 
HETATM   16  C12 UNK     1      11.341   9.437  10.328  1.00  0.00     0.150 C 
HETATM   17  C13 UNK     1       9.182   6.229   6.493  1.00  0.00     0.020 A 
HETATM   18  C14 UNK     1       8.104   6.564   7.205  1.00  0.00     0.083 A 
HETATM   19  C15 UNK     1       8.214   7.299   8.475  1.00  0.00     0.288 A 
ENDROOT
BRANCH  16  20
HETATM   20  O4  UNK     1      10.150   9.791   9.767  1.00  0.00    -0.362 OA
BRANCH  20  21
HETATM   21  C16 UNK     1       9.513  10.821  10.509  1.00  0.00     0.170 C 
HETATM   22  C17 UNK     1       9.696  12.136   9.784  1.00  0.00     0.034 C 
ENDBRANCH  20  21
ENDBRANCH  16  20
TORSDOF 2
ENDMDL
MODEL 5
REMARK VINA RESULT:      -7.2     22.294     24.157
REMARK  2 active torsions:
REMARK  status: ('A' for Active; 'I' for Inactive)
REMARK    1  A    between atoms: C12_17  and  O4_4 
REMARK    2  A    between atoms: C16_21  and  O4_4 
ROOT
HETATM    1  O1  UNK     1      13.003   5.408  10.048  1.00  0.00    -0.332 OA
HETATM    2  O2  UNK     1      14.585   9.928   9.176  1.00  0.00    -0.274 OA
HETATM    3  O3  UNK     1      10.219   7.221   8.634  1.00  0.00    -0.289 OA
HETATM    4  O5  UNK     1      15.401  12.016   8.710  1.00  0.00    -0.260 OA
HETATM    5  C1  UNK     1      11.912   5.563   9.139  1.00  0.00     0.125 C 
HETATM    6  C2  UNK     1      13.701   7.716   9.679  1.00  0.00     0.048 A 
HETATM    7  C3  UNK     1      11.354   6.988   9.046  1.00  0.00     0.196 C 
HETATM    8  C4  UNK     1      12.292   8.076   9.453  1.00  0.00     0.051 C 
HETATM    9  C5  UNK     1      13.973   6.376   9.991  1.00  0.00     0.084 A 
HETATM   10  C6  UNK     1      10.807   4.640   9.670  1.00  0.00     0.055 C 
HETATM   11  C7  UNK     1      12.334   5.093   7.741  1.00  0.00     0.055 C 
HETATM   12  C8  UNK     1      14.797   8.591   9.592  1.00  0.00     0.103 A 
HETATM   13  C9  UNK     1      16.103   8.177   9.875  1.00  0.00    -0.001 A 
HETATM   14  C10 UNK     1      15.271   5.954  10.301  1.00  0.00     0.039 A 
HETATM   15  C11 UNK     1      16.332   6.853  10.245  1.00  0.00     0.017 A 
HETATM   16  C12 UNK     1      11.750   9.279   9.697  1.00  0.00     0.150 C 
HETATM   17  C13 UNK     1      17.194   9.134   9.775  1.00  0.00     0.020 A 
HETATM   18  C14 UNK     1      16.962  10.392   9.397  1.00  0.00     0.083 A 
HETATM   19  C15 UNK     1      15.609  10.862   9.064  1.00  0.00     0.288 A 
ENDROOT
BRANCH  16  20
HETATM   20  O4  UNK     1      12.431  10.351  10.193  1.00  0.00    -0.362 OA
BRANCH  20  21
HETATM   21  C16 UNK     1      12.059  10.626  11.536  1.00  0.00     0.170 C 
HETATM   22  C17 UNK     1      13.184  10.203  12.455  1.00  0.00     0.034 C 
ENDBRANCH  20  21
ENDBRANCH  16  20
TORSDOF 2
ENDMDL
MODEL 6
REMARK VINA RESULT:      -7.2     22.713     24.037
REMARK  2 active torsions:
REMARK  status: ('A' for Active; 'I' for Inactive)
REMARK    1  A    between atoms: C12_17  and  O4_4 
REMARK    2  A    between atoms: C16_21  and  O4_4 
ROOT
HETATM    1  O1  UNK     1      12.723  11.164  10.205  1.00  0.00    -0.332 OA
HETATM    2  O2  UNK     1      14.587   6.704   9.634  1.00  0.00    -0.274 OA
HETATM    3  O3  UNK     1       9.926   8.886  10.069  1.00  0.00    -0.289 OA
HETATM    4  O5  UNK     1      15.518   4.620   9.448  1.00  0.00    -0.260 OA
HETATM    5  C1  UNK     1      11.484  10.637  10.681  1.00  0.00     0.125 C 
HETATM    6  C2  UNK     1      13.586   8.916   9.819  1.00  0.00     0.048 A 
HETATM    7  C3  UNK     1      11.088   9.286  10.075  1.00  0.00     0.196 C 
HETATM    8  C4  UNK     1      12.213   8.469   9.529  1.00  0.00     0.051 C 
HETATM    9  C5  UNK     1      13.762  10.273  10.124  1.00  0.00     0.084 A 
HETATM   10  C6  UNK     1      10.424  11.676  10.288  1.00  0.00     0.055 C 
HETATM   11  C7  UNK     1      11.528  10.514  12.209  1.00  0.00     0.055 C 
HETATM   12  C8  UNK     1      14.730   8.099   9.831  1.00  0.00     0.103 A 
HETATM   13  C9  UNK     1      16.008   8.616  10.065  1.00  0.00    -0.001 A 
HETATM   14  C10 UNK     1      15.038  10.808  10.335  1.00  0.00     0.039 A 
HETATM   15  C11 UNK     1      16.158   9.981  10.303  1.00  0.00     0.017 A 
HETATM   16  C12 UNK     1      11.883   7.456   8.714  1.00  0.00     0.150 C 
HETATM   17  C13 UNK     1      17.154   7.720  10.058  1.00  0.00     0.020 A 
HETATM   18  C14 UNK     1      16.992   6.411   9.852  1.00  0.00     0.083 A 
HETATM   19  C15 UNK     1      15.663   5.823   9.629  1.00  0.00     0.288 A 
ENDROOT
BRANCH  16  20
HETATM   20  O4  UNK     1      12.776   6.686   8.030  1.00  0.00    -0.362 OA
BRANCH  20  21
HETATM   21  C16 UNK     1      12.118   5.739   7.202  1.00  0.00     0.170 C 
HETATM   22  C17 UNK     1      11.163   6.467   6.282  1.00  0.00     0.034 C 
ENDBRANCH  20  21
ENDBRANCH  16  20
TORSDOF 2
ENDMDL
MODEL 7
REMARK VINA RESULT:      -7.1     13.001     14.798
REMARK  2 active torsions:
REMARK  status: ('A' for Active; 'I' for Inactive)
REMARK    1  A    between atoms: C12_17  and  O4_4 
REMARK    2  A    between atoms: C16_21  and  O4_4 
ROOT
HETATM    1  O1  UNK     1      31.221  -6.181  33.161  1.00  0.00    -0.332 OA
HETATM    2  O2  UNK     1      28.712  -5.913  37.323  1.00  0.00    -0.274 OA
HETATM    3  O3  UNK     1      28.023  -7.737  32.540  1.00  0.00    -0.289 OA
HETATM    4  O5  UNK     1      27.543  -5.688  39.280  1.00  0.00    -0.260 OA
HETATM    5  C1  UNK     1      30.030  -6.388  32.400  1.00  0.00     0.125 C 
HETATM    6  C2  UNK     1      29.948  -6.170  35.241  1.00  0.00     0.048 A 
HETATM    7  C3  UNK     1      28.924  -7.152  33.137  1.00  0.00     0.196 C 
HETATM    8  C4  UNK     1      28.991  -7.106  34.628  1.00  0.00     0.051 C 
HETATM    9  C5  UNK     1      31.041  -5.774  34.458  1.00  0.00     0.084 A 
HETATM   10  C6  UNK     1      30.464  -7.214  31.182  1.00  0.00     0.055 C 
HETATM   11  C7  UNK     1      29.481  -5.037  31.925  1.00  0.00     0.055 C 
HETATM   12  C8  UNK     1      29.852  -5.627  36.534  1.00  0.00     0.103 A 
HETATM   13  C9  UNK     1      30.836  -4.783  37.060  1.00  0.00    -0.001 A 
HETATM   14  C10 UNK     1      32.045  -4.950  34.980  1.00  0.00     0.039 A 
HETATM   15  C11 UNK     1      31.944  -4.458  36.278  1.00  0.00     0.017 A 
HETATM   16  C12 UNK     1      28.257  -8.010  35.294  1.00  0.00     0.150 C 
HETATM   17  C13 UNK     1      30.683  -4.259  38.408  1.00  0.00     0.020 A 
HETATM   18  C14 UNK     1      29.605  -4.559  39.136  1.00  0.00     0.083 A 
HETATM   19  C15 UNK     1      28.535  -5.421  38.612  1.00  0.00     0.288 A 
ENDROOT
BRANCH  16  20
HETATM   20  O4  UNK     1      28.289  -8.196  36.644  1.00  0.00    -0.362 OA
BRANCH  20  21
HETATM   21  C16 UNK     1      28.998  -9.377  36.989  1.00  0.00     0.170 C 
HETATM   22  C17 UNK     1      30.066  -9.033  38.004  1.00  0.00     0.034 C 
ENDBRANCH  20  21
ENDBRANCH  16  20
TORSDOF 2
ENDMDL
MODEL 8
REMARK VINA RESULT:      -7.1     15.443     18.190
REMARK  2 active torsions:
REMARK  status: ('A' for Active; 'I' for Inactive)
REMARK    1  A    between atoms: C12_17  and  O4_4 
REMARK    2  A    between atoms: C16_21  and  O4_4 
ROOT
HETATM    1  O1  UNK     1      17.644  -6.553  16.447  1.00  0.00    -0.332 OA
HETATM    2  O2  UNK     1      18.412  -2.603  13.708  1.00  0.00    -0.274 OA
HETATM    3  O3  UNK     1      15.233  -4.081  17.501  1.00  0.00    -0.289 OA
HETATM    4  O5  UNK     1      18.760  -0.801  12.338  1.00  0.00    -0.260 OA
HETATM    5  C1  UNK     1      16.325  -6.121  16.784  1.00  0.00     0.125 C 
HETATM    6  C2  UNK     1      18.041  -4.508  15.179  1.00  0.00     0.048 A 
HETATM    7  C3  UNK     1      16.151  -4.600  16.870  1.00  0.00     0.196 C 
HETATM    8  C4  UNK     1      17.148  -3.793  16.105  1.00  0.00     0.051 C 
HETATM    9  C5  UNK     1      18.256  -5.871  15.427  1.00  0.00     0.084 A 
HETATM   10  C6  UNK     1      16.042  -6.723  18.167  1.00  0.00     0.055 C 
HETATM   11  C7  UNK     1      15.322  -6.689  15.772  1.00  0.00     0.055 C 
HETATM   12  C8  UNK     1      18.682  -3.948  14.060  1.00  0.00     0.103 A 
HETATM   13  C9  UNK     1      19.559  -4.687  13.260  1.00  0.00    -0.001 A 
HETATM   14  C10 UNK     1      19.150  -6.616  14.649  1.00  0.00     0.039 A 
HETATM   15  C11 UNK     1      19.801  -6.025  13.570  1.00  0.00     0.017 A 
HETATM   16  C12 UNK     1      17.232  -2.490  16.413  1.00  0.00     0.150 C 
HETATM   17  C13 UNK     1      20.198  -4.048  12.120  1.00  0.00     0.020 A 
HETATM   18  C14 UNK     1      19.938  -2.774  11.821  1.00  0.00     0.083 A 
HETATM   19  C15 UNK     1      19.002  -1.969  12.620  1.00  0.00     0.288 A 
ENDROOT
BRANCH  16  20
HETATM   20  O4  UNK     1      18.162  -1.631  15.908  1.00  0.00    -0.362 OA
BRANCH  20  21
HETATM   21  C16 UNK     1      19.213  -1.401  16.835  1.00  0.00     0.170 C 
HETATM   22  C17 UNK     1      18.747  -0.404  17.873  1.00  0.00     0.034 C 
ENDBRANCH  20  21
ENDBRANCH  16  20
TORSDOF 2
ENDMDL
MODEL 9
REMARK VINA RESULT:      -7.1     14.723     16.390
REMARK  2 active torsions:
REMARK  status: ('A' for Active; 'I' for Inactive)
REMARK    1  A    between atoms: C12_17  and  O4_4 
REMARK    2  A    between atoms: C16_21  and  O4_4 
ROOT
HETATM    1  O1  UNK     1      32.476  -4.300  36.828  1.00  0.00    -0.332 OA
HETATM    2  O2  UNK     1      29.592  -8.067  37.918  1.00  0.00    -0.274 OA
HETATM    3  O3  UNK     1      33.667  -7.106  34.893  1.00  0.00    -0.289 OA
HETATM    4  O5  UNK     1      28.157  -9.784  38.403  1.00  0.00    -0.260 OA
HETATM    5  C1  UNK     1      32.911  -4.922  35.617  1.00  0.00     0.125 C 
HETATM    6  C2  UNK     1      31.133  -6.252  37.404  1.00  0.00     0.048 A 
HETATM    7  C3  UNK     1      32.975  -6.452  35.670  1.00  0.00     0.196 C 
HETATM    8  C4  UNK     1      32.113  -7.099  36.704  1.00  0.00     0.051 C 
HETATM    9  C5  UNK     1      31.394  -4.875  37.442  1.00  0.00     0.084 A 
HETATM   10  C6  UNK     1      34.326  -4.382  35.370  1.00  0.00     0.055 C 
HETATM   11  C7  UNK     1      31.998  -4.493  34.462  1.00  0.00     0.055 C 
HETATM   12  C8  UNK     1      29.952  -6.701  38.022  1.00  0.00     0.103 A 
HETATM   13  C9  UNK     1      29.100  -5.834  38.713  1.00  0.00    -0.001 A 
HETATM   14  C10 UNK     1      30.562  -4.000  38.151  1.00  0.00     0.039 A 
HETATM   15  C11 UNK     1      29.420  -4.479  38.787  1.00  0.00     0.017 A 
HETATM   16  C12 UNK     1      32.382  -8.380  36.999  1.00  0.00     0.150 C 
HETATM   17  C13 UNK     1      27.897  -6.361  39.338  1.00  0.00     0.020 A 
HETATM   18  C14 UNK     1      27.591  -7.656  39.239  1.00  0.00     0.083 A 
HETATM   19  C15 UNK     1      28.445  -8.597  38.498  1.00  0.00     0.288 A 
ENDROOT
BRANCH  16  20
HETATM   20  O4  UNK     1      31.783  -9.089  37.997  1.00  0.00    -0.362 OA
BRANCH  20  21
HETATM   21  C16 UNK     1      31.581 -10.444  37.621  1.00  0.00     0.170 C 
HETATM   22  C17 UNK     1      31.519 -10.534  36.112  1.00  0.00     0.034 C 
ENDBRANCH  20  21
ENDBRANCH  16  20
TORSDOF 2
ENDMDL
MODEL 10
REMARK VINA RESULT:      -7.0     11.885     14.095
REMARK  2 active torsions:
REMARK  status: ('A' for Active; 'I' for Inactive)
REMARK    1  A    between atoms: C12_17  and  O4_4 
REMARK    2  A    between atoms: C16_21  and  O4_4 
ROOT
HETATM    1  O1  UNK     1      25.843  -7.919  39.252  1.00  0.00    -0.332 OA
HETATM    2  O2  UNK     1      22.942  -9.666  35.756  1.00  0.00    -0.274 OA
HETATM    3  O3  UNK     1      27.979  -9.635  36.901  1.00  0.00    -0.289 OA
HETATM    4  O5  UNK     1      21.545 -10.395  34.095  1.00  0.00    -0.260 OA
HETATM    5  C1  UNK     1      26.995  -8.018  38.413  1.00  0.00     0.125 C 
HETATM    6  C2  UNK     1      24.437  -8.906  37.521  1.00  0.00     0.048 A 
HETATM    7  C3  UNK     1      26.958  -9.177  37.410  1.00  0.00     0.196 C 
HETATM    8  C4  UNK     1      25.598  -9.687  37.063  1.00  0.00     0.051 C 
HETATM    9  C5  UNK     1      24.631  -8.068  38.628  1.00  0.00     0.084 A 
HETATM   10  C6  UNK     1      28.175  -8.237  39.369  1.00  0.00     0.055 C 
HETATM   11  C7  UNK     1      27.196  -6.699  37.656  1.00  0.00     0.055 C 
HETATM   12  C8  UNK     1      23.159  -8.917  36.938  1.00  0.00     0.103 A 
HETATM   13  C9  UNK     1      22.094  -8.182  37.469  1.00  0.00    -0.001 A 
HETATM   14  C10 UNK     1      23.569  -7.347  39.185  1.00  0.00     0.039 A 
HETATM   15  C11 UNK     1      22.303  -7.406  38.609  1.00  0.00     0.017 A 
HETATM   16  C12 UNK     1      25.538 -10.885  36.461  1.00  0.00     0.150 C 
HETATM   17  C13 UNK     1      20.791  -8.240  36.824  1.00  0.00     0.020 A 
HETATM   18  C14 UNK     1      20.612  -8.969  35.720  1.00  0.00     0.083 A 
HETATM   19  C15 UNK     1      21.712  -9.734  35.112  1.00  0.00     0.288 A 
ENDROOT
BRANCH  16  20
HETATM   20  O4  UNK     1      24.387 -11.558  36.184  1.00  0.00    -0.362 OA
BRANCH  20  21
HETATM   21  C16 UNK     1      24.654 -12.854  35.666  1.00  0.00     0.170 C 
HETATM   22  C17 UNK     1      24.997 -13.782  36.811  1.00  0.00     0.034 C 
ENDBRANCH  20  21
ENDBRANCH  16  20
TORSDOF 2
ENDMDL
