MODEL 1
REMARK VINA RESULT:      -7.7      0.000      0.000
REMARK  3 active torsions:
REMARK  status: ('A' for Active; 'I' for Inactive)
REMARK    1  A    between atoms: C13_17  and  O3_4 
REMARK    2  A    between atoms: C1_5  and  C4_8 
REMARK    3  A    between atoms: C3_7  and  C6_10 
ROOT
HETATM    1  O1  UNK     1      19.512  10.647  34.441  1.00  0.00    -0.274 OA
HETATM    2  O2  UNK     1      20.680   8.731  34.081  1.00  0.00    -0.259 OA
HETATM    3  C1  UNK     1      17.149   9.276  33.647  1.00  0.00     0.004 A 
HETATM    4  C2  UNK     1      17.114  10.697  34.052  1.00  0.00     0.010 A 
HETATM    5  C3  UNK     1      18.341   8.630  33.661  1.00  0.00     0.062 A 
HETATM    6  C5  UNK     1      18.289  11.334  34.433  1.00  0.00     0.093 A 
HETATM    7  C7  UNK     1      19.602   9.316  34.070  1.00  0.00     0.300 A 
HETATM    8  C8  UNK     1      15.931  11.453  34.071  1.00  0.00     0.018 A 
HETATM    9  C9  UNK     1      18.320  12.673  34.825  1.00  0.00     0.074 A 
HETATM   10  C12 UNK     1      15.945  12.797  34.461  1.00  0.00     0.037 A 
HETATM   11  C13 UNK     1      17.139  13.407  34.838  1.00  0.00     0.068 A 
ENDROOT
BRANCH   5  12
HETATM   12  C6  UNK     1      18.437   7.222  33.270  1.00  0.00    -0.017 A 
HETATM   13  C14 UNK     1      18.825   6.891  31.977  1.00  0.00     0.036 A 
HETATM   14  C18 UNK     1      18.917   5.550  31.605  1.00  0.00     0.034 A 
HETATM   15  C21 UNK     1      18.622   4.548  32.531  1.00  0.00     0.024 A 
HETATM   16 Cl1  UNK     1      19.399   5.128  30.007  1.00  0.00    -0.084 Cl
HETATM   17  C19 UNK     1      18.233   4.888  33.827  1.00  0.00     0.003 A 
HETATM   18  C15 UNK     1      18.141   6.230  34.198  1.00  0.00     0.012 A 
ENDBRANCH   5  12
BRANCH   3  19
HETATM   19  C4  UNK     1      15.958   8.525  33.230  1.00  0.00    -0.024 A 
HETATM   20  C10 UNK     1      15.099   8.016  34.193  1.00  0.00     0.012 A 
HETATM   21  C16 UNK     1      13.968   7.302  33.798  1.00  0.00     0.001 A 
HETATM   22  C20 UNK     1      13.708   7.104  32.442  1.00  0.00     0.000 A 
HETATM   23  C17 UNK     1      14.579   7.619  31.482  1.00  0.00     0.001 A 
HETATM   24  C11 UNK     1      15.709   8.333  31.878  1.00  0.00     0.012 A 
ENDBRANCH   3  19
BRANCH  11  25
HETATM   25  O3  UNK     1      17.148  14.713  35.217  1.00  0.00    -0.361 OA
HETATM   26  H13 UNK     1      17.587  15.238  34.527  1.00  0.00     0.217 HD
ENDBRANCH  11  25
TORSDOF 3
ENDMDL
MODEL 2
REMARK VINA RESULT:      -7.7     18.809     21.004
REMARK  3 active torsions:
REMARK  status: ('A' for Active; 'I' for Inactive)
REMARK    1  A    between atoms: C13_17  and  O3_4 
REMARK    2  A    between atoms: C1_5  and  C4_8 
REMARK    3  A    between atoms: C3_7  and  C6_10 
ROOT
HETATM    1  O1  UNK     1      28.852  -4.523  38.247  1.00  0.00    -0.274 OA
HETATM    2  O2  UNK     1      27.098  -5.665  39.134  1.00  0.00    -0.259 OA
HETATM    3  C1  UNK     1      29.940  -7.004  37.378  1.00  0.00     0.004 A 
HETATM    4  C2  UNK     1      30.632  -5.725  37.112  1.00  0.00     0.010 A 
HETATM    5  C3  UNK     1      28.763  -6.973  38.052  1.00  0.00     0.062 A 
HETATM    6  C5  UNK     1      30.070  -4.533  37.552  1.00  0.00     0.093 A 
HETATM    7  C7  UNK     1      28.162  -5.691  38.524  1.00  0.00     0.300 A 
HETATM    8  C8  UNK     1      31.853  -5.652  36.424  1.00  0.00     0.018 A 
HETATM    9  C9  UNK     1      30.676  -3.295  37.331  1.00  0.00     0.074 A 
HETATM   10  C12 UNK     1      32.474  -4.418  36.194  1.00  0.00     0.037 A 
HETATM   11  C13 UNK     1      31.886  -3.240  36.648  1.00  0.00     0.068 A 
ENDROOT
BRANCH   5  12
HETATM   12  C6  UNK     1      28.032  -8.208  38.344  1.00  0.00    -0.017 A 
HETATM   13  C14 UNK     1      27.277  -8.814  37.346  1.00  0.00     0.036 A 
HETATM   14  C18 UNK     1      26.581  -9.990  37.624  1.00  0.00     0.034 A 
HETATM   15  C21 UNK     1      26.647 -10.553  38.900  1.00  0.00     0.024 A 
HETATM   16 Cl1  UNK     1      25.646 -10.750  36.396  1.00  0.00    -0.084 Cl
HETATM   17  C19 UNK     1      27.406  -9.939  39.895  1.00  0.00     0.003 A 
HETATM   18  C15 UNK     1      28.101  -8.762  39.616  1.00  0.00     0.012 A 
ENDBRANCH   5  12
BRANCH   3  19
HETATM   19  C4  UNK     1      30.460  -8.309  36.951  1.00  0.00    -0.024 A 
HETATM   20  C10 UNK     1      30.277  -8.721  35.638  1.00  0.00     0.012 A 
HETATM   21  C16 UNK     1      30.771  -9.961  35.232  1.00  0.00     0.001 A 
HETATM   22  C20 UNK     1      31.441 -10.776  36.143  1.00  0.00     0.000 A 
HETATM   23  C17 UNK     1      31.619 -10.352  37.460  1.00  0.00     0.001 A 
HETATM   24  C11 UNK     1      31.126  -9.113  37.866  1.00  0.00     0.012 A 
ENDBRANCH   3  19
BRANCH  11  25
HETATM   25  O3  UNK     1      32.492  -2.044  36.422  1.00  0.00    -0.361 OA
HETATM   26  H13 UNK     1      31.899  -1.485  35.892  1.00  0.00     0.217 HD
ENDBRANCH  11  25
TORSDOF 3
ENDMDL
MODEL 3
REMARK VINA RESULT:      -7.5     19.018     20.607
REMARK  3 active torsions:
REMARK  status: ('A' for Active; 'I' for Inactive)
REMARK    1  A    between atoms: C13_17  and  O3_4 
REMARK    2  A    between atoms: C1_5  and  C4_8 
REMARK    3  A    between atoms: C3_7  and  C6_10 
ROOT
HETATM    1  O1  UNK     1      31.926  -3.899  36.328  1.00  0.00    -0.274 OA
HETATM    2  O2  UNK     1      33.190  -4.074  34.447  1.00  0.00    -0.259 OA
HETATM    3  C1  UNK     1      30.675  -6.359  35.635  1.00  0.00     0.004 A 
HETATM    4  C2  UNK     1      30.297  -5.621  36.860  1.00  0.00     0.010 A 
HETATM    5  C3  UNK     1      31.640  -5.835  34.839  1.00  0.00     0.062 A 
HETATM    6  C5  UNK     1      30.930  -4.422  37.165  1.00  0.00     0.093 A 
HETATM    7  C7  UNK     1      32.318  -4.547  35.169  1.00  0.00     0.300 A 
HETATM    8  C8  UNK     1      29.311  -6.079  37.748  1.00  0.00     0.018 A 
HETATM    9  C9  UNK     1      30.617  -3.681  38.306  1.00  0.00     0.074 A 
HETATM   10  C12 UNK     1      28.984  -5.348  38.896  1.00  0.00     0.037 A 
HETATM   11  C13 UNK     1      29.637  -4.149  39.175  1.00  0.00     0.068 A 
ENDROOT
BRANCH   5  12
HETATM   12  C6  UNK     1      32.056  -6.521  33.614  1.00  0.00    -0.017 A 
HETATM   13  C14 UNK     1      31.343  -6.321  32.437  1.00  0.00     0.036 A 
HETATM   14  C18 UNK     1      31.740  -6.973  31.270  1.00  0.00     0.034 A 
HETATM   15  C21 UNK     1      32.849  -7.821  31.288  1.00  0.00     0.024 A 
HETATM   16 Cl1  UNK     1      30.866  -6.732  29.807  1.00  0.00    -0.084 Cl
HETATM   17  C19 UNK     1      33.558  -8.016  32.472  1.00  0.00     0.003 A 
HETATM   18  C15 UNK     1      33.161  -7.363  33.639  1.00  0.00     0.012 A 
ENDBRANCH   5  12
BRANCH   3  19
HETATM   19  C4  UNK     1      30.059  -7.630  35.235  1.00  0.00    -0.024 A 
HETATM   20  C10 UNK     1      30.641  -8.825  35.632  1.00  0.00     0.012 A 
HETATM   21  C16 UNK     1      30.056 -10.034  35.252  1.00  0.00     0.001 A 
HETATM   22  C20 UNK     1      28.897 -10.034  34.477  1.00  0.00     0.000 A 
HETATM   23  C17 UNK     1      28.322  -8.826  34.083  1.00  0.00     0.001 A 
HETATM   24  C11 UNK     1      28.905  -7.618  34.463  1.00  0.00     0.012 A 
ENDBRANCH   3  19
BRANCH  11  25
HETATM   25  O3  UNK     1      29.318  -3.442  40.292  1.00  0.00    -0.361 OA
HETATM   26  H13 UNK     1      30.007  -2.776  40.451  1.00  0.00     0.217 HD
ENDBRANCH  11  25
TORSDOF 3
ENDMDL
MODEL 4
REMARK VINA RESULT:      -7.5     19.259     20.671
REMARK  3 active torsions:
REMARK  status: ('A' for Active; 'I' for Inactive)
REMARK    1  A    between atoms: C13_17  and  O3_4 
REMARK    2  A    between atoms: C1_5  and  C4_8 
REMARK    3  A    between atoms: C3_7  and  C6_10 
ROOT
HETATM    1  O1  UNK     1      30.838  -4.117  38.053  1.00  0.00    -0.274 OA
HETATM    2  O2  UNK     1      29.202  -4.614  39.551  1.00  0.00    -0.259 OA
HETATM    3  C1  UNK     1      30.155  -6.482  36.626  1.00  0.00     0.004 A 
HETATM    4  C2  UNK     1      31.242  -5.593  36.165  1.00  0.00     0.010 A 
HETATM    5  C3  UNK     1      29.481  -6.147  37.755  1.00  0.00     0.062 A 
HETATM    6  C5  UNK     1      31.548  -4.446  36.889  1.00  0.00     0.093 A 
HETATM    7  C7  UNK     1      29.812  -4.915  38.530  1.00  0.00     0.300 A 
HETATM    8  C8  UNK     1      31.998  -5.852  35.011  1.00  0.00     0.018 A 
HETATM    9  C9  UNK     1      32.562  -3.568  36.504  1.00  0.00     0.074 A 
HETATM   10  C12 UNK     1      33.019  -4.982  34.612  1.00  0.00     0.037 A 
HETATM   11  C13 UNK     1      33.301  -3.841  35.358  1.00  0.00     0.068 A 
ENDROOT
BRANCH   5  12
HETATM   12  C6  UNK     1      28.394  -6.989  38.259  1.00  0.00    -0.017 A 
HETATM   13  C14 UNK     1      28.690  -8.098  39.043  1.00  0.00     0.036 A 
HETATM   14  C18 UNK     1      27.655  -8.899  39.524  1.00  0.00     0.034 A 
HETATM   15  C21 UNK     1      26.331  -8.585  39.218  1.00  0.00     0.024 A 
HETATM   16 Cl1  UNK     1      28.010 -10.274  40.498  1.00  0.00    -0.084 Cl
HETATM   17  C19 UNK     1      26.042  -7.471  38.431  1.00  0.00     0.003 A 
HETATM   18  C15 UNK     1      27.078  -6.670  37.949  1.00  0.00     0.012 A 
ENDBRANCH   5  12
BRANCH   3  19
HETATM   19  C4  UNK     1      29.765  -7.712  35.926  1.00  0.00    -0.024 A 
HETATM   20  C10 UNK     1      30.460  -8.888  36.171  1.00  0.00     0.012 A 
HETATM   21  C16 UNK     1      30.090 -10.057  35.505  1.00  0.00     0.001 A 
HETATM   22  C20 UNK     1      29.030 -10.037  34.599  1.00  0.00     0.000 A 
HETATM   23  C17 UNK     1      28.339  -8.849  34.360  1.00  0.00     0.001 A 
HETATM   24  C11 UNK     1      28.708  -7.681  35.026  1.00  0.00     0.012 A 
ENDBRANCH   3  19
BRANCH  11  25
HETATM   25  O3  UNK     1      34.294  -2.997  34.967  1.00  0.00    -0.361 OA
HETATM   26  H13 UNK     1      34.088  -2.101  35.281  1.00  0.00     0.217 HD
ENDBRANCH  11  25
TORSDOF 3
ENDMDL
MODEL 5
REMARK VINA RESULT:      -7.5     19.095     21.155
REMARK  3 active torsions:
REMARK  status: ('A' for Active; 'I' for Inactive)
REMARK    1  A    between atoms: C13_17  and  O3_4 
REMARK    2  A    between atoms: C1_5  and  C4_8 
REMARK    3  A    between atoms: C3_7  and  C6_10 
ROOT
HETATM    1  O1  UNK     1      27.862  -7.051  37.422  1.00  0.00    -0.274 OA
HETATM    2  O2  UNK     1      27.074  -8.726  36.102  1.00  0.00    -0.259 OA
HETATM    3  C1  UNK     1      30.298  -7.132  35.953  1.00  0.00     0.004 A 
HETATM    4  C2  UNK     1      30.103  -6.181  37.069  1.00  0.00     0.010 A 
HETATM    5  C3  UNK     1      29.282  -7.975  35.639  1.00  0.00     0.062 A 
HETATM    6  C5  UNK     1      28.899  -6.172  37.764  1.00  0.00     0.093 A 
HETATM    7  C7  UNK     1      27.991  -7.962  36.387  1.00  0.00     0.300 A 
HETATM    8  C8  UNK     1      31.092  -5.271  37.471  1.00  0.00     0.018 A 
HETATM    9  C9  UNK     1      28.656  -5.298  38.825  1.00  0.00     0.074 A 
HETATM   10  C12 UNK     1      30.865  -4.388  38.534  1.00  0.00     0.037 A 
HETATM   11  C13 UNK     1      29.648  -4.402  39.210  1.00  0.00     0.068 A 
ENDROOT
BRANCH   5  12
HETATM   12  C6  UNK     1      29.417  -8.937  34.544  1.00  0.00    -0.017 A 
HETATM   13  C14 UNK     1      28.923  -8.620  33.283  1.00  0.00     0.036 A 
HETATM   14  C18 UNK     1      29.052  -9.537  32.240  1.00  0.00     0.034 A 
HETATM   15  C21 UNK     1      29.676 -10.765  32.466  1.00  0.00     0.024 A 
HETATM   16 Cl1  UNK     1      28.447  -9.154  30.675  1.00  0.00    -0.084 Cl
HETATM   17  C19 UNK     1      30.168 -11.076  33.733  1.00  0.00     0.003 A 
HETATM   18  C15 UNK     1      30.038 -10.159  34.776  1.00  0.00     0.012 A 
ENDBRANCH   5  12
BRANCH   3  19
HETATM   19  C4  UNK     1      31.534  -7.213  35.167  1.00  0.00    -0.024 A 
HETATM   20  C10 UNK     1      32.577  -8.012  35.613  1.00  0.00     0.012 A 
HETATM   21  C16 UNK     1      33.753  -8.088  34.865  1.00  0.00     0.001 A 
HETATM   22  C20 UNK     1      33.874  -7.363  33.680  1.00  0.00     0.000 A 
HETATM   23  C17 UNK     1      32.819  -6.563  33.242  1.00  0.00     0.001 A 
HETATM   24  C11 UNK     1      31.644  -6.487  33.988  1.00  0.00     0.012 A 
ENDBRANCH   3  19
BRANCH  11  25
HETATM   25  O3  UNK     1      29.430  -3.542  40.242  1.00  0.00    -0.361 OA
HETATM   26  H13 UNK     1      29.623  -3.999  41.078  1.00  0.00     0.217 HD
ENDBRANCH  11  25
TORSDOF 3
ENDMDL
MODEL 6
REMARK VINA RESULT:      -7.4     19.548     21.609
REMARK  3 active torsions:
REMARK  status: ('A' for Active; 'I' for Inactive)
REMARK    1  A    between atoms: C13_17  and  O3_4 
REMARK    2  A    between atoms: C1_5  and  C4_8 
REMARK    3  A    between atoms: C3_7  and  C6_10 
ROOT
HETATM    1  O1  UNK     1      28.523  -6.004  38.978  1.00  0.00    -0.274 OA
HETATM    2  O2  UNK     1      30.459  -4.825  39.146  1.00  0.00    -0.259 OA
HETATM    3  C1  UNK     1      29.814  -7.727  37.117  1.00  0.00     0.004 A 
HETATM    4  C2  UNK     1      28.403  -7.934  37.506  1.00  0.00     0.010 A 
HETATM    5  C3  UNK     1      30.490  -6.689  37.670  1.00  0.00     0.062 A 
HETATM    6  C5  UNK     1      27.806  -7.071  38.418  1.00  0.00     0.093 A 
HETATM    7  C7  UNK     1      29.846  -5.763  38.648  1.00  0.00     0.300 A 
HETATM    8  C8  UNK     1      27.618  -8.977  36.991  1.00  0.00     0.018 A 
HETATM    9  C9  UNK     1      26.478  -7.215  38.824  1.00  0.00     0.074 A 
HETATM   10  C12 UNK     1      26.285  -9.136  37.387  1.00  0.00     0.037 A 
HETATM   11  C13 UNK     1      25.715  -8.254  38.303  1.00  0.00     0.068 A 
ENDROOT
BRANCH   5  12
HETATM   12  C6  UNK     1      31.890  -6.435  37.323  1.00  0.00    -0.017 A 
HETATM   13  C14 UNK     1      32.200  -5.462  36.379  1.00  0.00     0.036 A 
HETATM   14  C18 UNK     1      33.533  -5.220  36.050  1.00  0.00     0.034 A 
HETATM   15  C21 UNK     1      34.548  -5.952  36.668  1.00  0.00     0.024 A 
HETATM   16 Cl1  UNK     1      33.929  -4.016  34.885  1.00  0.00    -0.084 Cl
HETATM   17  C19 UNK     1      34.229  -6.926  37.613  1.00  0.00     0.003 A 
HETATM   18  C15 UNK     1      32.895  -7.169  37.942  1.00  0.00     0.012 A 
ENDBRANCH   5  12
BRANCH   3  19
HETATM   19  C4  UNK     1      30.524  -8.587  36.163  1.00  0.00    -0.024 A 
HETATM   20  C10 UNK     1      30.636  -8.191  34.838  1.00  0.00     0.012 A 
HETATM   21  C16 UNK     1      31.310  -9.009  33.930  1.00  0.00     0.001 A 
HETATM   22  C20 UNK     1      31.863 -10.215  34.357  1.00  0.00     0.000 A 
HETATM   23  C17 UNK     1      31.743 -10.604  35.691  1.00  0.00     0.001 A 
HETATM   24  C11 UNK     1      31.070  -9.787  36.599  1.00  0.00     0.012 A 
ENDBRANCH   3  19
BRANCH  11  25
HETATM   25  O3  UNK     1      24.419  -8.411  38.686  1.00  0.00    -0.361 OA
HETATM   26  H13 UNK     1      24.209  -9.360  38.704  1.00  0.00     0.217 HD
ENDBRANCH  11  25
TORSDOF 3
ENDMDL
MODEL 7
REMARK VINA RESULT:      -7.4     18.939     21.720
REMARK  3 active torsions:
REMARK  status: ('A' for Active; 'I' for Inactive)
REMARK    1  A    between atoms: C13_17  and  O3_4 
REMARK    2  A    between atoms: C1_5  and  C4_8 
REMARK    3  A    between atoms: C3_7  and  C6_10 
ROOT
HETATM    1  O1  UNK     1      34.138  -5.698  37.380  1.00  0.00    -0.274 OA
HETATM    2  O2  UNK     1      32.769  -5.055  39.077  1.00  0.00    -0.259 OA
HETATM    3  C1  UNK     1      31.848  -6.646  35.982  1.00  0.00     0.004 A 
HETATM    4  C2  UNK     1      33.204  -6.758  35.403  1.00  0.00     0.010 A 
HETATM    5  C3  UNK     1      31.714  -6.077  37.206  1.00  0.00     0.062 A 
HETATM    6  C5  UNK     1      34.299  -6.284  36.116  1.00  0.00     0.093 A 
HETATM    7  C7  UNK     1      32.892  -5.569  37.969  1.00  0.00     0.300 A 
HETATM    8  C8  UNK     1      33.447  -7.331  34.145  1.00  0.00     0.018 A 
HETATM    9  C9  UNK     1      35.602  -6.361  35.622  1.00  0.00     0.074 A 
HETATM   10  C12 UNK     1      34.748  -7.417  33.636  1.00  0.00     0.037 A 
HETATM   11  C13 UNK     1      35.825  -6.932  34.374  1.00  0.00     0.068 A 
ENDROOT
BRANCH   5  12
HETATM   12  C6  UNK     1      30.396  -5.939  37.830  1.00  0.00    -0.017 A 
HETATM   13  C14 UNK     1      29.792  -7.046  38.415  1.00  0.00     0.036 A 
HETATM   14  C18 UNK     1      28.538  -6.914  39.010  1.00  0.00     0.034 A 
HETATM   15  C21 UNK     1      27.896  -5.674  39.015  1.00  0.00     0.024 A 
HETATM   16 Cl1  UNK     1      27.781  -8.277  39.739  1.00  0.00    -0.084 Cl
HETATM   17  C19 UNK     1      28.509  -4.569  38.426  1.00  0.00     0.003 A 
HETATM   18  C15 UNK     1      29.763  -4.701  37.831  1.00  0.00     0.012 A 
ENDBRANCH   5  12
BRANCH   3  19
HETATM   19  C4  UNK     1      30.637  -7.120  35.301  1.00  0.00    -0.024 A 
HETATM   20  C10 UNK     1      30.279  -8.457  35.396  1.00  0.00     0.012 A 
HETATM   21  C16 UNK     1      29.128  -8.908  34.748  1.00  0.00     0.001 A 
HETATM   22  C20 UNK     1      28.348  -8.017  34.012  1.00  0.00     0.000 A 
HETATM   23  C17 UNK     1      28.718  -6.675  33.923  1.00  0.00     0.001 A 
HETATM   24  C11 UNK     1      29.868  -6.224  34.570  1.00  0.00     0.012 A 
ENDBRANCH   3  19
BRANCH  11  25
HETATM   25  O3  UNK     1      37.088  -7.016  33.875  1.00  0.00    -0.361 OA
HETATM   26  H13 UNK     1      37.426  -6.118  33.719  1.00  0.00     0.217 HD
ENDBRANCH  11  25
TORSDOF 3
ENDMDL
MODEL 8
REMARK VINA RESULT:      -7.4     19.409     21.567
REMARK  3 active torsions:
REMARK  status: ('A' for Active; 'I' for Inactive)
REMARK    1  A    between atoms: C13_17  and  O3_4 
REMARK    2  A    between atoms: C1_5  and  C4_8 
REMARK    3  A    between atoms: C3_7  and  C6_10 
ROOT
HETATM    1  O1  UNK     1      32.137  -3.901  36.334  1.00  0.00    -0.274 OA
HETATM    2  O2  UNK     1      33.524  -3.971  34.534  1.00  0.00    -0.259 OA
HETATM    3  C1  UNK     1      31.473  -6.624  35.841  1.00  0.00     0.004 A 
HETATM    4  C2  UNK     1      30.874  -5.878  36.969  1.00  0.00     0.010 A 
HETATM    5  C3  UNK     1      32.355  -5.980  35.037  1.00  0.00     0.062 A 
HETATM    6  C5  UNK     1      31.222  -4.548  37.177  1.00  0.00     0.093 A 
HETATM    7  C7  UNK     1      32.726  -4.552  35.263  1.00  0.00     0.300 A 
HETATM    8  C8  UNK     1      29.952  -6.454  37.856  1.00  0.00     0.018 A 
HETATM    9  C9  UNK     1      30.692  -3.792  38.224  1.00  0.00     0.074 A 
HETATM   10  C12 UNK     1      29.410  -5.709  38.911  1.00  0.00     0.037 A 
HETATM   11  C13 UNK     1      29.779  -4.379  39.094  1.00  0.00     0.068 A 
ENDROOT
BRANCH   5  12
HETATM   12  C6  UNK     1      32.980  -6.668  33.906  1.00  0.00    -0.017 A 
HETATM   13  C14 UNK     1      34.263  -7.187  34.039  1.00  0.00     0.036 A 
HETATM   14  C18 UNK     1      34.858  -7.843  32.962  1.00  0.00     0.034 A 
HETATM   15  C21 UNK     1      34.164  -7.976  31.758  1.00  0.00     0.024 A 
HETATM   16 Cl1  UNK     1      36.444  -8.492  33.116  1.00  0.00    -0.084 Cl
HETATM   17  C19 UNK     1      32.878  -7.452  31.632  1.00  0.00     0.003 A 
HETATM   18  C15 UNK     1      32.284  -6.796  32.710  1.00  0.00     0.012 A 
ENDBRANCH   5  12
BRANCH   3  19
HETATM   19  C4  UNK     1      31.162  -8.028  35.546  1.00  0.00    -0.024 A 
HETATM   20  C10 UNK     1      30.056  -8.334  34.767  1.00  0.00     0.012 A 
HETATM   21  C16 UNK     1      29.760  -9.669  34.486  1.00  0.00     0.001 A 
HETATM   22  C20 UNK     1      30.573 -10.683  34.990  1.00  0.00     0.000 A 
HETATM   23  C17 UNK     1      31.682 -10.364  35.773  1.00  0.00     0.001 A 
HETATM   24  C11 UNK     1      31.978  -9.030  36.053  1.00  0.00     0.012 A 
ENDBRANCH   3  19
BRANCH  11  25
HETATM   25  O3  UNK     1      29.250  -3.659  40.119  1.00  0.00    -0.361 OA
HETATM   26  H13 UNK     1      28.289  -3.802  40.142  1.00  0.00     0.217 HD
ENDBRANCH  11  25
TORSDOF 3
ENDMDL
MODEL 9
REMARK VINA RESULT:      -7.3     19.616     23.603
REMARK  3 active torsions:
REMARK  status: ('A' for Active; 'I' for Inactive)
REMARK    1  A    between atoms: C13_17  and  O3_4 
REMARK    2  A    between atoms: C1_5  and  C4_8 
REMARK    3  A    between atoms: C3_7  and  C6_10 
ROOT
HETATM    1  O1  UNK     1      30.141 -12.088  29.479  1.00  0.00    -0.274 OA
HETATM    2  O2  UNK     1      29.421 -10.263  28.331  1.00  0.00    -0.259 OA
HETATM    3  C1  UNK     1      29.974 -10.562  31.875  1.00  0.00     0.004 A 
HETATM    4  C2  UNK     1      30.418 -11.972  31.890  1.00  0.00     0.010 A 
HETATM    5  C3  UNK     1      29.643 -10.002  30.684  1.00  0.00     0.062 A 
HETATM    6  C5  UNK     1      30.488 -12.685  30.700  1.00  0.00     0.093 A 
HETATM    7  C7  UNK     1      29.720 -10.771  29.407  1.00  0.00     0.300 A 
HETATM    8  C8  UNK     1      30.782 -12.640  33.070  1.00  0.00     0.018 A 
HETATM    9  C9  UNK     1      30.900 -14.018  30.650  1.00  0.00     0.074 A 
HETATM   10  C12 UNK     1      31.198 -13.977  33.038  1.00  0.00     0.037 A 
HETATM   11  C13 UNK     1      31.257 -14.665  31.829  1.00  0.00     0.068 A 
ENDROOT
BRANCH   5  12
HETATM   12  C6  UNK     1      29.196  -8.610  30.607  1.00  0.00    -0.017 A 
HETATM   13  C14 UNK     1      27.835  -8.324  30.597  1.00  0.00     0.036 A 
HETATM   14  C18 UNK     1      27.409  -6.998  30.524  1.00  0.00     0.034 A 
HETATM   15  C21 UNK     1      28.348  -5.967  30.463  1.00  0.00     0.024 A 
HETATM   16 Cl1  UNK     1      25.727  -6.632  30.514  1.00  0.00    -0.084 Cl
HETATM   17  C19 UNK     1      29.710  -6.262  30.473  1.00  0.00     0.003 A 
HETATM   18  C15 UNK     1      30.136  -7.589  30.545  1.00  0.00     0.012 A 
ENDBRANCH   5  12
BRANCH   3  19
HETATM   19  C4  UNK     1      29.871  -9.734  33.082  1.00  0.00    -0.024 A 
HETATM   20  C10 UNK     1      30.967  -8.992  33.498  1.00  0.00     0.012 A 
HETATM   21  C16 UNK     1      30.870  -8.205  34.646  1.00  0.00     0.001 A 
HETATM   22  C20 UNK     1      29.677  -8.169  35.367  1.00  0.00     0.000 A 
HETATM   23  C17 UNK     1      28.582  -8.919  34.941  1.00  0.00     0.001 A 
HETATM   24  C11 UNK     1      28.679  -9.706  33.793  1.00  0.00     0.012 A 
ENDBRANCH   3  19
BRANCH  11  25
HETATM   25  O3  UNK     1      31.661 -15.964  31.802  1.00  0.00    -0.361 OA
HETATM   26  H13 UNK     1      31.998 -16.170  30.914  1.00  0.00     0.217 HD
ENDBRANCH  11  25
TORSDOF 3
ENDMDL
MODEL 10
REMARK VINA RESULT:      -7.3     19.240     21.995
REMARK  3 active torsions:
REMARK  status: ('A' for Active; 'I' for Inactive)
REMARK    1  A    between atoms: C13_17  and  O3_4 
REMARK    2  A    between atoms: C1_5  and  C4_8 
REMARK    3  A    between atoms: C3_7  and  C6_10 
ROOT
HETATM    1  O1  UNK     1      34.694  -7.535  33.473  1.00  0.00    -0.274 OA
HETATM    2  O2  UNK     1      34.225  -7.357  35.690  1.00  0.00    -0.259 OA
HETATM    3  C1  UNK     1      31.932  -7.127  32.925  1.00  0.00     0.004 A 
HETATM    4  C2  UNK     1      32.910  -7.333  31.836  1.00  0.00     0.010 A 
HETATM    5  C3  UNK     1      32.380  -7.136  34.205  1.00  0.00     0.062 A 
HETATM    6  C5  UNK     1      34.251  -7.530  32.142  1.00  0.00     0.093 A 
HETATM    7  C7  UNK     1      33.821  -7.348  34.531  1.00  0.00     0.300 A 
HETATM    8  C8  UNK     1      32.546  -7.342  30.480  1.00  0.00     0.018 A 
HETATM    9  C9  UNK     1      35.221  -7.729  31.158  1.00  0.00     0.074 A 
HETATM   10  C12 UNK     1      33.506  -7.541  29.481  1.00  0.00     0.037 A 
HETATM   11  C13 UNK     1      34.843  -7.734  29.820  1.00  0.00     0.068 A 
ENDROOT
BRANCH   5  12
HETATM   12  C6  UNK     1      31.458  -6.937  35.325  1.00  0.00    -0.017 A 
HETATM   13  C14 UNK     1      31.273  -5.661  35.846  1.00  0.00     0.036 A 
HETATM   14  C18 UNK     1      30.394  -5.471  36.912  1.00  0.00     0.034 A 
HETATM   15  C21 UNK     1      29.706  -6.560  37.450  1.00  0.00     0.024 A 
HETATM   16 Cl1  UNK     1      30.155  -3.896  37.564  1.00  0.00    -0.084 Cl
HETATM   17  C19 UNK     1      29.897  -7.837  36.922  1.00  0.00     0.003 A 
HETATM   18  C15 UNK     1      30.777  -8.026  35.856  1.00  0.00     0.012 A 
ENDBRANCH   5  12
BRANCH   3  19
HETATM   19  C4  UNK     1      30.498  -6.913  32.694  1.00  0.00    -0.024 A 
HETATM   20  C10 UNK     1      29.643  -8.005  32.647  1.00  0.00     0.012 A 
HETATM   21  C16 UNK     1      28.280  -7.802  32.426  1.00  0.00     0.001 A 
HETATM   22  C20 UNK     1      27.787  -6.509  32.255  1.00  0.00     0.000 A 
HETATM   23  C17 UNK     1      28.656  -5.419  32.304  1.00  0.00     0.001 A 
HETATM   24  C11 UNK     1      30.018  -5.621  32.524  1.00  0.00     0.012 A 
ENDBRANCH   3  19
BRANCH  11  25
HETATM   25  O3  UNK     1      35.773  -7.927  28.846  1.00  0.00    -0.361 OA
HETATM   26  H13 UNK     1      35.581  -7.330  28.104  1.00  0.00     0.217 HD
ENDBRANCH  11  25
TORSDOF 3
ENDMDL
