MODEL 1
REMARK VINA RESULT:      -7.9      0.000      0.000
REMARK  5 active torsions:
REMARK  status: ('A' for Active; 'I' for Inactive)
REMARK    1  A    between atoms: C5_11  and  O2_2 
REMARK    2  A    between atoms: C11_17  and  O3_3 
REMARK    3  A    between atoms: C12_18  and  O4_4 
REMARK    4  A    between atoms: C14_20  and  O6_6 
REMARK    5  A    between atoms: C1_7  and  C4_10 
ROOT
HETATM    1  O1  UNK     1      16.438   5.983  32.593  1.00  0.00    -0.306 OA
HETATM    2  O5  UNK     1      18.858   8.040  35.145  1.00  0.00    -0.284 OA
HETATM    3  C1  UNK     1      17.747   5.590  32.822  1.00  0.00     0.123 A 
HETATM    4  C2  UNK     1      16.734   7.827  34.143  1.00  0.00     0.053 A 
HETATM    5  C3  UNK     1      15.959   7.082  33.256  1.00  0.00     0.090 A 
HETATM    6  C5  UNK     1      18.601   6.226  33.645  1.00  0.00     0.154 A 
HETATM    7  C6  UNK     1      18.128   7.422  34.381  1.00  0.00     0.221 A 
HETATM    8  C7  UNK     1      16.192   8.941  34.790  1.00  0.00     0.055 A 
HETATM    9  C9  UNK     1      14.635   7.448  33.009  1.00  0.00     0.041 A 
HETATM   10  C11 UNK     1      14.868   9.303  34.543  1.00  0.00     0.069 A 
HETATM   11  C13 UNK     1      14.090   8.559  33.654  1.00  0.00     0.039 A 
ENDROOT
BRANCH   3  12
HETATM   12  C4  UNK     1      18.133   4.396  32.047  1.00  0.00     0.004 A 
HETATM   13  C10 UNK     1      18.501   4.523  30.708  1.00  0.00     0.017 A 
HETATM   14  C15 UNK     1      18.867   3.394  29.975  1.00  0.00     0.040 A 
HETATM   15  C14 UNK     1      18.865   2.139  30.581  1.00  0.00     0.101 A 
HETATM   16  C12 UNK     1      18.497   2.011  31.920  1.00  0.00     0.102 A 
HETATM   17  C8  UNK     1      18.132   3.140  32.654  1.00  0.00     0.054 A 
BRANCH  15  18
HETATM   18  O6  UNK     1      19.224   1.044  29.854  1.00  0.00    -0.353 OA
HETATM   19  C19 UNK     1      18.582   0.865  28.592  1.00  0.00     0.210 C 
ENDBRANCH  15  18
BRANCH  16  20
HETATM   20  O4  UNK     1      18.493   0.790  32.524  1.00  0.00    -0.353 OA
HETATM   21  C17 UNK     1      18.215   0.758  33.922  1.00  0.00     0.210 C 
ENDBRANCH  16  20
ENDBRANCH   3  12
BRANCH   6  22
HETATM   22  O2  UNK     1      19.908   5.828  33.827  1.00  0.00    -0.350 OA
HETATM   23  C16 UNK     1      20.771   6.506  32.934  1.00  0.00     0.210 C 
ENDBRANCH   6  22
BRANCH  10  24
HETATM   24  O3  UNK     1      14.332  10.387  35.169  1.00  0.00    -0.356 OA
HETATM   25  C18 UNK     1      13.640  11.332  34.353  1.00  0.00     0.210 C 
ENDBRANCH  10  24
TORSDOF 5
ENDMDL
MODEL 2
REMARK VINA RESULT:      -7.8      1.090      2.097
REMARK  5 active torsions:
REMARK  status: ('A' for Active; 'I' for Inactive)
REMARK    1  A    between atoms: C5_11  and  O2_2 
REMARK    2  A    between atoms: C11_17  and  O3_3 
REMARK    3  A    between atoms: C12_18  and  O4_4 
REMARK    4  A    between atoms: C14_20  and  O6_6 
REMARK    5  A    between atoms: C1_7  and  C4_10 
ROOT
HETATM    1  O1  UNK     1      16.591   5.787  32.509  1.00  0.00    -0.306 OA
HETATM    2  O5  UNK     1      19.320   8.438  33.967  1.00  0.00    -0.284 OA
HETATM    3  C1  UNK     1      17.898   5.409  32.770  1.00  0.00     0.123 A 
HETATM    4  C2  UNK     1      17.105   8.035  33.265  1.00  0.00     0.053 A 
HETATM    5  C3  UNK     1      16.221   7.082  32.764  1.00  0.00     0.090 A 
HETATM    6  C5  UNK     1      18.851   6.233  33.244  1.00  0.00     0.154 A 
HETATM    7  C6  UNK     1      18.497   7.643  33.532  1.00  0.00     0.221 A 
HETATM    8  C7  UNK     1      16.672   9.342  33.504  1.00  0.00     0.055 A 
HETATM    9  C9  UNK     1      14.896   7.430  32.498  1.00  0.00     0.041 A 
HETATM   10  C11 UNK     1      15.346   9.687  33.239  1.00  0.00     0.069 A 
HETATM   11  C13 UNK     1      14.460   8.733  32.737  1.00  0.00     0.039 A 
ENDROOT
BRANCH   3  12
HETATM   12  C4  UNK     1      18.161   3.993  32.452  1.00  0.00     0.004 A 
HETATM   13  C10 UNK     1      18.122   3.032  33.462  1.00  0.00     0.017 A 
HETATM   14  C15 UNK     1      18.371   1.693  33.161  1.00  0.00     0.040 A 
HETATM   15  C14 UNK     1      18.658   1.314  31.851  1.00  0.00     0.101 A 
HETATM   16  C12 UNK     1      18.697   2.275  30.840  1.00  0.00     0.102 A 
HETATM   17  C8  UNK     1      18.449   3.615  31.140  1.00  0.00     0.054 A 
BRANCH  15  18
HETATM   18  O6  UNK     1      18.899   0.004  31.570  1.00  0.00    -0.353 OA
HETATM   19  C19 UNK     1      18.658  -0.938  32.614  1.00  0.00     0.210 C 
ENDBRANCH  15  18
BRANCH  16  20
HETATM   20  O4  UNK     1      18.976   1.917  29.555  1.00  0.00    -0.353 OA
HETATM   21  C17 UNK     1      17.904   1.978  28.617  1.00  0.00     0.210 C 
ENDBRANCH  16  20
ENDBRANCH   3  12
BRANCH   6  22
HETATM   22  O2  UNK     1      20.152   5.833  33.463  1.00  0.00    -0.350 OA
HETATM   23  C16 UNK     1      20.974   6.169  32.361  1.00  0.00     0.210 C 
ENDBRANCH   6  22
BRANCH  10  24
HETATM   24  O3  UNK     1      14.916  10.958  33.469  1.00  0.00    -0.356 OA
HETATM   25  C18 UNK     1      13.743  11.382  32.774  1.00  0.00     0.210 C 
ENDBRANCH  10  24
TORSDOF 5
ENDMDL
MODEL 3
REMARK VINA RESULT:      -7.5      2.226      3.609
REMARK  5 active torsions:
REMARK  status: ('A' for Active; 'I' for Inactive)
REMARK    1  A    between atoms: C5_11  and  O2_2 
REMARK    2  A    between atoms: C11_17  and  O3_3 
REMARK    3  A    between atoms: C12_18  and  O4_4 
REMARK    4  A    between atoms: C14_20  and  O6_6 
REMARK    5  A    between atoms: C1_7  and  C4_10 
ROOT
HETATM    1  O1  UNK     1      18.038   8.902  33.160  1.00  0.00    -0.306 OA
HETATM    2  O5  UNK     1      14.180   9.377  34.379  1.00  0.00    -0.284 OA
HETATM    3  C1  UNK     1      17.091   7.910  32.964  1.00  0.00     0.123 A 
HETATM    4  C2  UNK     1      16.346  10.293  34.205  1.00  0.00     0.053 A 
HETATM    5  C3  UNK     1      17.650  10.067  33.768  1.00  0.00     0.090 A 
HETATM    6  C5  UNK     1      15.804   7.998  33.347  1.00  0.00     0.154 A 
HETATM    7  C6  UNK     1      15.339   9.238  34.011  1.00  0.00     0.221 A 
HETATM    8  C7  UNK     1      16.007  11.501  34.821  1.00  0.00     0.055 A 
HETATM    9  C9  UNK     1      18.625  11.050  33.944  1.00  0.00     0.041 A 
HETATM   10  C11 UNK     1      16.983  12.482  34.994  1.00  0.00     0.069 A 
HETATM   11  C13 UNK     1      18.290  12.258  34.557  1.00  0.00     0.039 A 
ENDROOT
BRANCH   3  12
HETATM   12  C4  UNK     1      17.642   6.713  32.301  1.00  0.00     0.004 A 
HETATM   13  C10 UNK     1      18.251   6.825  31.052  1.00  0.00     0.017 A 
HETATM   14  C15 UNK     1      18.772   5.693  30.425  1.00  0.00     0.040 A 
HETATM   15  C14 UNK     1      18.684   4.449  31.048  1.00  0.00     0.101 A 
HETATM   16  C12 UNK     1      18.075   4.336  32.298  1.00  0.00     0.102 A 
HETATM   17  C8  UNK     1      17.554   5.468  32.925  1.00  0.00     0.054 A 
BRANCH  15  18
HETATM   18  O6  UNK     1      19.196   3.351  30.426  1.00  0.00    -0.353 OA
HETATM   19  C19 UNK     1      18.341   2.666  29.512  1.00  0.00     0.210 C 
ENDBRANCH  15  18
BRANCH  16  20
HETATM   20  O4  UNK     1      17.984   3.126  32.917  1.00  0.00    -0.353 OA
HETATM   21  C17 UNK     1      18.347   3.073  34.295  1.00  0.00     0.210 C 
ENDBRANCH  16  20
ENDBRANCH   3  12
BRANCH   6  22
HETATM   22  O2  UNK     1      14.894   6.979  33.166  1.00  0.00    -0.350 OA
HETATM   23  C16 UNK     1      14.153   7.171  31.976  1.00  0.00     0.210 C 
ENDBRANCH   6  22
BRANCH  10  24
HETATM   24  O3  UNK     1      16.662  13.662  35.593  1.00  0.00    -0.356 OA
HETATM   25  C18 UNK     1      16.013  13.591  36.862  1.00  0.00     0.210 C 
ENDBRANCH  10  24
TORSDOF 5
ENDMDL
MODEL 4
REMARK VINA RESULT:      -7.4      7.118     10.695
REMARK  5 active torsions:
REMARK  status: ('A' for Active; 'I' for Inactive)
REMARK    1  A    between atoms: C5_11  and  O2_2 
REMARK    2  A    between atoms: C11_17  and  O3_3 
REMARK    3  A    between atoms: C12_18  and  O4_4 
REMARK    4  A    between atoms: C14_20  and  O6_6 
REMARK    5  A    between atoms: C1_7  and  C4_10 
ROOT
HETATM    1  O1  UNK     1      20.323  -3.193  34.411  1.00  0.00    -0.306 OA
HETATM    2  O5  UNK     1      17.443  -0.383  35.050  1.00  0.00    -0.284 OA
HETATM    3  C1  UNK     1      19.581  -3.172  35.581  1.00  0.00     0.123 A 
HETATM    4  C2  UNK     1      19.089  -1.264  33.609  1.00  0.00     0.053 A 
HETATM    5  C3  UNK     1      20.062  -2.249  33.453  1.00  0.00     0.090 A 
HETATM    6  C5  UNK     1      18.622  -2.270  35.860  1.00  0.00     0.154 A 
HETATM    7  C6  UNK     1      18.307  -1.228  34.854  1.00  0.00     0.221 A 
HETATM    8  C7  UNK     1      18.867  -0.325  32.598  1.00  0.00     0.055 A 
HETATM    9  C9  UNK     1      20.820  -2.301  32.283  1.00  0.00     0.041 A 
HETATM   10  C11 UNK     1      19.625  -0.381  31.429  1.00  0.00     0.069 A 
HETATM   11  C13 UNK     1      20.600  -1.367  31.271  1.00  0.00     0.039 A 
ENDROOT
BRANCH   3  12
HETATM   12  C4  UNK     1      19.964  -4.239  36.524  1.00  0.00     0.004 A 
HETATM   13  C10 UNK     1      21.095  -4.089  37.326  1.00  0.00     0.017 A 
HETATM   14  C15 UNK     1      21.456  -5.098  38.218  1.00  0.00     0.040 A 
HETATM   15  C14 UNK     1      20.688  -6.258  38.308  1.00  0.00     0.101 A 
HETATM   16  C12 UNK     1      19.556  -6.409  37.506  1.00  0.00     0.102 A 
HETATM   17  C8  UNK     1      19.194  -5.399  36.614  1.00  0.00     0.054 A 
BRANCH  15  18
HETATM   18  O6  UNK     1      21.051  -7.236  39.183  1.00  0.00    -0.353 OA
HETATM   19  C19 UNK     1      22.406  -7.235  39.631  1.00  0.00     0.210 C 
ENDBRANCH  15  18
BRANCH  16  20
HETATM   20  O4  UNK     1      18.797  -7.537  37.586  1.00  0.00    -0.353 OA
HETATM   21  C17 UNK     1      18.720  -8.351  36.417  1.00  0.00     0.210 C 
ENDBRANCH  16  20
ENDBRANCH   3  12
BRANCH   6  22
HETATM   22  O2  UNK     1      17.923  -2.257  37.048  1.00  0.00    -0.350 OA
HETATM   23  C16 UNK     1      18.435  -1.269  37.922  1.00  0.00     0.210 C 
ENDBRANCH   6  22
BRANCH  10  24
HETATM   24  O3  UNK     1      19.416   0.530  30.439  1.00  0.00    -0.356 OA
HETATM   25  C18 UNK     1      19.964   0.232  29.155  1.00  0.00     0.210 C 
ENDBRANCH  10  24
TORSDOF 5
ENDMDL
MODEL 5
REMARK VINA RESULT:      -7.4     22.879     24.949
REMARK  5 active torsions:
REMARK  status: ('A' for Active; 'I' for Inactive)
REMARK    1  A    between atoms: C5_11  and  O2_2 
REMARK    2  A    between atoms: C11_17  and  O3_3 
REMARK    3  A    between atoms: C12_18  and  O4_4 
REMARK    4  A    between atoms: C14_20  and  O6_6 
REMARK    5  A    between atoms: C1_7  and  C4_10 
ROOT
HETATM    1  O1  UNK     1      14.424   9.271   8.286  1.00  0.00    -0.306 OA
HETATM    2  O5  UNK     1      16.931   7.730  11.105  1.00  0.00    -0.284 OA
HETATM    3  C1  UNK     1      14.147   8.070   8.921  1.00  0.00     0.123 A 
HETATM    4  C2  UNK     1      16.460   9.476   9.591  1.00  0.00     0.053 A 
HETATM    5  C3  UNK     1      15.564   9.947   8.634  1.00  0.00     0.090 A 
HETATM    6  C5  UNK     1      14.933   7.502   9.854  1.00  0.00     0.154 A 
HETATM    7  C6  UNK     1      16.178   8.197  10.260  1.00  0.00     0.221 A 
HETATM    8  C7  UNK     1      17.608  10.209   9.905  1.00  0.00     0.055 A 
HETATM    9  C9  UNK     1      15.811  11.157   7.982  1.00  0.00     0.041 A 
HETATM   10  C11 UNK     1      17.852  11.418   9.253  1.00  0.00     0.069 A 
HETATM   11  C13 UNK     1      16.955  11.891   8.293  1.00  0.00     0.039 A 
ENDROOT
BRANCH   3  12
HETATM   12  C4  UNK     1      12.895   7.449   8.454  1.00  0.00     0.004 A 
HETATM   13  C10 UNK     1      12.872   6.745   7.250  1.00  0.00     0.017 A 
HETATM   14  C15 UNK     1      11.688   6.156   6.808  1.00  0.00     0.040 A 
HETATM   15  C14 UNK     1      10.525   6.271   7.569  1.00  0.00     0.101 A 
HETATM   16  C12 UNK     1      10.547   6.974   8.774  1.00  0.00     0.102 A 
HETATM   17  C8  UNK     1      11.732   7.563   9.217  1.00  0.00     0.054 A 
BRANCH  15  18
HETATM   18  O6  UNK     1       9.375   5.691   7.127  1.00  0.00    -0.353 OA
HETATM   19  C19 UNK     1       8.546   6.471   6.267  1.00  0.00     0.210 C 
ENDBRANCH  15  18
BRANCH  16  20
HETATM   20  O4  UNK     1       9.419   7.092   9.527  1.00  0.00    -0.353 OA
HETATM   21  C17 UNK     1       8.767   8.360   9.526  1.00  0.00     0.210 C 
ENDBRANCH  16  20
ENDBRANCH   3  12
BRANCH   6  22
HETATM   22  O2  UNK     1      14.646   6.290  10.444  1.00  0.00    -0.350 OA
HETATM   23  C16 UNK     1      15.303   5.233   9.771  1.00  0.00     0.210 C 
ENDBRANCH   6  22
BRANCH  10  24
HETATM   24  O3  UNK     1      18.968  12.138   9.551  1.00  0.00    -0.356 OA
HETATM   25  C18 UNK     1      19.943  12.283   8.520  1.00  0.00     0.210 C 
ENDBRANCH  10  24
TORSDOF 5
ENDMDL
MODEL 6
REMARK VINA RESULT:      -7.2     22.684     25.394
REMARK  5 active torsions:
REMARK  status: ('A' for Active; 'I' for Inactive)
REMARK    1  A    between atoms: C5_11  and  O2_2 
REMARK    2  A    between atoms: C11_17  and  O3_3 
REMARK    3  A    between atoms: C12_18  and  O4_4 
REMARK    4  A    between atoms: C14_20  and  O6_6 
REMARK    5  A    between atoms: C1_7  and  C4_10 
ROOT
HETATM    1  O1  UNK     1      13.524   8.064   7.922  1.00  0.00    -0.306 OA
HETATM    2  O5  UNK     1      10.467   9.102  10.407  1.00  0.00    -0.284 OA
HETATM    3  C1  UNK     1      13.696   9.002   8.927  1.00  0.00     0.123 A 
HETATM    4  C2  UNK     1      11.211   7.782   8.600  1.00  0.00     0.053 A 
HETATM    5  C3  UNK     1      12.296   7.473   7.781  1.00  0.00     0.090 A 
HETATM    6  C5  UNK     1      12.730   9.396   9.776  1.00  0.00     0.154 A 
HETATM    7  C6  UNK     1      11.384   8.786   9.661  1.00  0.00     0.221 A 
HETATM    8  C7  UNK     1       9.980   7.147   8.410  1.00  0.00     0.055 A 
HETATM    9  C9  UNK     1      12.156   6.527   6.765  1.00  0.00     0.041 A 
HETATM   10  C11 UNK     1       9.844   6.201   7.394  1.00  0.00     0.069 A 
HETATM   11  C13 UNK     1      10.929   5.891   6.573  1.00  0.00     0.039 A 
ENDROOT
BRANCH   3  12
HETATM   12  C4  UNK     1      15.061   9.558   8.966  1.00  0.00     0.004 A 
HETATM   13  C10 UNK     1      16.050   8.928   9.721  1.00  0.00     0.017 A 
HETATM   14  C15 UNK     1      17.342   9.453   9.758  1.00  0.00     0.040 A 
HETATM   15  C14 UNK     1      17.645  10.609   9.040  1.00  0.00     0.101 A 
HETATM   16  C12 UNK     1      16.656  11.240   8.284  1.00  0.00     0.102 A 
HETATM   17  C8  UNK     1      15.364  10.715   8.246  1.00  0.00     0.054 A 
BRANCH  15  18
HETATM   18  O6  UNK     1      18.909  11.113   9.084  1.00  0.00    -0.353 OA
HETATM   19  C19 UNK     1      19.262  11.878  10.235  1.00  0.00     0.210 C 
ENDBRANCH  15  18
BRANCH  16  20
HETATM   20  O4  UNK     1      16.941  12.369   7.577  1.00  0.00    -0.353 OA
HETATM   21  C17 UNK     1      15.840  13.193   7.200  1.00  0.00     0.210 C 
ENDBRANCH  16  20
ENDBRANCH   3  12
BRANCH   6  22
HETATM   22  O2  UNK     1      12.925  10.356  10.746  1.00  0.00    -0.350 OA
HETATM   23  C16 UNK     1      13.218   9.759  11.995  1.00  0.00     0.210 C 
ENDBRANCH   6  22
BRANCH  10  24
HETATM   24  O3  UNK     1       8.648   5.578   7.202  1.00  0.00    -0.356 OA
HETATM   25  C18 UNK     1       7.820   5.394   8.349  1.00  0.00     0.210 C 
ENDBRANCH  10  24
TORSDOF 5
ENDMDL
MODEL 7
REMARK VINA RESULT:      -7.1     23.026     25.084
REMARK  5 active torsions:
REMARK  status: ('A' for Active; 'I' for Inactive)
REMARK    1  A    between atoms: C5_11  and  O2_2 
REMARK    2  A    between atoms: C11_17  and  O3_3 
REMARK    3  A    between atoms: C12_18  and  O4_4 
REMARK    4  A    between atoms: C14_20  and  O6_6 
REMARK    5  A    between atoms: C1_7  and  C4_10 
ROOT
HETATM    1  O1  UNK     1      13.903   9.573   8.560  1.00  0.00    -0.306 OA
HETATM    2  O5  UNK     1      16.511   7.404  10.817  1.00  0.00    -0.284 OA
HETATM    3  C1  UNK     1      13.498   8.435   9.238  1.00  0.00     0.123 A 
HETATM    4  C2  UNK     1      16.149   9.275   9.427  1.00  0.00     0.053 A 
HETATM    5  C3  UNK     1      15.209   9.970   8.670  1.00  0.00     0.090 A 
HETATM    6  C5  UNK     1      14.306   7.669   9.994  1.00  0.00     0.154 A 
HETATM    7  C6  UNK     1      15.729   8.059  10.140  1.00  0.00     0.221 A 
HETATM    8  C7  UNK     1      17.470   9.727   9.503  1.00  0.00     0.055 A 
HETATM    9  C9  UNK     1      15.585  11.125   7.981  1.00  0.00     0.041 A 
HETATM   10  C11 UNK     1      17.842  10.882   8.814  1.00  0.00     0.069 A 
HETATM   11  C13 UNK     1      16.901  11.580   8.054  1.00  0.00     0.039 A 
ENDROOT
BRANCH   3  12
HETATM   12  C4  UNK     1      12.072   8.120   9.034  1.00  0.00     0.004 A 
HETATM   13  C10 UNK     1      11.092   8.872   9.682  1.00  0.00     0.017 A 
HETATM   14  C15 UNK     1       9.743   8.575   9.487  1.00  0.00     0.040 A 
HETATM   15  C14 UNK     1       9.373   7.526   8.646  1.00  0.00     0.101 A 
HETATM   16  C12 UNK     1      10.353   6.774   7.997  1.00  0.00     0.102 A 
HETATM   17  C8  UNK     1      11.703   7.071   8.191  1.00  0.00     0.054 A 
BRANCH  15  18
HETATM   18  O6  UNK     1       8.053   7.246   8.465  1.00  0.00    -0.353 OA
HETATM   19  C19 UNK     1       7.416   6.452   9.465  1.00  0.00     0.210 C 
ENDBRANCH  15  18
BRANCH  16  20
HETATM   20  O4  UNK     1      10.005   5.748   7.172  1.00  0.00    -0.353 OA
HETATM   21  C17 UNK     1       9.899   6.042   5.781  1.00  0.00     0.210 C 
ENDBRANCH  16  20
ENDBRANCH   3  12
BRANCH   6  22
HETATM   22  O2  UNK     1      13.880   6.524  10.631  1.00  0.00    -0.350 OA
HETATM   23  C16 UNK     1      14.309   5.370   9.934  1.00  0.00     0.210 C 
ENDBRANCH   6  22
BRANCH  10  24
HETATM   24  O3  UNK     1      19.126  11.329   8.881  1.00  0.00    -0.356 OA
HETATM   25  C18 UNK     1      19.699  11.842   7.679  1.00  0.00     0.210 C 
ENDBRANCH  10  24
TORSDOF 5
ENDMDL
MODEL 8
REMARK VINA RESULT:      -7.0      1.957      7.946
REMARK  5 active torsions:
REMARK  status: ('A' for Active; 'I' for Inactive)
REMARK    1  A    between atoms: C5_11  and  O2_2 
REMARK    2  A    between atoms: C11_17  and  O3_3 
REMARK    3  A    between atoms: C12_18  and  O4_4 
REMARK    4  A    between atoms: C14_20  and  O6_6 
REMARK    5  A    between atoms: C1_7  and  C4_10 
ROOT
HETATM    1  O1  UNK     1      18.610   3.354  30.964  1.00  0.00    -0.306 OA
HETATM    2  O5  UNK     1      18.661   0.536  33.907  1.00  0.00    -0.284 OA
HETATM    3  C1  UNK     1      18.328   3.680  32.281  1.00  0.00     0.123 A 
HETATM    4  C2  UNK     1      18.960   1.045  31.623  1.00  0.00     0.053 A 
HETATM    5  C3  UNK     1      18.922   2.055  30.664  1.00  0.00     0.090 A 
HETATM    6  C5  UNK     1      18.320   2.800  33.299  1.00  0.00     0.154 A 
HETATM    7  C6  UNK     1      18.649   1.381  33.021  1.00  0.00     0.221 A 
HETATM    8  C7  UNK     1      19.284  -0.265  31.258  1.00  0.00     0.055 A 
HETATM    9  C9  UNK     1      19.209   1.760  29.330  1.00  0.00     0.041 A 
HETATM   10  C11 UNK     1      19.572  -0.556  29.925  1.00  0.00     0.069 A 
HETATM   11  C13 UNK     1      19.534   0.454  28.962  1.00  0.00     0.039 A 
ENDROOT
BRANCH   3  12
HETATM   12  C4  UNK     1      18.008   5.107  32.465  1.00  0.00     0.004 A 
HETATM   13  C10 UNK     1      18.857   5.921  33.215  1.00  0.00     0.017 A 
HETATM   14  C15 UNK     1      18.555   7.272  33.389  1.00  0.00     0.040 A 
HETATM   15  C14 UNK     1      17.405   7.809  32.813  1.00  0.00     0.101 A 
HETATM   16  C12 UNK     1      16.555   6.995  32.062  1.00  0.00     0.102 A 
HETATM   17  C8  UNK     1      16.857   5.644  31.888  1.00  0.00     0.054 A 
BRANCH  15  18
HETATM   18  O6  UNK     1      17.121   9.129  32.990  1.00  0.00    -0.353 OA
HETATM   19  C19 UNK     1      16.564   9.510  34.247  1.00  0.00     0.210 C 
ENDBRANCH  15  18
BRANCH  16  20
HETATM   20  O4  UNK     1      15.429   7.509  31.494  1.00  0.00    -0.353 OA
HETATM   21  C17 UNK     1      14.182   7.147  32.084  1.00  0.00     0.210 C 
ENDBRANCH  16  20
ENDBRANCH   3  12
BRANCH   6  22
HETATM   22  O2  UNK     1      18.004   3.149  34.595  1.00  0.00    -0.350 OA
HETATM   23  C16 UNK     1      19.071   2.847  35.473  1.00  0.00     0.210 C 
ENDBRANCH   6  22
BRANCH  10  24
HETATM   24  O3  UNK     1      19.888  -1.828  29.560  1.00  0.00    -0.356 OA
HETATM   25  C18 UNK     1      20.573  -2.629  30.522  1.00  0.00     0.210 C 
ENDBRANCH  10  24
TORSDOF 5
ENDMDL
MODEL 9
REMARK VINA RESULT:      -7.0     14.151     17.749
REMARK  5 active torsions:
REMARK  status: ('A' for Active; 'I' for Inactive)
REMARK    1  A    between atoms: C5_11  and  O2_2 
REMARK    2  A    between atoms: C11_17  and  O3_3 
REMARK    3  A    between atoms: C12_18  and  O4_4 
REMARK    4  A    between atoms: C14_20  and  O6_6 
REMARK    5  A    between atoms: C1_7  and  C4_10 
ROOT
HETATM    1  O1  UNK     1      24.068  -8.509  37.423  1.00  0.00    -0.306 OA
HETATM    2  O5  UNK     1      22.519 -11.579  35.236  1.00  0.00    -0.284 OA
HETATM    3  C1  UNK     1      24.870  -9.533  36.945  1.00  0.00     0.123 A 
HETATM    4  C2  UNK     1      22.138  -9.558  36.390  1.00  0.00     0.053 A 
HETATM    5  C3  UNK     1      22.728  -8.538  37.135  1.00  0.00     0.090 A 
HETATM    6  C5  UNK     1      24.425 -10.578  36.224  1.00  0.00     0.154 A 
HETATM    7  C6  UNK     1      22.982 -10.653  35.891  1.00  0.00     0.221 A 
HETATM    8  C7  UNK     1      20.765  -9.536  36.128  1.00  0.00     0.055 A 
HETATM    9  C9  UNK     1      21.948  -7.490  37.623  1.00  0.00     0.041 A 
HETATM   10  C11 UNK     1      19.988  -8.486  36.617  1.00  0.00     0.069 A 
HETATM   11  C13 UNK     1      20.578  -7.464  37.363  1.00  0.00     0.039 A 
ENDROOT
BRANCH   3  12
HETATM   12  C4  UNK     1      26.286  -9.379  37.327  1.00  0.00     0.004 A 
HETATM   13  C10 UNK     1      26.746  -9.911  38.531  1.00  0.00     0.017 A 
HETATM   14  C15 UNK     1      28.085  -9.767  38.892  1.00  0.00     0.040 A 
HETATM   15  C14 UNK     1      28.965  -9.090  38.049  1.00  0.00     0.101 A 
HETATM   16  C12 UNK     1      28.507  -8.557  36.844  1.00  0.00     0.102 A 
HETATM   17  C8  UNK     1      27.167  -8.702  36.482  1.00  0.00     0.054 A 
BRANCH  15  18
HETATM   18  O6  UNK     1      30.271  -8.955  38.413  1.00  0.00    -0.353 OA
HETATM   19  C19 UNK     1      31.138 -10.053  38.134  1.00  0.00     0.210 C 
ENDBRANCH  15  18
BRANCH  16  20
HETATM   20  O4  UNK     1      29.357  -7.894  36.012  1.00  0.00    -0.353 OA
HETATM   21  C17 UNK     1      29.300  -6.470  36.026  1.00  0.00     0.210 C 
ENDBRANCH  16  20
ENDBRANCH   3  12
BRANCH   6  22
HETATM   22  O2  UNK     1      25.244 -11.598  35.790  1.00  0.00    -0.350 OA
HETATM   23  C16 UNK     1      25.006 -12.783  36.526  1.00  0.00     0.210 C 
ENDBRANCH   6  22
BRANCH  10  24
HETATM   24  O3  UNK     1      18.650  -8.457  36.367  1.00  0.00    -0.356 OA
HETATM   25  C18 UNK     1      18.166  -7.395  35.545  1.00  0.00     0.210 C 
ENDBRANCH  10  24
TORSDOF 5
ENDMDL
MODEL 10
REMARK VINA RESULT:      -7.0     15.929     17.636
REMARK  5 active torsions:
REMARK  status: ('A' for Active; 'I' for Inactive)
REMARK    1  A    between atoms: C5_11  and  O2_2 
REMARK    2  A    between atoms: C11_17  and  O3_3 
REMARK    3  A    between atoms: C12_18  and  O4_4 
REMARK    4  A    between atoms: C14_20  and  O6_6 
REMARK    5  A    between atoms: C1_7  and  C4_10 
ROOT
HETATM    1  O1  UNK     1      25.940  -6.548  38.580  1.00  0.00    -0.306 OA
HETATM    2  O5  UNK     1      28.900  -9.340  38.370  1.00  0.00    -0.284 OA
HETATM    3  C1  UNK     1      25.652  -7.899  38.465  1.00  0.00     0.123 A 
HETATM    4  C2  UNK     1      28.311  -7.065  38.570  1.00  0.00     0.053 A 
HETATM    5  C3  UNK     1      27.253  -6.160  38.634  1.00  0.00     0.090 A 
HETATM    6  C5  UNK     1      26.579  -8.871  38.385  1.00  0.00     0.154 A 
HETATM    7  C6  UNK     1      28.013  -8.499  38.436  1.00  0.00     0.221 A 
HETATM    8  C7  UNK     1      29.631  -6.612  38.629  1.00  0.00     0.055 A 
HETATM    9  C9  UNK     1      27.509  -4.794  38.757  1.00  0.00     0.041 A 
HETATM   10  C11 UNK     1      29.885  -5.246  38.753  1.00  0.00     0.069 A 
HETATM   11  C13 UNK     1      28.826  -4.338  38.817  1.00  0.00     0.039 A 
ENDROOT
BRANCH   3  12
HETATM   12  C4  UNK     1      24.205  -8.177  38.417  1.00  0.00     0.004 A 
HETATM   13  C10 UNK     1      23.431  -8.045  39.570  1.00  0.00     0.017 A 
HETATM   14  C15 UNK     1      22.062  -8.307  39.525  1.00  0.00     0.040 A 
HETATM   15  C14 UNK     1      21.466  -8.702  38.328  1.00  0.00     0.101 A 
HETATM   16  C12 UNK     1      22.240  -8.833  37.174  1.00  0.00     0.102 A 
HETATM   17  C8  UNK     1      23.610  -8.571  37.219  1.00  0.00     0.054 A 
BRANCH  15  18
HETATM   18  O6  UNK     1      20.129  -8.955  38.296  1.00  0.00    -0.353 OA
HETATM   19  C19 UNK     1      19.701 -10.238  38.751  1.00  0.00     0.210 C 
ENDBRANCH  15  18
BRANCH  16  20
HETATM   20  O4  UNK     1      21.670  -9.217  35.998  1.00  0.00    -0.353 OA
HETATM   21  C17 UNK     1      22.050 -10.488  35.477  1.00  0.00     0.210 C 
ENDBRANCH  16  20
ENDBRANCH   3  12
BRANCH   6  22
HETATM   22  O2  UNK     1      26.261 -10.205  38.239  1.00  0.00    -0.350 OA
HETATM   23  C16 UNK     1      26.320 -10.592  36.880  1.00  0.00     0.210 C 
ENDBRANCH   6  22
BRANCH  10  24
HETATM   24  O3  UNK     1      31.168  -4.795  38.811  1.00  0.00    -0.356 OA
HETATM   25  C18 UNK     1      32.187  -5.670  38.327  1.00  0.00     0.210 C 
ENDBRANCH  10  24
TORSDOF 5
ENDMDL
