MODEL 1
REMARK VINA RESULT:      -9.2      0.000      0.000
REMARK  5 active torsions:
REMARK  status: ('A' for Active; 'I' for Inactive)
REMARK    1  A    between atoms: C12_16  and  O3_3 
REMARK    2  A    between atoms: C10_14  and  N1_4 
REMARK    3  A    between atoms: C14_18  and  N1_4 
REMARK    4  A    between atoms: C10_14  and  C8_12 
REMARK    5  A    between atoms: C14_18  and  C16_20 
ROOT
HETATM    1  O1  UNK     1      16.616   6.393  31.443  1.00  0.00    -0.274 OA
HETATM    2  O2  UNK     1      14.375   6.890  31.413  1.00  0.00    -0.259 OA
HETATM    3  C1  UNK     1      16.928   8.244  33.509  1.00  0.00    -0.033 A 
HETATM    4  C2  UNK     1      16.887   9.262  34.596  1.00  0.00     0.040 C 
HETATM    5  C3  UNK     1      15.383   9.394  34.863  1.00  0.00     0.009 C 
HETATM    6  C4  UNK     1      14.668   8.869  33.613  1.00  0.00     0.046 C 
HETATM    7  C5  UNK     1      15.722   8.030  32.979  1.00  0.00     0.025 A 
HETATM    8  C6  UNK     1      18.094   7.535  33.024  1.00  0.00     0.006 A 
HETATM    9  C7  UNK     1      17.904   6.615  31.990  1.00  0.00     0.101 A 
HETATM   10  C8  UNK     1      18.961   5.881  31.454  1.00  0.00     0.038 A 
HETATM   11  C9  UNK     1      15.486   7.076  31.894  1.00  0.00     0.295 A 
HETATM   12  C11 UNK     1      19.385   7.722  33.525  1.00  0.00     0.017 A 
HETATM   13  C12 UNK     1      20.242   6.075  31.962  1.00  0.00     0.076 A 
HETATM   14  C13 UNK     1      20.454   6.993  32.995  1.00  0.00     0.038 A 
ENDROOT
BRANCH  10  15
HETATM   15  C10 UNK     1      18.728   4.904  30.349  1.00  0.00     0.316 C 
BRANCH  15  16
HETATM   16  N1  UNK     1      18.790   3.517  30.812  1.00  0.00     0.092 N 
HETATM   17  C15 UNK     1      18.096   3.375  32.091  1.00  0.00     0.310 C 
BRANCH  16  18
HETATM   18  C14 UNK     1      18.211   2.619  29.814  1.00  0.00     0.310 C 
BRANCH  18  19
HETATM   19  C16 UNK     1      18.997   1.343  29.683  1.00  0.00    -0.030 A 
HETATM   20  C17 UNK     1      19.803   0.926  30.734  1.00  0.00     0.009 A 
HETATM   21  C19 UNK     1      20.533  -0.257  30.613  1.00  0.00     0.001 A 
HETATM   22  C21 UNK     1      20.449  -1.010  29.442  1.00  0.00     0.000 A 
HETATM   23  C20 UNK     1      19.637  -0.583  28.393  1.00  0.00     0.001 A 
HETATM   24  C18 UNK     1      18.907   0.601  28.514  1.00  0.00     0.009 A 
ENDBRANCH  18  19
ENDBRANCH  16  18
ENDBRANCH  15  16
ENDBRANCH  10  15
BRANCH  13  25
HETATM   25  O3  UNK     1      21.303   5.378  31.466  1.00  0.00    -0.360 OA
HETATM   26  H16 UNK     1      21.443   5.584  30.529  1.00  0.00     0.217 HD
ENDBRANCH  13  25
TORSDOF 5
ENDMDL
MODEL 2
REMARK VINA RESULT:      -8.7     21.424     23.088
REMARK  5 active torsions:
REMARK  status: ('A' for Active; 'I' for Inactive)
REMARK    1  A    between atoms: C12_16  and  O3_3 
REMARK    2  A    between atoms: C10_14  and  N1_4 
REMARK    3  A    between atoms: C14_18  and  N1_4 
REMARK    4  A    between atoms: C10_14  and  C8_12 
REMARK    5  A    between atoms: C14_18  and  C16_20 
ROOT
HETATM    1  O1  UNK     1      13.064   8.080  10.751  1.00  0.00    -0.274 OA
HETATM    2  O2  UNK     1      11.373   9.502  11.374  1.00  0.00    -0.259 OA
HETATM    3  C1  UNK     1      14.876  10.160  11.176  1.00  0.00    -0.033 A 
HETATM    4  C2  UNK     1      15.677  11.385  11.459  1.00  0.00     0.040 C 
HETATM    5  C3  UNK     1      14.667  12.270  12.199  1.00  0.00     0.009 C 
HETATM    6  C4  UNK     1      13.275  11.741  11.838  1.00  0.00     0.046 C 
HETATM    7  C5  UNK     1      13.573  10.356  11.385  1.00  0.00     0.025 A 
HETATM    8  C6  UNK     1      15.377   8.880  10.718  1.00  0.00     0.006 A 
HETATM    9  C7  UNK     1      14.444   7.859  10.516  1.00  0.00     0.101 A 
HETATM   10  C8  UNK     1      14.823   6.592  10.078  1.00  0.00     0.038 A 
HETATM   11  C9  UNK     1      12.568   9.311  11.182  1.00  0.00     0.295 A 
HETATM   12  C11 UNK     1      16.725   8.614  10.467  1.00  0.00     0.017 A 
HETATM   13  C12 UNK     1      16.169   6.338   9.833  1.00  0.00     0.076 A 
HETATM   14  C13 UNK     1      17.118   7.346  10.026  1.00  0.00     0.038 A 
ENDROOT
BRANCH  10  15
HETATM   15  C10 UNK     1      13.804   5.520   9.871  1.00  0.00     0.316 C 
BRANCH  15  16
HETATM   16  N1  UNK     1      13.525   5.285   8.454  1.00  0.00     0.092 N 
HETATM   17  C15 UNK     1      12.492   4.262   8.299  1.00  0.00     0.310 C 
BRANCH  16  18
HETATM   18  C14 UNK     1      13.115   6.528   7.802  1.00  0.00     0.310 C 
BRANCH  18  19
HETATM   19  C16 UNK     1      11.659   6.508   7.421  1.00  0.00    -0.030 A 
HETATM   20  C17 UNK     1      11.295   6.160   6.127  1.00  0.00     0.009 A 
HETATM   21  C19 UNK     1       9.945   6.142   5.774  1.00  0.00     0.001 A 
HETATM   22  C21 UNK     1       8.974   6.471   6.719  1.00  0.00     0.000 A 
HETATM   23  C20 UNK     1       9.350   6.819   8.015  1.00  0.00     0.001 A 
HETATM   24  C18 UNK     1      10.699   6.837   8.368  1.00  0.00     0.009 A 
ENDBRANCH  18  19
ENDBRANCH  16  18
ENDBRANCH  15  16
ENDBRANCH  10  15
BRANCH  13  25
HETATM   25  O3  UNK     1      16.582   5.112   9.404  1.00  0.00    -0.360 OA
HETATM   26  H16 UNK     1      17.022   4.627  10.119  1.00  0.00     0.217 HD
ENDBRANCH  13  25
TORSDOF 5
ENDMDL
MODEL 3
REMARK VINA RESULT:      -8.6     15.565     18.031
REMARK  5 active torsions:
REMARK  status: ('A' for Active; 'I' for Inactive)
REMARK    1  A    between atoms: C12_16  and  O3_3 
REMARK    2  A    between atoms: C10_14  and  N1_4 
REMARK    3  A    between atoms: C14_18  and  N1_4 
REMARK    4  A    between atoms: C10_14  and  C8_12 
REMARK    5  A    between atoms: C14_18  and  C16_20 
ROOT
HETATM    1  O1  UNK     1      31.202  -7.797  37.403  1.00  0.00    -0.274 OA
HETATM    2  O2  UNK     1      31.161 -10.085  37.589  1.00  0.00    -0.259 OA
HETATM    3  C1  UNK     1      28.790  -7.709  38.804  1.00  0.00    -0.033 A 
HETATM    4  C2  UNK     1      27.516  -7.871  39.561  1.00  0.00     0.040 C 
HETATM    5  C3  UNK     1      27.591  -9.334  40.014  1.00  0.00     0.009 C 
HETATM    6  C4  UNK     1      28.591 -10.030  39.085  1.00  0.00     0.046 C 
HETATM    7  C5  UNK     1      29.372  -8.882  38.549  1.00  0.00     0.025 A 
HETATM    8  C6  UNK     1      29.384  -6.466  38.356  1.00  0.00     0.006 A 
HETATM    9  C7  UNK     1      30.592  -6.544  37.658  1.00  0.00     0.101 A 
HETATM   10  C8  UNK     1      31.244  -5.407  37.186  1.00  0.00     0.038 A 
HETATM   11  C9  UNK     1      30.636  -9.002  37.820  1.00  0.00     0.295 A 
HETATM   12  C11 UNK     1      28.819  -5.208  38.577  1.00  0.00     0.017 A 
HETATM   13  C12 UNK     1      30.673  -4.159  37.414  1.00  0.00     0.076 A 
HETATM   14  C13 UNK     1      29.463  -4.058  38.108  1.00  0.00     0.038 A 
ENDROOT
BRANCH  10  15
HETATM   15  C10 UNK     1      32.535  -5.521  36.444  1.00  0.00     0.316 C 
BRANCH  15  16
HETATM   16  N1  UNK     1      32.394  -5.177  35.028  1.00  0.00     0.092 N 
HETATM   17  C15 UNK     1      33.654  -4.654  34.502  1.00  0.00     0.310 C 
BRANCH  16  18
HETATM   18  C14 UNK     1      31.965  -6.345  34.260  1.00  0.00     0.310 C 
BRANCH  18  19
HETATM   19  C16 UNK     1      30.594  -6.154  33.669  1.00  0.00    -0.030 A 
HETATM   20  C17 UNK     1      29.495  -6.733  34.288  1.00  0.00     0.009 A 
HETATM   21  C19 UNK     1      28.225  -6.557  33.739  1.00  0.00     0.001 A 
HETATM   22  C21 UNK     1      28.067  -5.803  32.577  1.00  0.00     0.000 A 
HETATM   23  C20 UNK     1      29.177  -5.226  31.963  1.00  0.00     0.001 A 
HETATM   24  C18 UNK     1      30.448  -5.402  32.511  1.00  0.00     0.009 A 
ENDBRANCH  18  19
ENDBRANCH  16  18
ENDBRANCH  15  16
ENDBRANCH  10  15
BRANCH  13  25
HETATM   25  O3  UNK     1      31.279  -3.021  36.969  1.00  0.00    -0.360 OA
HETATM   26  H16 UNK     1      31.047  -2.265  37.531  1.00  0.00     0.217 HD
ENDBRANCH  13  25
TORSDOF 5
ENDMDL
MODEL 4
REMARK VINA RESULT:      -8.5      4.292      7.570
REMARK  5 active torsions:
REMARK  status: ('A' for Active; 'I' for Inactive)
REMARK    1  A    between atoms: C12_16  and  O3_3 
REMARK    2  A    between atoms: C10_14  and  N1_4 
REMARK    3  A    between atoms: C14_18  and  N1_4 
REMARK    4  A    between atoms: C10_14  and  C8_12 
REMARK    5  A    between atoms: C14_18  and  C16_20 
ROOT
HETATM    1  O1  UNK     1      17.643  -0.161  33.373  1.00  0.00    -0.274 OA
HETATM    2  O2  UNK     1      16.059   0.962  34.597  1.00  0.00    -0.259 OA
HETATM    3  C1  UNK     1      18.617  -1.244  35.754  1.00  0.00    -0.033 A 
HETATM    4  C2  UNK     1      18.984  -1.712  37.120  1.00  0.00     0.040 C 
HETATM    5  C3  UNK     1      17.771  -1.277  37.951  1.00  0.00     0.009 C 
HETATM    6  C4  UNK     1      17.069  -0.172  37.154  1.00  0.00     0.046 C 
HETATM    7  C5  UNK     1      17.575  -0.409  35.775  1.00  0.00     0.025 A 
HETATM    8  C6  UNK     1      19.267  -1.596  34.508  1.00  0.00     0.006 A 
HETATM    9  C7  UNK     1      18.755  -1.038  33.334  1.00  0.00     0.101 A 
HETATM   10  C8  UNK     1      19.308  -1.315  32.086  1.00  0.00     0.038 A 
HETATM   11  C9  UNK     1      17.014   0.195  34.566  1.00  0.00     0.295 A 
HETATM   12  C11 UNK     1      20.369  -2.450  34.419  1.00  0.00     0.017 A 
HETATM   13  C12 UNK     1      20.404  -2.169  32.008  1.00  0.00     0.076 A 
HETATM   14  C13 UNK     1      20.934  -2.736  33.171  1.00  0.00     0.038 A 
ENDROOT
BRANCH  10  15
HETATM   15  C10 UNK     1      18.739  -0.705  30.847  1.00  0.00     0.316 C 
BRANCH  15  16
HETATM   16  N1  UNK     1      19.339   0.595  30.542  1.00  0.00     0.092 N 
HETATM   17  C15 UNK     1      20.346   0.459  29.492  1.00  0.00     0.310 C 
BRANCH  16  18
HETATM   18  C14 UNK     1      18.308   1.551  30.141  1.00  0.00     0.310 C 
BRANCH  18  19
HETATM   19  C16 UNK     1      18.474   2.878  30.832  1.00  0.00    -0.030 A 
HETATM   20  C17 UNK     1      18.105   3.006  32.164  1.00  0.00     0.009 A 
HETATM   21  C19 UNK     1      18.259   4.237  32.804  1.00  0.00     0.001 A 
HETATM   22  C21 UNK     1      18.779   5.325  32.105  1.00  0.00     0.000 A 
HETATM   23  C20 UNK     1      19.147   5.185  30.767  1.00  0.00     0.001 A 
HETATM   24  C18 UNK     1      18.993   3.955  30.127  1.00  0.00     0.009 A 
ENDBRANCH  18  19
ENDBRANCH  16  18
ENDBRANCH  15  16
ENDBRANCH  10  15
BRANCH  13  25
HETATM   25  O3  UNK     1      20.975  -2.466  30.806  1.00  0.00    -0.360 OA
HETATM   26  H16 UNK     1      20.625  -3.300  30.456  1.00  0.00     0.217 HD
ENDBRANCH  13  25
TORSDOF 5
ENDMDL
MODEL 5
REMARK VINA RESULT:      -8.3     16.441     18.619
REMARK  5 active torsions:
REMARK  status: ('A' for Active; 'I' for Inactive)
REMARK    1  A    between atoms: C12_16  and  O3_3 
REMARK    2  A    between atoms: C10_14  and  N1_4 
REMARK    3  A    between atoms: C14_18  and  N1_4 
REMARK    4  A    between atoms: C10_14  and  C8_12 
REMARK    5  A    between atoms: C14_18  and  C16_20 
ROOT
HETATM    1  O1  UNK     1      29.110  -5.743  38.541  1.00  0.00    -0.274 OA
HETATM    2  O2  UNK     1      26.954  -5.005  38.813  1.00  0.00    -0.259 OA
HETATM    3  C1  UNK     1      28.133  -8.356  38.458  1.00  0.00    -0.033 A 
HETATM    4  C2  UNK     1      27.422  -9.665  38.438  1.00  0.00     0.040 C 
HETATM    5  C3  UNK     1      25.958  -9.237  38.276  1.00  0.00     0.009 C 
HETATM    6  C4  UNK     1      25.876  -7.776  38.730  1.00  0.00     0.046 C 
HETATM    7  C5  UNK     1      27.292  -7.332  38.614  1.00  0.00     0.025 A 
HETATM    8  C6  UNK     1      29.561  -8.139  38.339  1.00  0.00     0.006 A 
HETATM    9  C7  UNK     1      30.018  -6.820  38.383  1.00  0.00     0.101 A 
HETATM   10  C8  UNK     1      31.371  -6.505  38.276  1.00  0.00     0.038 A 
HETATM   11  C9  UNK     1      27.735  -5.937  38.667  1.00  0.00     0.295 A 
HETATM   12  C11 UNK     1      30.495  -9.167  38.189  1.00  0.00     0.017 A 
HETATM   13  C12 UNK     1      32.293  -7.537  38.124  1.00  0.00     0.076 A 
HETATM   14  C13 UNK     1      31.857  -8.864  38.081  1.00  0.00     0.038 A 
ENDROOT
BRANCH  10  15
HETATM   15  C10 UNK     1      31.831  -5.085  38.326  1.00  0.00     0.316 C 
BRANCH  15  16
HETATM   16  N1  UNK     1      31.670  -4.404  37.041  1.00  0.00     0.092 N 
HETATM   17  C15 UNK     1      30.836  -3.213  37.195  1.00  0.00     0.310 C 
BRANCH  16  18
HETATM   18  C14 UNK     1      32.975  -4.046  36.486  1.00  0.00     0.310 C 
BRANCH  18  19
HETATM   19  C16 UNK     1      33.397  -4.988  35.391  1.00  0.00    -0.030 A 
HETATM   20  C17 UNK     1      34.739  -5.084  35.051  1.00  0.00     0.009 A 
HETATM   21  C19 UNK     1      35.130  -5.957  34.035  1.00  0.00     0.001 A 
HETATM   22  C21 UNK     1      34.174  -6.725  33.371  1.00  0.00     0.000 A 
HETATM   23  C20 UNK     1      32.829  -6.622  33.721  1.00  0.00     0.001 A 
HETATM   24  C18 UNK     1      32.438  -5.748  34.736  1.00  0.00     0.009 A 
ENDBRANCH  18  19
ENDBRANCH  16  18
ENDBRANCH  15  16
ENDBRANCH  10  15
BRANCH  13  25
HETATM   25  O3  UNK     1      33.626  -7.272  38.016  1.00  0.00    -0.360 OA
HETATM   26  H16 UNK     1      33.950  -6.811  38.805  1.00  0.00     0.217 HD
ENDBRANCH  13  25
TORSDOF 5
ENDMDL
MODEL 6
REMARK VINA RESULT:      -8.2     16.658     18.975
REMARK  5 active torsions:
REMARK  status: ('A' for Active; 'I' for Inactive)
REMARK    1  A    between atoms: C12_16  and  O3_3 
REMARK    2  A    between atoms: C10_14  and  N1_4 
REMARK    3  A    between atoms: C14_18  and  N1_4 
REMARK    4  A    between atoms: C10_14  and  C8_12 
REMARK    5  A    between atoms: C14_18  and  C16_20 
ROOT
HETATM    1  O1  UNK     1      30.903  -5.484  34.904  1.00  0.00    -0.274 OA
HETATM    2  O2  UNK     1      29.846  -5.692  32.877  1.00  0.00    -0.259 OA
HETATM    3  C1  UNK     1      32.924  -7.153  33.944  1.00  0.00    -0.033 A 
HETATM    4  C2  UNK     1      33.892  -8.050  33.253  1.00  0.00     0.040 C 
HETATM    5  C3  UNK     1      33.432  -7.962  31.793  1.00  0.00     0.009 C 
HETATM    6  C4  UNK     1      31.980  -7.473  31.820  1.00  0.00     0.046 C 
HETATM    7  C5  UNK     1      31.888  -6.840  33.163  1.00  0.00     0.025 A 
HETATM    8  C6  UNK     1      33.019  -6.648  35.299  1.00  0.00     0.006 A 
HETATM    9  C7  UNK     1      31.992  -5.815  35.749  1.00  0.00     0.101 A 
HETATM   10  C8  UNK     1      31.990  -5.276  37.034  1.00  0.00     0.038 A 
HETATM   11  C9  UNK     1      30.794  -5.971  33.601  1.00  0.00     0.295 A 
HETATM   12  C11 UNK     1      34.067  -6.950  36.171  1.00  0.00     0.017 A 
HETATM   13  C12 UNK     1      33.041  -5.582  37.894  1.00  0.00     0.076 A 
HETATM   14  C13 UNK     1      34.077  -6.416  37.464  1.00  0.00     0.038 A 
ENDROOT
BRANCH  10  15
HETATM   15  C10 UNK     1      30.879  -4.387  37.488  1.00  0.00     0.316 C 
BRANCH  15  16
HETATM   16  N1  UNK     1      30.027  -5.030  38.489  1.00  0.00     0.092 N 
HETATM   17  C15 UNK     1      29.527  -4.042  39.444  1.00  0.00     0.310 C 
BRANCH  16  18
HETATM   18  C14 UNK     1      28.915  -5.724  37.842  1.00  0.00     0.310 C 
BRANCH  18  19
HETATM   19  C16 UNK     1      28.773  -7.138  38.337  1.00  0.00    -0.030 A 
HETATM   20  C17 UNK     1      27.748  -7.456  39.217  1.00  0.00     0.009 A 
HETATM   21  C19 UNK     1      27.617  -8.767  39.676  1.00  0.00     0.001 A 
HETATM   22  C21 UNK     1      28.512  -9.747  39.249  1.00  0.00     0.000 A 
HETATM   23  C20 UNK     1      29.538  -9.418  38.364  1.00  0.00     0.001 A 
HETATM   24  C18 UNK     1      29.670  -8.106  37.906  1.00  0.00     0.009 A 
ENDBRANCH  18  19
ENDBRANCH  16  18
ENDBRANCH  15  16
ENDBRANCH  10  15
BRANCH  13  25
HETATM   25  O3  UNK     1      33.078  -5.076  39.159  1.00  0.00    -0.360 OA
HETATM   26  H16 UNK     1      32.944  -5.778  39.815  1.00  0.00     0.217 HD
ENDBRANCH  13  25
TORSDOF 5
ENDMDL
MODEL 7
REMARK VINA RESULT:      -8.2      2.253      7.938
REMARK  5 active torsions:
REMARK  status: ('A' for Active; 'I' for Inactive)
REMARK    1  A    between atoms: C12_16  and  O3_3 
REMARK    2  A    between atoms: C10_14  and  N1_4 
REMARK    3  A    between atoms: C14_18  and  N1_4 
REMARK    4  A    between atoms: C10_14  and  C8_12 
REMARK    5  A    between atoms: C14_18  and  C16_20 
ROOT
HETATM    1  O1  UNK     1      18.989   1.651  30.046  1.00  0.00    -0.274 OA
HETATM    2  O2  UNK     1      19.638   0.487  28.176  1.00  0.00    -0.259 OA
HETATM    3  C1  UNK     1      19.530  -0.626  31.567  1.00  0.00    -0.033 A 
HETATM    4  C2  UNK     1      19.876  -1.931  32.197  1.00  0.00     0.040 C 
HETATM    5  C3  UNK     1      20.632  -2.646  31.072  1.00  0.00     0.009 C 
HETATM    6  C4  UNK     1      20.225  -1.958  29.764  1.00  0.00     0.046 C 
HETATM    7  C5  UNK     1      19.723  -0.642  30.246  1.00  0.00     0.025 A 
HETATM    8  C6  UNK     1      19.031   0.559  32.235  1.00  0.00     0.006 A 
HETATM    9  C7  UNK     1      18.771   1.682  31.445  1.00  0.00     0.101 A 
HETATM   10  C8  UNK     1      18.290   2.870  31.991  1.00  0.00     0.038 A 
HETATM   11  C9  UNK     1      19.460   0.514  29.388  1.00  0.00     0.295 A 
HETATM   12  C11 UNK     1      18.794   0.637  33.609  1.00  0.00     0.017 A 
HETATM   13  C12 UNK     1      18.060   2.937  33.363  1.00  0.00     0.076 A 
HETATM   14  C13 UNK     1      18.310   1.824  34.170  1.00  0.00     0.038 A 
ENDROOT
BRANCH  10  15
HETATM   15  C10 UNK     1      18.022   4.056  31.123  1.00  0.00     0.316 C 
BRANCH  15  16
HETATM   16  N1  UNK     1      18.922   5.172  31.415  1.00  0.00     0.092 N 
HETATM   17  C15 UNK     1      20.075   5.147  30.516  1.00  0.00     0.310 C 
BRANCH  16  18
HETATM   18  C14 UNK     1      18.211   6.445  31.298  1.00  0.00     0.310 C 
BRANCH  18  19
HETATM   19  C16 UNK     1      17.780   6.972  32.640  1.00  0.00    -0.030 A 
HETATM   20  C17 UNK     1      18.741   7.362  33.562  1.00  0.00     0.009 A 
HETATM   21  C19 UNK     1      18.341   7.850  34.807  1.00  0.00     0.001 A 
HETATM   22  C21 UNK     1      16.985   7.943  35.115  1.00  0.00     0.000 A 
HETATM   23  C20 UNK     1      16.028   7.548  34.182  1.00  0.00     0.001 A 
HETATM   24  C18 UNK     1      16.427   7.059  32.938  1.00  0.00     0.009 A 
ENDBRANCH  18  19
ENDBRANCH  16  18
ENDBRANCH  15  16
ENDBRANCH  10  15
BRANCH  13  25
HETATM   25  O3  UNK     1      17.590   4.081  33.937  1.00  0.00    -0.360 OA
HETATM   26  H16 UNK     1      16.628   4.149  33.832  1.00  0.00     0.217 HD
ENDBRANCH  13  25
TORSDOF 5
ENDMDL
MODEL 8
REMARK VINA RESULT:      -8.2     15.694     18.422
REMARK  5 active torsions:
REMARK  status: ('A' for Active; 'I' for Inactive)
REMARK    1  A    between atoms: C12_16  and  O3_3 
REMARK    2  A    between atoms: C10_14  and  N1_4 
REMARK    3  A    between atoms: C14_18  and  N1_4 
REMARK    4  A    between atoms: C10_14  and  C8_12 
REMARK    5  A    between atoms: C14_18  and  C16_20 
ROOT
HETATM    1  O1  UNK     1      30.461  -6.246  37.970  1.00  0.00    -0.274 OA
HETATM    2  O2  UNK     1      28.904  -5.144  39.247  1.00  0.00    -0.259 OA
HETATM    3  C1  UNK     1      29.106  -8.629  38.500  1.00  0.00    -0.033 A 
HETATM    4  C2  UNK     1      28.250  -9.782  38.895  1.00  0.00     0.040 C 
HETATM    5  C3  UNK     1      27.008  -9.086  39.465  1.00  0.00     0.009 C 
HETATM    6  C4  UNK     1      27.435  -7.662  39.834  1.00  0.00     0.046 C 
HETATM    7  C5  UNK     1      28.660  -7.478  39.009  1.00  0.00     0.025 A 
HETATM    8  C6  UNK     1      30.298  -8.670  37.677  1.00  0.00     0.006 A 
HETATM    9  C7  UNK     1      30.952  -7.461  37.429  1.00  0.00     0.101 A 
HETATM   10  C8  UNK     1      32.104  -7.393  36.649  1.00  0.00     0.038 A 
HETATM   11  C9  UNK     1      29.321  -6.193  38.773  1.00  0.00     0.295 A 
HETATM   12  C11 UNK     1      30.824  -9.841  37.127  1.00  0.00     0.017 A 
HETATM   13  C12 UNK     1      32.618  -8.566  36.104  1.00  0.00     0.076 A 
HETATM   14  C13 UNK     1      31.981  -9.787  36.342  1.00  0.00     0.038 A 
ENDROOT
BRANCH  10  15
HETATM   15  C10 UNK     1      32.782  -6.086  36.400  1.00  0.00     0.316 C 
BRANCH  15  16
HETATM   16  N1  UNK     1      31.973  -5.189  35.574  1.00  0.00     0.092 N 
HETATM   17  C15 UNK     1      32.478  -3.820  35.662  1.00  0.00     0.310 C 
BRANCH  16  18
HETATM   18  C14 UNK     1      31.966  -5.642  34.184  1.00  0.00     0.310 C 
BRANCH  18  19
HETATM   19  C16 UNK     1      30.568  -5.760  33.640  1.00  0.00    -0.030 A 
HETATM   20  C17 UNK     1      29.579  -6.349  34.415  1.00  0.00     0.009 A 
HETATM   21  C19 UNK     1      28.283  -6.459  33.910  1.00  0.00     0.001 A 
HETATM   22  C21 UNK     1      27.990  -5.978  32.635  1.00  0.00     0.000 A 
HETATM   23  C20 UNK     1      28.990  -5.388  31.864  1.00  0.00     0.001 A 
HETATM   24  C18 UNK     1      30.287  -5.278  32.368  1.00  0.00     0.009 A 
ENDBRANCH  18  19
ENDBRANCH  16  18
ENDBRANCH  15  16
ENDBRANCH  10  15
BRANCH  13  25
HETATM   25  O3  UNK     1      33.744  -8.544  35.335  1.00  0.00    -0.360 OA
HETATM   26  H16 UNK     1      34.402  -9.174  35.669  1.00  0.00     0.217 HD
ENDBRANCH  13  25
TORSDOF 5
ENDMDL
MODEL 9
REMARK VINA RESULT:      -8.2     15.742     17.529
REMARK  5 active torsions:
REMARK  status: ('A' for Active; 'I' for Inactive)
REMARK    1  A    between atoms: C12_16  and  O3_3 
REMARK    2  A    between atoms: C10_14  and  N1_4 
REMARK    3  A    between atoms: C14_18  and  N1_4 
REMARK    4  A    between atoms: C10_14  and  C8_12 
REMARK    5  A    between atoms: C14_18  and  C16_20 
ROOT
HETATM    1  O1  UNK     1      30.257  -7.593  35.825  1.00  0.00    -0.274 OA
HETATM    2  O2  UNK     1      28.406  -8.074  37.093  1.00  0.00    -0.259 OA
HETATM    3  C1  UNK     1      30.387  -5.104  37.082  1.00  0.00    -0.033 A 
HETATM    4  C2  UNK     1      30.288  -3.838  37.861  1.00  0.00     0.040 C 
HETATM    5  C3  UNK     1      29.288  -4.211  38.962  1.00  0.00     0.009 C 
HETATM    6  C4  UNK     1      28.512  -5.432  38.454  1.00  0.00     0.046 C 
HETATM    7  C5  UNK     1      29.424  -5.968  37.407  1.00  0.00     0.025 A 
HETATM    8  C6  UNK     1      31.373  -5.429  36.071  1.00  0.00     0.006 A 
HETATM    9  C7  UNK     1      31.281  -6.683  35.462  1.00  0.00     0.101 A 
HETATM   10  C8  UNK     1      32.181  -7.092  34.480  1.00  0.00     0.038 A 
HETATM   11  C9  UNK     1      29.296  -7.289  36.789  1.00  0.00     0.295 A 
HETATM   12  C11 UNK     1      32.397  -4.565  35.674  1.00  0.00     0.017 A 
HETATM   13  C12 UNK     1      33.198  -6.224  34.094  1.00  0.00     0.076 A 
HETATM   14  C13 UNK     1      33.306  -4.964  34.689  1.00  0.00     0.038 A 
ENDROOT
BRANCH  10  15
HETATM   15  C10 UNK     1      32.059  -8.439  33.846  1.00  0.00     0.316 C 
BRANCH  15  16
HETATM   16  N1  UNK     1      31.317  -8.395  32.585  1.00  0.00     0.092 N 
HETATM   17  C15 UNK     1      32.098  -9.005  31.511  1.00  0.00     0.310 C 
BRANCH  16  18
HETATM   18  C14 UNK     1      30.028  -9.070  32.728  1.00  0.00     0.310 C 
BRANCH  18  19
HETATM   19  C16 UNK     1      28.915  -8.300  32.069  1.00  0.00    -0.030 A 
HETATM   20  C17 UNK     1      28.531  -7.072  32.589  1.00  0.00     0.009 A 
HETATM   21  C19 UNK     1      27.499  -6.359  31.978  1.00  0.00     0.001 A 
HETATM   22  C21 UNK     1      26.862  -6.882  30.854  1.00  0.00     0.000 A 
HETATM   23  C20 UNK     1      27.255  -8.116  30.339  1.00  0.00     0.001 A 
HETATM   24  C18 UNK     1      28.287  -8.830  30.950  1.00  0.00     0.009 A 
ENDBRANCH  18  19
ENDBRANCH  16  18
ENDBRANCH  15  16
ENDBRANCH  10  15
BRANCH  13  25
HETATM   25  O3  UNK     1      34.099  -6.585  33.137  1.00  0.00    -0.360 OA
HETATM   26  H16 UNK     1      35.005  -6.395  33.427  1.00  0.00     0.217 HD
ENDBRANCH  13  25
TORSDOF 5
ENDMDL
MODEL 10
REMARK VINA RESULT:      -8.1     21.935     23.956
REMARK  5 active torsions:
REMARK  status: ('A' for Active; 'I' for Inactive)
REMARK    1  A    between atoms: C12_16  and  O3_3 
REMARK    2  A    between atoms: C10_14  and  N1_4 
REMARK    3  A    between atoms: C14_18  and  N1_4 
REMARK    4  A    between atoms: C10_14  and  C8_12 
REMARK    5  A    between atoms: C14_18  and  C16_20 
ROOT
HETATM    1  O1  UNK     1      13.061   8.875   9.128  1.00  0.00    -0.274 OA
HETATM    2  O2  UNK     1      14.435  10.597   9.772  1.00  0.00    -0.259 OA
HETATM    3  C1  UNK     1      15.193   7.118   9.522  1.00  0.00    -0.033 A 
HETATM    4  C2  UNK     1      16.442   6.350   9.790  1.00  0.00     0.040 C 
HETATM    5  C3  UNK     1      17.300   7.374  10.542  1.00  0.00     0.009 C 
HETATM    6  C4  UNK     1      16.730   8.755  10.203  1.00  0.00     0.046 C 
HETATM    7  C5  UNK     1      15.352   8.423   9.749  1.00  0.00     0.025 A 
HETATM    8  C6  UNK     1      13.927   6.587   9.060  1.00  0.00     0.006 A 
HETATM    9  C7  UNK     1      12.879   7.493   8.874  1.00  0.00     0.101 A 
HETATM   10  C8  UNK     1      11.622   7.084   8.434  1.00  0.00     0.038 A 
HETATM   11  C9  UNK     1      14.278   9.401   9.563  1.00  0.00     0.295 A 
HETATM   12  C11 UNK     1      13.700   5.236   8.790  1.00  0.00     0.017 A 
HETATM   13  C12 UNK     1      11.407   5.734   8.170  1.00  0.00     0.076 A 
HETATM   14  C13 UNK     1      12.442   4.812   8.348  1.00  0.00     0.038 A 
ENDROOT
BRANCH  10  15
HETATM   15  C10 UNK     1      10.520   8.074   8.244  1.00  0.00     0.316 C 
BRANCH  15  16
HETATM   16  N1  UNK     1       9.668   8.191   9.429  1.00  0.00     0.092 N 
HETATM   17  C15 UNK     1       9.809   9.517  10.029  1.00  0.00     0.310 C 
BRANCH  16  18
HETATM   18  C14 UNK     1       8.272   7.933   9.081  1.00  0.00     0.310 C 
BRANCH  18  19
HETATM   19  C16 UNK     1       7.572   7.119  10.136  1.00  0.00    -0.030 A 
HETATM   20  C17 UNK     1       6.770   7.758  11.071  1.00  0.00     0.009 A 
HETATM   21  C19 UNK     1       6.121   7.003  12.050  1.00  0.00     0.001 A 
HETATM   22  C21 UNK     1       6.282   5.619  12.082  1.00  0.00     0.000 A 
HETATM   23  C20 UNK     1       7.091   4.987  11.138  1.00  0.00     0.001 A 
HETATM   24  C18 UNK     1       7.740   5.741  10.160  1.00  0.00     0.009 A 
ENDBRANCH  18  19
ENDBRANCH  16  18
ENDBRANCH  15  16
ENDBRANCH  10  15
BRANCH  13  25
HETATM   25  O3  UNK     1      10.191   5.292   7.739  1.00  0.00    -0.360 OA
HETATM   26  H16 UNK     1      10.247   4.372   7.437  1.00  0.00     0.217 HD
ENDBRANCH  13  25
TORSDOF 5
ENDMDL
