MODEL 1
REMARK VINA RESULT:      -8.0      0.000      0.000
REMARK  4 active torsions:
REMARK  status: ('A' for Active; 'I' for Inactive)
REMARK    1  A    between atoms: C11_17  and  O2_2 
REMARK    2  A    between atoms: C17_23  and  O2_2 
REMARK    3  A    between atoms: C1_7  and  C10_16 
REMARK    4  A    between atoms: C11_17  and  C6_12 
ROOT
HETATM    1  O1  UNK     1      33.224  -7.610  33.670  1.00  0.00    -0.293 OA
HETATM    2  N1  UNK     1      31.863  -4.254  36.725  1.00  0.00    -0.362 N 
HETATM    3  C1  UNK     1      31.099  -6.615  35.348  1.00  0.00     0.104 C 
HETATM    4  C2  UNK     1      32.438  -5.917  35.138  1.00  0.00     0.024 C 
HETATM    5  C3  UNK     1      32.745  -4.781  35.800  1.00  0.00     0.020 C 
HETATM    6  C4  UNK     1      34.030  -4.024  35.594  1.00  0.00     0.058 C 
HETATM    7  C5  UNK     1      34.688  -4.361  34.261  1.00  0.00     0.014 C 
HETATM    8  C6  UNK     1      30.292  -6.009  36.498  1.00  0.00     0.052 C 
HETATM    9  C7  UNK     1      34.799  -5.864  34.079  1.00  0.00     0.084 C 
HETATM   10  C8  UNK     1      33.453  -6.538  34.231  1.00  0.00     0.158 C 
HETATM   11  C9  UNK     1      30.680  -4.866  37.109  1.00  0.00     0.018 C 
HETATM   12  C13 UNK     1      29.933  -4.164  38.210  1.00  0.00     0.069 C 
HETATM   13  H8  UNK     1      32.131  -3.401  37.202  1.00  0.00     0.165 HD
ENDROOT
BRANCH   3  14
HETATM   14  C10 UNK     1      30.293  -6.591  34.078  1.00  0.00     0.029 A 
HETATM   15  C12 UNK     1      29.787  -7.877  33.535  1.00  0.00     0.194 A 
HETATM   16  O5  UNK     1      30.002  -8.947  34.087  1.00  0.00    -0.287 OA
HETATM   17  C15 UNK     1      29.004  -7.796  32.287  1.00  0.00     0.048 A 
HETATM   18  C16 UNK     1      28.790  -6.549  31.701  1.00  0.00     0.089 A 
HETATM   19  C18 UNK     1      28.484  -8.951  31.697  1.00  0.00     0.018 A 
HETATM   20  O3  UNK     1      29.277  -5.384  32.237  1.00  0.00    -0.321 OA
HETATM   21  C19 UNK     1      28.052  -6.449  30.520  1.00  0.00     0.038 A 
HETATM   22  C14 UNK     1      30.003  -5.474  33.399  1.00  0.00     0.154 A 
HETATM   23  C23 UNK     1      27.531  -7.600  29.929  1.00  0.00     0.003 A 
HETATM   24  C20 UNK     1      27.746  -8.848  30.516  1.00  0.00     0.001 A 
ENDBRANCH   3  14
BRANCH   8  25
HETATM   25  C11 UNK     1      29.102  -6.761  36.933  1.00  0.00     0.292 C 
HETATM   26  O4  UNK     1      28.011  -6.646  36.406  1.00  0.00    -0.259 OA
BRANCH  25  27
HETATM   27  O2  UNK     1      29.454  -7.554  37.972  1.00  0.00    -0.313 OA
BRANCH  27  28
HETATM   28  C17 UNK     1      29.331  -8.960  37.731  1.00  0.00     0.124 C 
HETATM   29  C21 UNK     1      30.717  -9.585  37.692  1.00  0.00     0.040 C 
HETATM   30  C22 UNK     1      28.460  -9.578  38.814  1.00  0.00     0.040 C 
ENDBRANCH  27  28
ENDBRANCH  25  27
ENDBRANCH   8  25
TORSDOF 4
ENDMDL
MODEL 2
REMARK VINA RESULT:      -8.0      1.812      5.752
REMARK  4 active torsions:
REMARK  status: ('A' for Active; 'I' for Inactive)
REMARK    1  A    between atoms: C11_17  and  O2_2 
REMARK    2  A    between atoms: C17_23  and  O2_2 
REMARK    3  A    between atoms: C1_7  and  C10_16 
REMARK    4  A    between atoms: C11_17  and  C6_12 
ROOT
HETATM    1  O1  UNK     1      30.326  -4.629  36.891  1.00  0.00    -0.293 OA
HETATM    2  N1  UNK     1      32.383  -7.078  33.396  1.00  0.00    -0.362 N 
HETATM    3  C1  UNK     1      30.009  -6.695  34.903  1.00  0.00     0.104 C 
HETATM    4  C2  UNK     1      31.313  -5.959  35.190  1.00  0.00     0.024 C 
HETATM    5  C3  UNK     1      32.423  -6.194  34.457  1.00  0.00     0.020 C 
HETATM    6  C4  UNK     1      33.748  -5.533  34.728  1.00  0.00     0.058 C 
HETATM    7  C5  UNK     1      33.842  -4.995  36.151  1.00  0.00     0.014 C 
HETATM    8  C6  UNK     1      30.070  -7.525  33.619  1.00  0.00     0.052 C 
HETATM    9  C7  UNK     1      32.629  -4.149  36.490  1.00  0.00     0.084 C 
HETATM   10  C8  UNK     1      31.343  -4.911  36.258  1.00  0.00     0.158 C 
HETATM   11  C9  UNK     1      31.230  -7.702  32.946  1.00  0.00     0.018 C 
HETATM   12  C13 UNK     1      31.405  -8.537  31.707  1.00  0.00     0.069 C 
HETATM   13  H8  UNK     1      33.236  -7.225  32.869  1.00  0.00     0.165 HD
ENDROOT
BRANCH   3  14
HETATM   14  C10 UNK     1      29.637  -7.569  36.070  1.00  0.00     0.029 A 
HETATM   15  C12 UNK     1      28.273  -7.444  36.644  1.00  0.00     0.194 A 
HETATM   16  O5  UNK     1      27.449  -6.658  36.197  1.00  0.00    -0.287 OA
HETATM   17  C15 UNK     1      27.962  -8.323  37.786  1.00  0.00     0.048 A 
HETATM   18  C16 UNK     1      28.940  -9.200  38.253  1.00  0.00     0.089 A 
HETATM   19  C18 UNK     1      26.706  -8.281  38.396  1.00  0.00     0.018 A 
HETATM   20  O3  UNK     1      30.190  -9.284  37.693  1.00  0.00    -0.321 OA
HETATM   21  C19 UNK     1      28.668 -10.042  39.333  1.00  0.00     0.038 A 
HETATM   22  C14 UNK     1      30.466  -8.460  36.629  1.00  0.00     0.154 A 
HETATM   23  C23 UNK     1      27.414 -10.001  39.943  1.00  0.00     0.003 A 
HETATM   24  C20 UNK     1      26.435  -9.123  39.476  1.00  0.00     0.001 A 
ENDBRANCH   3  14
BRANCH   8  25
HETATM   25  C11 UNK     1      28.793  -8.075  33.132  1.00  0.00     0.292 C 
HETATM   26  O4  UNK     1      28.501  -9.254  33.211  1.00  0.00    -0.259 OA
BRANCH  25  27
HETATM   27  O2  UNK     1      28.061  -7.061  32.613  1.00  0.00    -0.313 OA
BRANCH  27  28
HETATM   28  C17 UNK     1      28.060  -6.984  31.183  1.00  0.00     0.124 C 
HETATM   29  C21 UNK     1      26.624  -6.961  30.684  1.00  0.00     0.040 C 
HETATM   30  C22 UNK     1      28.831  -5.747  30.749  1.00  0.00     0.040 C 
ENDBRANCH  27  28
ENDBRANCH  25  27
ENDBRANCH   8  25
TORSDOF 4
ENDMDL
MODEL 3
REMARK VINA RESULT:      -8.0      1.102      1.467
REMARK  4 active torsions:
REMARK  status: ('A' for Active; 'I' for Inactive)
REMARK    1  A    between atoms: C11_17  and  O2_2 
REMARK    2  A    between atoms: C17_23  and  O2_2 
REMARK    3  A    between atoms: C1_7  and  C10_16 
REMARK    4  A    between atoms: C11_17  and  C6_12 
ROOT
HETATM    1  O1  UNK     1      32.491  -7.348  33.991  1.00  0.00    -0.293 OA
HETATM    2  N1  UNK     1      30.258  -4.996  37.445  1.00  0.00    -0.362 N 
HETATM    3  C1  UNK     1      30.105  -7.147  35.600  1.00  0.00     0.104 C 
HETATM    4  C2  UNK     1      31.272  -6.167  35.652  1.00  0.00     0.024 C 
HETATM    5  C3  UNK     1      31.287  -5.145  36.534  1.00  0.00     0.020 C 
HETATM    6  C4  UNK     1      32.388  -4.120  36.594  1.00  0.00     0.058 C 
HETATM    7  C5  UNK     1      33.182  -4.051  35.295  1.00  0.00     0.014 C 
HETATM    8  C6  UNK     1      29.119  -6.952  36.754  1.00  0.00     0.052 C 
HETATM    9  C7  UNK     1      33.625  -5.435  34.859  1.00  0.00     0.084 C 
HETATM   10  C8  UNK     1      32.450  -6.383  34.754  1.00  0.00     0.158 C 
HETATM   11  C9  UNK     1      29.215  -5.896  37.595  1.00  0.00     0.018 C 
HETATM   12  C13 UNK     1      28.270  -5.588  38.724  1.00  0.00     0.069 C 
HETATM   13  H8  UNK     1      30.307  -4.218  38.092  1.00  0.00     0.165 HD
ENDROOT
BRANCH   3  14
HETATM   14  C10 UNK     1      29.390  -7.037  34.281  1.00  0.00     0.029 A 
HETATM   15  C12 UNK     1      29.300  -8.244  33.421  1.00  0.00     0.194 A 
HETATM   16  O5  UNK     1      29.784  -9.318  33.752  1.00  0.00    -0.287 OA
HETATM   17  C15 UNK     1      28.590  -8.080  32.138  1.00  0.00     0.048 A 
HETATM   18  C16 UNK     1      28.057  -6.833  31.812  1.00  0.00     0.089 A 
HETATM   19  C18 UNK     1      28.451  -9.157  31.258  1.00  0.00     0.018 A 
HETATM   20  O3  UNK     1      28.164  -5.743  32.638  1.00  0.00    -0.321 OA
HETATM   21  C19 UNK     1      27.381  -6.655  30.604  1.00  0.00     0.038 A 
HETATM   22  C14 UNK     1      28.827  -5.910  33.829  1.00  0.00     0.154 A 
HETATM   23  C23 UNK     1      27.241  -7.729  29.724  1.00  0.00     0.003 A 
HETATM   24  C20 UNK     1      27.775  -8.977  30.051  1.00  0.00     0.001 A 
ENDBRANCH   3  14
BRANCH   8  25
HETATM   25  C11 UNK     1      28.096  -7.998  36.927  1.00  0.00     0.292 C 
HETATM   26  O4  UNK     1      26.902  -7.788  36.818  1.00  0.00    -0.259 OA
BRANCH  25  27
HETATM   27  O2  UNK     1      28.722  -9.164  37.214  1.00  0.00    -0.313 OA
BRANCH  27  28
HETATM   28  C17 UNK     1      29.254  -9.256  38.540  1.00  0.00     0.124 C 
HETATM   29  C21 UNK     1      28.268 -10.005  39.424  1.00  0.00     0.040 C 
HETATM   30  C22 UNK     1      30.608  -9.946  38.488  1.00  0.00     0.040 C 
ENDBRANCH  27  28
ENDBRANCH  25  27
ENDBRANCH   8  25
TORSDOF 4
ENDMDL
MODEL 4
REMARK VINA RESULT:      -7.8      1.573      1.798
REMARK  4 active torsions:
REMARK  status: ('A' for Active; 'I' for Inactive)
REMARK    1  A    between atoms: C11_17  and  O2_2 
REMARK    2  A    between atoms: C17_23  and  O2_2 
REMARK    3  A    between atoms: C1_7  and  C10_16 
REMARK    4  A    between atoms: C11_17  and  C6_12 
ROOT
HETATM    1  O1  UNK     1      32.807  -8.730  34.879  1.00  0.00    -0.293 OA
HETATM    2  N1  UNK     1      31.175  -5.713  38.146  1.00  0.00    -0.362 N 
HETATM    3  C1  UNK     1      30.477  -7.636  36.179  1.00  0.00     0.104 C 
HETATM    4  C2  UNK     1      31.908  -7.177  36.434  1.00  0.00     0.024 C 
HETATM    5  C3  UNK     1      32.187  -6.241  37.367  1.00  0.00     0.020 C 
HETATM    6  C4  UNK     1      33.574  -5.717  37.624  1.00  0.00     0.058 C 
HETATM    7  C5  UNK     1      34.508  -5.954  36.443  1.00  0.00     0.014 C 
HETATM    8  C6  UNK     1      29.488  -7.080  37.207  1.00  0.00     0.052 C 
HETATM    9  C7  UNK     1      34.448  -7.401  35.990  1.00  0.00     0.084 C 
HETATM   10  C8  UNK     1      33.029  -7.825  35.683  1.00  0.00     0.158 C 
HETATM   11  C9  UNK     1      29.859  -6.145  38.111  1.00  0.00     0.018 C 
HETATM   12  C13 UNK     1      28.954  -5.500  39.126  1.00  0.00     0.069 C 
HETATM   13  H8  UNK     1      31.426  -5.014  38.837  1.00  0.00     0.165 HD
ENDROOT
BRANCH   3  14
HETATM   14  C10 UNK     1      30.048  -7.256  34.788  1.00  0.00     0.029 A 
HETATM   15  C12 UNK     1      29.414  -8.292  33.934  1.00  0.00     0.194 A 
HETATM   16  O5  UNK     1      29.229  -9.436  34.327  1.00  0.00    -0.287 OA
HETATM   17  C15 UNK     1      29.014  -7.868  32.579  1.00  0.00     0.048 A 
HETATM   18  C16 UNK     1      29.249  -6.551  32.185  1.00  0.00     0.089 A 
HETATM   19  C18 UNK     1      28.409  -8.768  31.700  1.00  0.00     0.018 A 
HETATM   20  O3  UNK     1      29.839  -5.624  33.007  1.00  0.00    -0.321 OA
HETATM   21  C19 UNK     1      28.879  -6.127  30.908  1.00  0.00     0.038 A 
HETATM   22  C14 UNK     1      30.205  -6.033  34.266  1.00  0.00     0.154 A 
HETATM   23  C23 UNK     1      28.274  -7.024  30.028  1.00  0.00     0.003 A 
HETATM   24  C20 UNK     1      28.039  -8.343  30.423  1.00  0.00     0.001 A 
ENDBRANCH   3  14
BRANCH   8  25
HETATM   25  C11 UNK     1      28.132  -7.655  37.189  1.00  0.00     0.292 C 
HETATM   26  O4  UNK     1      27.149  -7.034  36.828  1.00  0.00    -0.259 OA
BRANCH  25  27
HETATM   27  O2  UNK     1      28.203  -8.933  37.631  1.00  0.00    -0.313 OA
BRANCH  27  28
HETATM   28  C17 UNK     1      26.960  -9.494  38.066  1.00  0.00     0.124 C 
HETATM   29  C21 UNK     1      26.394 -10.373  36.961  1.00  0.00     0.040 C 
HETATM   30  C22 UNK     1      27.187 -10.275  39.351  1.00  0.00     0.040 C 
ENDBRANCH  27  28
ENDBRANCH  25  27
ENDBRANCH   8  25
TORSDOF 4
ENDMDL
MODEL 5
REMARK VINA RESULT:      -7.7      3.192      6.752
REMARK  4 active torsions:
REMARK  status: ('A' for Active; 'I' for Inactive)
REMARK    1  A    between atoms: C11_17  and  O2_2 
REMARK    2  A    between atoms: C17_23  and  O2_2 
REMARK    3  A    between atoms: C1_7  and  C10_16 
REMARK    4  A    between atoms: C11_17  and  C6_12 
ROOT
HETATM    1  O1  UNK     1      32.164 -10.010  34.809  1.00  0.00    -0.293 OA
HETATM    2  N1  UNK     1      29.073 -10.299  31.230  1.00  0.00    -0.362 N 
HETATM    3  C1  UNK     1      30.014  -8.714  33.389  1.00  0.00     0.104 C 
HETATM    4  C2  UNK     1      30.527 -10.119  33.092  1.00  0.00     0.024 C 
HETATM    5  C3  UNK     1      30.030 -10.842  32.066  1.00  0.00     0.020 C 
HETATM    6  C4  UNK     1      30.465 -12.251  31.760  1.00  0.00     0.058 C 
HETATM    7  C5  UNK     1      31.107 -12.930  32.964  1.00  0.00     0.014 C 
HETATM    8  C6  UNK     1      29.071  -8.189  32.303  1.00  0.00     0.052 C 
HETATM    9  C7  UNK     1      32.184 -12.049  33.568  1.00  0.00     0.084 C 
HETATM   10  C8  UNK     1      31.647 -10.677  33.913  1.00  0.00     0.158 C 
HETATM   11  C9  UNK     1      28.627  -8.988  31.306  1.00  0.00     0.018 C 
HETATM   12  C13 UNK     1      27.662  -8.585  30.224  1.00  0.00     0.069 C 
HETATM   13  H8  UNK     1      28.727 -10.873  30.470  1.00  0.00     0.165 HD
ENDROOT
BRANCH   3  14
HETATM   14  C10 UNK     1      29.332  -8.681  34.730  1.00  0.00     0.029 A 
HETATM   15  C12 UNK     1      29.723  -7.624  35.698  1.00  0.00     0.194 A 
HETATM   16  O5  UNK     1      30.575  -6.785  35.437  1.00  0.00    -0.287 OA
HETATM   17  C15 UNK     1      29.025  -7.638  36.997  1.00  0.00     0.048 A 
HETATM   18  C16 UNK     1      28.062  -8.618  37.239  1.00  0.00     0.089 A 
HETATM   19  C18 UNK     1      29.321  -6.686  37.975  1.00  0.00     0.018 A 
HETATM   20  O3  UNK     1      27.731  -9.577  36.315  1.00  0.00    -0.321 OA
HETATM   21  C19 UNK     1      27.389  -8.650  38.461  1.00  0.00     0.038 A 
HETATM   22  C14 UNK     1      28.389  -9.552  35.110  1.00  0.00     0.154 A 
HETATM   23  C23 UNK     1      27.684  -7.700  39.439  1.00  0.00     0.003 A 
HETATM   24  C20 UNK     1      28.647  -6.720  39.197  1.00  0.00     0.001 A 
ENDBRANCH   3  14
BRANCH   8  25
HETATM   25  C11 UNK     1      28.716  -6.762  32.377  1.00  0.00     0.292 C 
HETATM   26  O4  UNK     1      27.615  -6.364  32.709  1.00  0.00    -0.259 OA
BRANCH  25  27
HETATM   27  O2  UNK     1      29.800  -6.033  32.021  1.00  0.00    -0.313 OA
BRANCH  27  28
HETATM   28  C17 UNK     1      29.778  -5.528  30.682  1.00  0.00     0.124 C 
HETATM   29  C21 UNK     1      29.916  -4.013  30.716  1.00  0.00     0.040 C 
HETATM   30  C22 UNK     1      30.895  -6.181  29.883  1.00  0.00     0.040 C 
ENDBRANCH  27  28
ENDBRANCH  25  27
ENDBRANCH   8  25
TORSDOF 4
ENDMDL
MODEL 6
REMARK VINA RESULT:      -7.6      1.466      1.663
REMARK  4 active torsions:
REMARK  status: ('A' for Active; 'I' for Inactive)
REMARK    1  A    between atoms: C11_17  and  O2_2 
REMARK    2  A    between atoms: C17_23  and  O2_2 
REMARK    3  A    between atoms: C1_7  and  C10_16 
REMARK    4  A    between atoms: C11_17  and  C6_12 
ROOT
HETATM    1  O1  UNK     1      33.246  -9.197  33.452  1.00  0.00    -0.293 OA
HETATM    2  N1  UNK     1      33.858  -5.843  36.742  1.00  0.00    -0.362 N 
HETATM    3  C1  UNK     1      31.977  -7.497  35.408  1.00  0.00     0.104 C 
HETATM    4  C2  UNK     1      33.459  -7.454  35.051  1.00  0.00     0.024 C 
HETATM    5  C3  UNK     1      34.311  -6.632  35.701  1.00  0.00     0.020 C 
HETATM    6  C4  UNK     1      35.771  -6.513  35.357  1.00  0.00     0.058 C 
HETATM    7  C5  UNK     1      36.071  -7.001  33.944  1.00  0.00     0.014 C 
HETATM    8  C6  UNK     1      31.649  -6.689  36.665  1.00  0.00     0.052 C 
HETATM    9  C7  UNK     1      35.472  -8.375  33.709  1.00  0.00     0.084 C 
HETATM   10  C8  UNK     1      33.989  -8.388  34.009  1.00  0.00     0.158 C 
HETATM   11  C9  UNK     1      32.571  -5.892  37.254  1.00  0.00     0.018 C 
HETATM   12  C13 UNK     1      32.335  -5.021  38.458  1.00  0.00     0.069 C 
HETATM   13  H8  UNK     1      34.529  -5.240  37.206  1.00  0.00     0.165 HD
ENDROOT
BRANCH   3  14
HETATM   14  C10 UNK     1      31.149  -7.014  34.248  1.00  0.00     0.029 A 
HETATM   15  C12 UNK     1      30.080  -7.901  33.723  1.00  0.00     0.194 A 
HETATM   16  O5  UNK     1      29.854  -9.004  34.203  1.00  0.00    -0.287 OA
HETATM   17  C15 UNK     1      29.299  -7.380  32.585  1.00  0.00     0.048 A 
HETATM   18  C16 UNK     1      29.600  -6.116  32.079  1.00  0.00     0.089 A 
HETATM   19  C18 UNK     1      28.271  -8.138  32.020  1.00  0.00     0.018 A 
HETATM   20  O3  UNK     1      30.598  -5.328  32.595  1.00  0.00    -0.321 OA
HETATM   21  C19 UNK     1      28.874  -5.603  31.003  1.00  0.00     0.038 A 
HETATM   22  C14 UNK     1      31.317  -5.826  33.654  1.00  0.00     0.154 A 
HETATM   23  C23 UNK     1      27.847  -6.358  30.436  1.00  0.00     0.003 A 
HETATM   24  C20 UNK     1      27.546  -7.623  30.944  1.00  0.00     0.001 A 
ENDBRANCH   3  14
BRANCH   8  25
HETATM   25  C11 UNK     1      30.298  -6.864  37.223  1.00  0.00     0.292 C 
HETATM   26  O4  UNK     1      29.324  -6.257  36.818  1.00  0.00    -0.259 OA
BRANCH  25  27
HETATM   27  O2  UNK     1      30.361  -7.781  38.217  1.00  0.00    -0.313 OA
BRANCH  27  28
HETATM   28  C17 UNK     1      29.927  -9.097  37.857  1.00  0.00     0.124 C 
HETATM   29  C21 UNK     1      31.057 -10.084  38.111  1.00  0.00     0.040 C 
HETATM   30  C22 UNK     1      28.679  -9.447  38.651  1.00  0.00     0.040 C 
ENDBRANCH  27  28
ENDBRANCH  25  27
ENDBRANCH   8  25
TORSDOF 4
ENDMDL
MODEL 7
REMARK VINA RESULT:      -7.6     18.886     23.282
REMARK  4 active torsions:
REMARK  status: ('A' for Active; 'I' for Inactive)
REMARK    1  A    between atoms: C11_17  and  O2_2 
REMARK    2  A    between atoms: C17_23  and  O2_2 
REMARK    3  A    between atoms: C1_7  and  C10_16 
REMARK    4  A    between atoms: C11_17  and  C6_12 
ROOT
HETATM    1  O1  UNK     1      20.222  -1.516  13.870  1.00  0.00    -0.293 OA
HETATM    2  N1  UNK     1      18.639  -5.558  11.971  1.00  0.00    -0.362 N 
HETATM    3  C1  UNK     1      19.181  -4.158  14.380  1.00  0.00     0.104 C 
HETATM    4  C2  UNK     1      19.501  -3.603  12.996  1.00  0.00     0.024 C 
HETATM    5  C3  UNK     1      19.245  -4.319  11.880  1.00  0.00     0.020 C 
HETATM    6  C4  UNK     1      19.587  -3.841  10.494  1.00  0.00     0.058 C 
HETATM    7  C5  UNK     1      20.660  -2.758  10.507  1.00  0.00     0.014 C 
HETATM    8  C6  UNK     1      18.384  -5.463  14.322  1.00  0.00     0.052 C 
HETATM    9  C7  UNK     1      20.304  -1.658  11.489  1.00  0.00     0.084 C 
HETATM   10  C8  UNK     1      20.047  -2.215  12.872  1.00  0.00     0.158 C 
HETATM   11  C9  UNK     1      18.172  -6.111  13.153  1.00  0.00     0.018 C 
HETATM   12  C13 UNK     1      17.449  -7.421  12.997  1.00  0.00     0.069 C 
HETATM   13  H8  UNK     1      18.462  -6.063  11.110  1.00  0.00     0.165 HD
ENDROOT
BRANCH   3  14
HETATM   14  C10 UNK     1      20.447  -4.356  15.167  1.00  0.00     0.029 A 
HETATM   15  C12 UNK     1      20.759  -3.400  16.261  1.00  0.00     0.194 A 
HETATM   16  O5  UNK     1      20.020  -2.465  16.539  1.00  0.00    -0.287 OA
HETATM   17  C15 UNK     1      22.013  -3.639  17.000  1.00  0.00     0.048 A 
HETATM   18  C16 UNK     1      22.816  -4.721  16.640  1.00  0.00     0.089 A 
HETATM   19  C18 UNK     1      22.395  -2.796  18.046  1.00  0.00     0.018 A 
HETATM   20  O3  UNK     1      22.490  -5.580  15.622  1.00  0.00    -0.321 OA
HETATM   21  C19 UNK     1      24.007  -4.966  17.326  1.00  0.00     0.038 A 
HETATM   22  C14 UNK     1      21.320  -5.346  14.942  1.00  0.00     0.154 A 
HETATM   23  C23 UNK     1      24.390  -4.125  18.371  1.00  0.00     0.003 A 
HETATM   24  C20 UNK     1      23.586  -3.043  18.731  1.00  0.00     0.001 A 
ENDBRANCH   3  14
BRANCH   8  25
HETATM   25  C11 UNK     1      17.823  -5.946  15.595  1.00  0.00     0.292 C 
HETATM   26  O4  UNK     1      18.470  -6.570  16.416  1.00  0.00    -0.259 OA
BRANCH  25  27
HETATM   27  O2  UNK     1      16.523  -5.575  15.657  1.00  0.00    -0.313 OA
BRANCH  27  28
HETATM   28  C17 UNK     1      15.754  -6.223  16.677  1.00  0.00     0.124 C 
HETATM   29  C21 UNK     1      15.374  -5.205  17.740  1.00  0.00     0.040 C 
HETATM   30  C22 UNK     1      14.531  -6.869  16.046  1.00  0.00     0.040 C 
ENDBRANCH  27  28
ENDBRANCH  25  27
ENDBRANCH   8  25
TORSDOF 4
ENDMDL
MODEL 8
REMARK VINA RESULT:      -7.6      1.905      5.514
REMARK  4 active torsions:
REMARK  status: ('A' for Active; 'I' for Inactive)
REMARK    1  A    between atoms: C11_17  and  O2_2 
REMARK    2  A    between atoms: C17_23  and  O2_2 
REMARK    3  A    between atoms: C1_7  and  C10_16 
REMARK    4  A    between atoms: C11_17  and  C6_12 
ROOT
HETATM    1  O1  UNK     1      28.664  -9.756  33.137  1.00  0.00    -0.293 OA
HETATM    2  N1  UNK     1      30.530  -5.413  32.826  1.00  0.00    -0.362 N 
HETATM    3  C1  UNK     1      30.223  -7.717  34.454  1.00  0.00     0.104 C 
HETATM    4  C2  UNK     1      29.555  -7.555  33.093  1.00  0.00     0.024 C 
HETATM    5  C3  UNK     1      29.713  -6.428  32.366  1.00  0.00     0.020 C 
HETATM    6  C4  UNK     1      29.038  -6.196  31.041  1.00  0.00     0.058 C 
HETATM    7  C5  UNK     1      27.817  -7.089  30.854  1.00  0.00     0.014 C 
HETATM    8  C6  UNK     1      31.206  -6.587  34.766  1.00  0.00     0.052 C 
HETATM    9  C7  UNK     1      28.157  -8.538  31.149  1.00  0.00     0.084 C 
HETATM   10  C8  UNK     1      28.764  -8.693  32.526  1.00  0.00     0.158 C 
HETATM   11  C9  UNK     1      31.301  -5.494  33.975  1.00  0.00     0.018 C 
HETATM   12  C13 UNK     1      32.196  -4.310  34.222  1.00  0.00     0.069 C 
HETATM   13  H8  UNK     1      30.625  -4.584  32.251  1.00  0.00     0.165 HD
ENDROOT
BRANCH   3  14
HETATM   14  C10 UNK     1      29.182  -7.814  35.536  1.00  0.00     0.029 A 
HETATM   15  C12 UNK     1      29.322  -8.882  36.560  1.00  0.00     0.194 A 
HETATM   16  O5  UNK     1      30.252  -9.677  36.549  1.00  0.00    -0.287 OA
HETATM   17  C15 UNK     1      28.274  -8.933  37.597  1.00  0.00     0.048 A 
HETATM   18  C16 UNK     1      27.237  -8.002  37.560  1.00  0.00     0.089 A 
HETATM   19  C18 UNK     1      28.316  -9.901  38.604  1.00  0.00     0.018 A 
HETATM   20  O3  UNK     1      27.146  -7.031  36.595  1.00  0.00    -0.321 OA
HETATM   21  C19 UNK     1      26.235  -8.031  38.531  1.00  0.00     0.038 A 
HETATM   22  C14 UNK     1      28.129  -6.994  35.636  1.00  0.00     0.154 A 
HETATM   23  C23 UNK     1      26.275  -8.996  39.538  1.00  0.00     0.003 A 
HETATM   24  C20 UNK     1      27.313  -9.929  39.575  1.00  0.00     0.001 A 
ENDBRANCH   3  14
BRANCH   8  25
HETATM   25  C11 UNK     1      32.074  -6.779  35.941  1.00  0.00     0.292 C 
HETATM   26  O4  UNK     1      33.209  -7.213  35.869  1.00  0.00    -0.259 OA
BRANCH  25  27
HETATM   27  O2  UNK     1      31.389  -6.396  37.045  1.00  0.00    -0.313 OA
BRANCH  27  28
HETATM   28  C17 UNK     1      31.641  -5.055  37.480  1.00  0.00     0.124 C 
HETATM   29  C21 UNK     1      30.320  -4.389  37.835  1.00  0.00     0.040 C 
HETATM   30  C22 UNK     1      32.597  -5.084  38.661  1.00  0.00     0.040 C 
ENDBRANCH  27  28
ENDBRANCH  25  27
ENDBRANCH   8  25
TORSDOF 4
ENDMDL
MODEL 9
REMARK VINA RESULT:      -7.6      1.649      5.609
REMARK  4 active torsions:
REMARK  status: ('A' for Active; 'I' for Inactive)
REMARK    1  A    between atoms: C11_17  and  O2_2 
REMARK    2  A    between atoms: C17_23  and  O2_2 
REMARK    3  A    between atoms: C1_7  and  C10_16 
REMARK    4  A    between atoms: C11_17  and  C6_12 
ROOT
HETATM    1  O1  UNK     1      29.193  -8.877  33.464  1.00  0.00    -0.293 OA
HETATM    2  N1  UNK     1      31.430  -4.703  33.615  1.00  0.00    -0.362 N 
HETATM    3  C1  UNK     1      31.055  -7.205  34.900  1.00  0.00     0.104 C 
HETATM    4  C2  UNK     1      30.283  -6.775  33.658  1.00  0.00     0.024 C 
HETATM    5  C3  UNK     1      30.481  -5.563  33.096  1.00  0.00     0.020 C 
HETATM    6  C4  UNK     1      29.711  -5.069  31.901  1.00  0.00     0.058 C 
HETATM    7  C5  UNK     1      28.398  -5.820  31.712  1.00  0.00     0.014 C 
HETATM    8  C6  UNK     1      32.167  -6.222  35.273  1.00  0.00     0.052 C 
HETATM    9  C7  UNK     1      28.624  -7.320  31.747  1.00  0.00     0.084 C 
HETATM   10  C8  UNK     1      29.338  -7.741  33.012  1.00  0.00     0.158 C 
HETATM   11  C9  UNK     1      32.293  -5.028  34.650  1.00  0.00     0.018 C 
HETATM   12  C13 UNK     1      33.316  -3.974  34.976  1.00  0.00     0.069 C 
HETATM   13  H8  UNK     1      31.550  -3.803  33.164  1.00  0.00     0.165 HD
ENDROOT
BRANCH   3  14
HETATM   14  C10 UNK     1      30.115  -7.391  36.060  1.00  0.00     0.029 A 
HETATM   15  C12 UNK     1      30.169  -8.665  36.820  1.00  0.00     0.194 A 
HETATM   16  O5  UNK     1      30.952  -9.561  36.534  1.00  0.00    -0.287 OA
HETATM   17  C15 UNK     1      29.226  -8.795  37.946  1.00  0.00     0.048 A 
HETATM   18  C16 UNK     1      28.356  -7.742  38.227  1.00  0.00     0.089 A 
HETATM   19  C18 UNK     1      29.199  -9.956  38.723  1.00  0.00     0.018 A 
HETATM   20  O3  UNK     1      28.338  -6.580  37.497  1.00  0.00    -0.321 OA
HETATM   21  C19 UNK     1      27.454  -7.843  39.287  1.00  0.00     0.038 A 
HETATM   22  C14 UNK     1      29.223  -6.472  36.452  1.00  0.00     0.154 A 
HETATM   23  C23 UNK     1      27.426  -9.001  40.064  1.00  0.00     0.003 A 
HETATM   24  C20 UNK     1      28.297 -10.055  39.783  1.00  0.00     0.001 A 
ENDBRANCH   3  14
BRANCH   8  25
HETATM   25  C11 UNK     1      33.117  -6.668  36.306  1.00  0.00     0.292 C 
HETATM   26  O4  UNK     1      33.201  -6.149  37.404  1.00  0.00    -0.259 OA
BRANCH  25  27
HETATM   27  O2  UNK     1      33.831  -7.706  35.812  1.00  0.00    -0.313 OA
BRANCH  27  28
HETATM   28  C17 UNK     1      34.647  -7.396  34.677  1.00  0.00     0.124 C 
HETATM   29  C21 UNK     1      35.987  -6.859  35.156  1.00  0.00     0.040 C 
HETATM   30  C22 UNK     1      34.808  -8.642  33.821  1.00  0.00     0.040 C 
ENDBRANCH  27  28
ENDBRANCH  25  27
ENDBRANCH   8  25
TORSDOF 4
ENDMDL
MODEL 10
REMARK VINA RESULT:      -7.5      2.407      5.571
REMARK  4 active torsions:
REMARK  status: ('A' for Active; 'I' for Inactive)
REMARK    1  A    between atoms: C11_17  and  O2_2 
REMARK    2  A    between atoms: C17_23  and  O2_2 
REMARK    3  A    between atoms: C1_7  and  C10_16 
REMARK    4  A    between atoms: C11_17  and  C6_12 
ROOT
HETATM    1  O1  UNK     1      27.165  -8.785  36.101  1.00  0.00    -0.293 OA
HETATM    2  N1  UNK     1      30.457  -5.610  37.338  1.00  0.00    -0.362 N 
HETATM    3  C1  UNK     1      29.541  -7.358  35.299  1.00  0.00     0.104 C 
HETATM    4  C2  UNK     1      28.901  -7.271  36.680  1.00  0.00     0.024 C 
HETATM    5  C3  UNK     1      29.389  -6.439  37.625  1.00  0.00     0.020 C 
HETATM    6  C4  UNK     1      28.828  -6.349  39.019  1.00  0.00     0.058 C 
HETATM    7  C5  UNK     1      28.030  -7.592  39.399  1.00  0.00     0.014 C 
HETATM    8  C6  UNK     1      30.611  -6.287  35.076  1.00  0.00     0.052 C 
HETATM    9  C7  UNK     1      27.014  -7.930  38.324  1.00  0.00     0.084 C 
HETATM   10  C8  UNK     1      27.671  -8.073  36.969  1.00  0.00     0.158 C 
HETATM   11  C9  UNK     1      31.036  -5.492  36.085  1.00  0.00     0.018 C 
HETATM   12  C13 UNK     1      32.115  -4.448  35.981  1.00  0.00     0.069 C 
HETATM   13  H8  UNK     1      30.793  -4.999  38.074  1.00  0.00     0.165 HD
ENDROOT
BRANCH   3  14
HETATM   14  C10 UNK     1      30.124  -8.728  35.081  1.00  0.00     0.029 A 
HETATM   15  C12 UNK     1      29.767  -9.460  33.839  1.00  0.00     0.194 A 
HETATM   16  O5  UNK     1      29.021  -8.984  32.993  1.00  0.00    -0.287 OA
HETATM   17  C15 UNK     1      30.364 -10.799  33.675  1.00  0.00     0.048 A 
HETATM   18  C16 UNK     1      31.208 -11.291  34.671  1.00  0.00     0.089 A 
HETATM   19  C18 UNK     1      30.091 -11.567  32.541  1.00  0.00     0.018 A 
HETATM   20  O3  UNK     1      31.511 -10.580  35.804  1.00  0.00    -0.321 OA
HETATM   21  C19 UNK     1      31.785 -12.555  34.537  1.00  0.00     0.038 A 
HETATM   22  C14 UNK     1      30.949  -9.335  35.943  1.00  0.00     0.154 A 
HETATM   23  C23 UNK     1      31.513 -13.324  33.406  1.00  0.00     0.003 A 
HETATM   24  C20 UNK     1      30.669 -12.831  32.409  1.00  0.00     0.001 A 
ENDBRANCH   3  14
BRANCH   8  25
HETATM   25  C11 UNK     1      31.112  -6.137  33.699  1.00  0.00     0.292 C 
HETATM   26  O4  UNK     1      32.058  -6.766  33.261  1.00  0.00    -0.259 OA
BRANCH  25  27
HETATM   27  O2  UNK     1      30.351  -5.215  33.065  1.00  0.00    -0.313 OA
BRANCH  27  28
HETATM   28  C17 UNK     1      29.619  -5.704  31.936  1.00  0.00     0.124 C 
HETATM   29  C21 UNK     1      28.141  -5.770  32.288  1.00  0.00     0.040 C 
HETATM   30  C22 UNK     1      29.878  -4.800  30.742  1.00  0.00     0.040 C 
ENDBRANCH  27  28
ENDBRANCH  25  27
ENDBRANCH   8  25
TORSDOF 4
ENDMDL
