MODEL 1
REMARK VINA RESULT:      -8.3      0.000      0.000
REMARK  3 active torsions:
REMARK  status: ('A' for Active; 'I' for Inactive)
REMARK    1  A    between atoms: C7_13  and  O2_3 
REMARK    2  A    between atoms: C1_7  and  C4_10 
REMARK    3  A    between atoms: C2_8  and  C7_13 
ROOT
HETATM    1  O1  UNK     1      19.041   4.542  29.929  1.00  0.00    -0.321 OA
HETATM    2  O3  UNK     1      17.793   2.243  33.061  1.00  0.00    -0.287 OA
HETATM    3  C4  UNK     1      18.634   2.334  30.842  1.00  0.00     0.058 A 
HETATM    4  C5  UNK     1      18.167   2.931  32.119  1.00  0.00     0.196 A 
HETATM    5  C6  UNK     1      18.178   4.403  32.194  1.00  0.00     0.049 A 
HETATM    6  C8  UNK     1      19.025   3.170  29.872  1.00  0.00     0.156 A 
HETATM    7  C9  UNK     1      18.616   5.135  31.091  1.00  0.00     0.089 A 
HETATM    8  C10 UNK     1      17.757   5.061  33.352  1.00  0.00     0.025 A 
HETATM    9  C11 UNK     1      17.777   6.455  33.400  1.00  0.00    -0.061 A 
HETATM   10  C12 UNK     1      18.635   6.530  31.140  1.00  0.00     0.039 A 
HETATM   11  C13 UNK     1      18.216   7.188  32.296  1.00  0.00     0.009 A 
HETATM   12  C14 UNK     1      17.330   7.166  34.633  1.00  0.00     0.048 C 
ENDROOT
BRANCH   3  13
HETATM   13  C1  UNK     1      18.642   0.848  30.713  1.00  0.00     0.322 C 
HETATM   14  S1  UNK     1      19.776   0.332  29.388  1.00  0.00    -0.126 SA
HETATM   15  C3  UNK     1      20.506  -0.991  30.381  1.00  0.00     0.123 C 
HETATM   16  C2  UNK     1      19.519  -1.172  31.525  1.00  0.00     0.328 C 
HETATM   17  N1  UNK     1      19.063   0.162  31.945  1.00  0.00     0.117 N 
HETATM   18  H5  UNK     1      19.862   0.660  32.341  1.00  0.00     0.319 HD
BRANCH  16  19
HETATM   19  C7  UNK     1      20.158  -1.815  32.711  1.00  0.00     0.175 C 
HETATM   20  O4  UNK     1      21.335  -2.145  32.726  1.00  0.00    -0.648 OA
BRANCH  19  21
HETATM   21  O2  UNK     1      19.291  -1.981  33.739  1.00  0.00    -0.775 OA
HETATM   22  H13 UNK     1      18.585  -1.300  33.736  1.00  0.00     0.167 HD
ENDBRANCH  19  21
ENDBRANCH  16  19
ENDBRANCH   3  13
TORSDOF 3
ENDMDL
MODEL 2
REMARK VINA RESULT:      -8.0      3.751      6.501
REMARK  3 active torsions:
REMARK  status: ('A' for Active; 'I' for Inactive)
REMARK    1  A    between atoms: C7_13  and  O2_3 
REMARK    2  A    between atoms: C1_7  and  C4_10 
REMARK    3  A    between atoms: C2_8  and  C7_13 
ROOT
HETATM    1  O1  UNK     1      20.905  -2.985  33.379  1.00  0.00    -0.321 OA
HETATM    2  O3  UNK     1      18.750   0.449  32.909  1.00  0.00    -0.287 OA
HETATM    3  C4  UNK     1      20.301  -1.095  31.986  1.00  0.00     0.058 A 
HETATM    4  C5  UNK     1      19.399  -0.580  33.047  1.00  0.00     0.196 A 
HETATM    5  C6  UNK     1      19.323  -1.380  34.284  1.00  0.00     0.049 A 
HETATM    6  C8  UNK     1      20.966  -2.230  32.233  1.00  0.00     0.156 A 
HETATM    7  C9  UNK     1      20.084  -2.544  34.386  1.00  0.00     0.089 A 
HETATM    8  C10 UNK     1      18.504  -0.980  35.342  1.00  0.00     0.025 A 
HETATM    9  C11 UNK     1      18.449  -1.753  36.502  1.00  0.00    -0.061 A 
HETATM   10  C12 UNK     1      20.027  -3.317  35.547  1.00  0.00     0.039 A 
HETATM   11  C13 UNK     1      19.208  -2.919  36.604  1.00  0.00     0.009 A 
HETATM   12  C14 UNK     1      17.575  -1.334  37.637  1.00  0.00     0.048 C 
ENDROOT
BRANCH   3  13
HETATM   13  C1  UNK     1      20.414  -0.323  30.714  1.00  0.00     0.322 C 
HETATM   14  S1  UNK     1      20.288  -1.438  29.283  1.00  0.00    -0.126 SA
HETATM   15  C3  UNK     1      19.154  -0.344  28.395  1.00  0.00     0.123 C 
HETATM   16  C2  UNK     1      19.289   0.985  29.124  1.00  0.00     0.328 C 
HETATM   17  N1  UNK     1      19.372   0.704  30.566  1.00  0.00     0.117 N 
HETATM   18  H5  UNK     1      18.478   0.311  30.864  1.00  0.00     0.319 HD
BRANCH  16  19
HETATM   19  C7  UNK     1      18.096   1.857  28.911  1.00  0.00     0.175 C 
HETATM   20  O4  UNK     1      17.796   2.305  27.814  1.00  0.00    -0.648 OA
BRANCH  19  21
HETATM   21  O2  UNK     1      17.408   2.080  30.056  1.00  0.00    -0.775 OA
HETATM   22  H13 UNK     1      16.823   1.326  30.286  1.00  0.00     0.167 HD
ENDBRANCH  19  21
ENDBRANCH  16  19
ENDBRANCH   3  13
TORSDOF 3
ENDMDL
MODEL 3
REMARK VINA RESULT:      -7.9      2.638      7.073
REMARK  3 active torsions:
REMARK  status: ('A' for Active; 'I' for Inactive)
REMARK    1  A    between atoms: C7_13  and  O2_3 
REMARK    2  A    between atoms: C1_7  and  C4_10 
REMARK    3  A    between atoms: C2_8  and  C7_13 
ROOT
HETATM    1  O1  UNK     1      18.528   1.049  33.708  1.00  0.00    -0.321 OA
HETATM    2  O3  UNK     1      18.607   3.815  30.709  1.00  0.00    -0.287 OA
HETATM    3  C4  UNK     1      18.195   3.343  33.000  1.00  0.00     0.058 A 
HETATM    4  C5  UNK     1      18.581   2.987  31.611  1.00  0.00     0.196 A 
HETATM    5  C6  UNK     1      18.935   1.576  31.373  1.00  0.00     0.049 A 
HETATM    6  C8  UNK     1      18.200   2.366  33.915  1.00  0.00     0.156 A 
HETATM    7  C9  UNK     1      18.889   0.676  32.438  1.00  0.00     0.089 A 
HETATM    8  C10 UNK     1      19.310   1.140  30.100  1.00  0.00     0.025 A 
HETATM    9  C11 UNK     1      19.641  -0.201  29.900  1.00  0.00    -0.061 A 
HETATM   10  C12 UNK     1      19.220  -0.664  32.235  1.00  0.00     0.039 A 
HETATM   11  C13 UNK     1      19.596  -1.101  30.965  1.00  0.00     0.009 A 
HETATM   12  C14 UNK     1      20.044  -0.675  28.543  1.00  0.00     0.048 C 
ENDROOT
BRANCH   3  13
HETATM   13  C1  UNK     1      17.828   4.759  33.294  1.00  0.00     0.322 C 
HETATM   14  S1  UNK     1      19.313   5.726  33.705  1.00  0.00    -0.126 SA
HETATM   15  C3  UNK     1      18.823   7.120  32.661  1.00  0.00     0.123 C 
HETATM   16  C2  UNK     1      17.345   6.872  32.397  1.00  0.00     0.328 C 
HETATM   17  N1  UNK     1      17.162   5.430  32.168  1.00  0.00     0.117 N 
HETATM   18  H5  UNK     1      17.646   5.183  31.305  1.00  0.00     0.319 HD
BRANCH  16  19
HETATM   19  C7  UNK     1      16.877   7.578  31.167  1.00  0.00     0.175 C 
HETATM   20  O4  UNK     1      16.025   8.454  31.195  1.00  0.00    -0.648 OA
BRANCH  19  21
HETATM   21  O2  UNK     1      17.503   7.137  30.049  1.00  0.00    -0.775 OA
HETATM   22  H13 UNK     1      17.635   6.165  30.062  1.00  0.00     0.167 HD
ENDBRANCH  19  21
ENDBRANCH  16  19
ENDBRANCH   3  13
TORSDOF 3
ENDMDL
MODEL 4
REMARK VINA RESULT:      -7.9     13.031     14.665
REMARK  3 active torsions:
REMARK  status: ('A' for Active; 'I' for Inactive)
REMARK    1  A    between atoms: C7_13  and  O2_3 
REMARK    2  A    between atoms: C1_7  and  C4_10 
REMARK    3  A    between atoms: C2_8  and  C7_13 
ROOT
HETATM    1  O1  UNK     1      31.047  -5.721  32.710  1.00  0.00    -0.321 OA
HETATM    2  O3  UNK     1      27.862  -6.791  35.025  1.00  0.00    -0.287 OA
HETATM    3  C4  UNK     1      30.156  -6.188  34.916  1.00  0.00     0.058 A 
HETATM    4  C5  UNK     1      28.820  -6.471  34.333  1.00  0.00     0.196 A 
HETATM    5  C6  UNK     1      28.706  -6.344  32.868  1.00  0.00     0.049 A 
HETATM    6  C8  UNK     1      31.139  -5.843  34.075  1.00  0.00     0.156 A 
HETATM    7  C9  UNK     1      29.831  -5.975  32.131  1.00  0.00     0.089 A 
HETATM    8  C10 UNK     1      27.492  -6.591  32.224  1.00  0.00     0.025 A 
HETATM    9  C11 UNK     1      27.409  -6.464  30.837  1.00  0.00    -0.061 A 
HETATM   10  C12 UNK     1      29.745  -5.849  30.743  1.00  0.00     0.039 A 
HETATM   11  C13 UNK     1      28.533  -6.094  30.098  1.00  0.00     0.009 A 
HETATM   12  C14 UNK     1      26.115  -6.724  30.140  1.00  0.00     0.048 C 
ENDROOT
BRANCH   3  13
HETATM   13  C1  UNK     1      30.325  -6.301  36.394  1.00  0.00     0.322 C 
HETATM   14  S1  UNK     1      31.992  -5.764  36.884  1.00  0.00    -0.126 SA
HETATM   15  C3  UNK     1      31.382  -4.785  38.278  1.00  0.00     0.123 C 
HETATM   16  C2  UNK     1      29.960  -5.289  38.479  1.00  0.00     0.328 C 
HETATM   17  N1  UNK     1      29.359  -5.490  37.151  1.00  0.00     0.117 N 
HETATM   18  H5  UNK     1      29.273  -4.578  36.701  1.00  0.00     0.319 HD
BRANCH  16  19
HETATM   19  C7  UNK     1      29.116  -4.289  39.200  1.00  0.00     0.175 C 
HETATM   20  O4  UNK     1      29.554  -3.583  40.096  1.00  0.00    -0.648 OA
BRANCH  19  21
HETATM   21  O2  UNK     1      27.840  -4.266  38.744  1.00  0.00    -0.775 OA
HETATM   22  H13 UNK     1      27.697  -4.915  38.023  1.00  0.00     0.167 HD
ENDBRANCH  19  21
ENDBRANCH  16  19
ENDBRANCH   3  13
TORSDOF 3
ENDMDL
MODEL 5
REMARK VINA RESULT:      -7.9      2.813      6.971
REMARK  3 active torsions:
REMARK  status: ('A' for Active; 'I' for Inactive)
REMARK    1  A    between atoms: C7_13  and  O2_3 
REMARK    2  A    between atoms: C1_7  and  C4_10 
REMARK    3  A    between atoms: C2_8  and  C7_13 
ROOT
HETATM    1  O1  UNK     1      18.988   2.698  29.360  1.00  0.00    -0.321 OA
HETATM    2  O3  UNK     1      18.395   1.982  33.334  1.00  0.00    -0.287 OA
HETATM    3  C4  UNK     1      18.274   3.518  31.527  1.00  0.00     0.058 A 
HETATM    4  C5  UNK     1      18.573   2.200  32.142  1.00  0.00     0.196 A 
HETATM    5  C6  UNK     1      19.097   1.161  31.237  1.00  0.00     0.049 A 
HETATM    6  C8  UNK     1      18.501   3.656  30.215  1.00  0.00     0.156 A 
HETATM    7  C9  UNK     1      19.279   1.465  29.888  1.00  0.00     0.089 A 
HETATM    8  C10 UNK     1      19.410  -0.112  31.719  1.00  0.00     0.025 A 
HETATM    9  C11 UNK     1      19.905  -1.079  30.843  1.00  0.00    -0.061 A 
HETATM   10  C12 UNK     1      19.773   0.497  29.013  1.00  0.00     0.039 A 
HETATM   11  C13 UNK     1      20.086  -0.775  29.493  1.00  0.00     0.009 A 
HETATM   12  C14 UNK     1      20.240  -2.442  31.349  1.00  0.00     0.048 C 
ENDROOT
BRANCH   3  13
HETATM   13  C1  UNK     1      17.741   4.605  32.399  1.00  0.00     0.322 C 
HETATM   14  S1  UNK     1      19.090   5.693  32.951  1.00  0.00    -0.126 SA
HETATM   15  C3  UNK     1      18.153   7.203  32.613  1.00  0.00     0.123 C 
HETATM   16  C2  UNK     1      16.718   6.715  32.475  1.00  0.00     0.328 C 
HETATM   17  N1  UNK     1      16.741   5.448  31.727  1.00  0.00     0.117 N 
HETATM   18  H5  UNK     1      17.062   5.647  30.779  1.00  0.00     0.319 HD
BRANCH  16  19
HETATM   19  C7  UNK     1      15.881   7.675  31.696  1.00  0.00     0.175 C 
HETATM   20  O4  UNK     1      16.349   8.417  30.845  1.00  0.00    -0.648 OA
BRANCH  19  21
HETATM   21  O2  UNK     1      14.572   7.617  32.043  1.00  0.00    -0.775 OA
HETATM   22  H13 UNK     1      14.069   8.389  31.707  1.00  0.00     0.167 HD
ENDBRANCH  19  21
ENDBRANCH  16  19
ENDBRANCH   3  13
TORSDOF 3
ENDMDL
MODEL 6
REMARK VINA RESULT:      -7.6     22.872     24.456
REMARK  3 active torsions:
REMARK  status: ('A' for Active; 'I' for Inactive)
REMARK    1  A    between atoms: C7_13  and  O2_3 
REMARK    2  A    between atoms: C1_7  and  C4_10 
REMARK    3  A    between atoms: C2_8  and  C7_13 
ROOT
HETATM    1  O1  UNK     1       8.524   7.787   8.946  1.00  0.00    -0.321 OA
HETATM    2  O3  UNK     1       9.453   3.926   9.881  1.00  0.00    -0.287 OA
HETATM    3  C4  UNK     1      10.089   5.942   8.799  1.00  0.00     0.058 A 
HETATM    4  C5  UNK     1       9.176   5.084   9.598  1.00  0.00     0.196 A 
HETATM    5  C6  UNK     1       7.913   5.706  10.036  1.00  0.00     0.049 A 
HETATM    6  C8  UNK     1       9.696   7.196   8.544  1.00  0.00     0.156 A 
HETATM    7  C9  UNK     1       7.651   7.030   9.685  1.00  0.00     0.089 A 
HETATM    8  C10 UNK     1       6.987   4.982  10.791  1.00  0.00     0.025 A 
HETATM    9  C11 UNK     1       5.799   5.592  11.194  1.00  0.00    -0.061 A 
HETATM   10  C12 UNK     1       6.462   7.638  10.090  1.00  0.00     0.039 A 
HETATM   11  C13 UNK     1       5.537   6.917  10.844  1.00  0.00     0.009 A 
HETATM   12  C14 UNK     1       4.805   4.826  12.002  1.00  0.00     0.048 C 
ENDROOT
BRANCH   3  13
HETATM   13  C1  UNK     1      11.381   5.362   8.331  1.00  0.00     0.322 C 
HETATM   14  S1  UNK     1      12.199   6.494   7.166  1.00  0.00    -0.126 SA
HETATM   15  C3  UNK     1      13.819   6.295   7.945  1.00  0.00     0.123 C 
HETATM   16  C2  UNK     1      13.658   5.047   8.802  1.00  0.00     0.328 C 
HETATM   17  N1  UNK     1      12.327   5.097   9.426  1.00  0.00     0.117 N 
HETATM   18  H5  UNK     1      12.310   5.886  10.074  1.00  0.00     0.319 HD
BRANCH  16  19
HETATM   19  C7  UNK     1      14.663   5.001   9.905  1.00  0.00     0.175 C 
HETATM   20  O4  UNK     1      14.788   5.903  10.720  1.00  0.00    -0.648 OA
BRANCH  19  21
HETATM   21  O2  UNK     1      15.397   3.862   9.887  1.00  0.00    -0.775 OA
HETATM   22  H13 UNK     1      15.680   3.594  10.787  1.00  0.00     0.167 HD
ENDBRANCH  19  21
ENDBRANCH  16  19
ENDBRANCH   3  13
TORSDOF 3
ENDMDL
MODEL 7
REMARK VINA RESULT:      -7.6      5.320      7.225
REMARK  3 active torsions:
REMARK  status: ('A' for Active; 'I' for Inactive)
REMARK    1  A    between atoms: C7_13  and  O2_3 
REMARK    2  A    between atoms: C1_7  and  C4_10 
REMARK    3  A    between atoms: C2_8  and  C7_13 
ROOT
HETATM    1  O1  UNK     1      18.049  -0.859  37.969  1.00  0.00    -0.321 OA
HETATM    2  O3  UNK     1      19.766  -1.835  34.398  1.00  0.00    -0.287 OA
HETATM    3  C4  UNK     1      19.153  -2.518  36.588  1.00  0.00     0.058 A 
HETATM    4  C5  UNK     1      19.253  -1.544  35.471  1.00  0.00     0.196 A 
HETATM    5  C6  UNK     1      18.695  -0.203  35.723  1.00  0.00     0.049 A 
HETATM    6  C8  UNK     1      18.572  -2.105  37.721  1.00  0.00     0.156 A 
HETATM    7  C9  UNK     1      18.121   0.071  36.963  1.00  0.00     0.089 A 
HETATM    8  C10 UNK     1      18.741   0.784  34.735  1.00  0.00     0.025 A 
HETATM    9  C11 UNK     1      18.206   2.047  34.996  1.00  0.00    -0.061 A 
HETATM   10  C12 UNK     1      17.587   1.334  37.223  1.00  0.00     0.039 A 
HETATM   11  C13 UNK     1      17.630   2.321  36.237  1.00  0.00     0.009 A 
HETATM   12  C14 UNK     1      18.249   3.106  33.947  1.00  0.00     0.048 C 
ENDROOT
BRANCH   3  13
HETATM   13  C1  UNK     1      19.702  -3.890  36.386  1.00  0.00     0.322 C 
HETATM   14  S1  UNK     1      21.043  -4.218  37.571  1.00  0.00    -0.126 SA
HETATM   15  C3  UNK     1      20.425  -5.869  37.976  1.00  0.00     0.123 C 
HETATM   16  C2  UNK     1      19.449  -6.176  36.849  1.00  0.00     0.328 C 
HETATM   17  N1  UNK     1      18.694  -4.948  36.557  1.00  0.00     0.117 N 
HETATM   18  H5  UNK     1      18.121  -4.727  37.372  1.00  0.00     0.319 HD
BRANCH  16  19
HETATM   19  C7  UNK     1      18.458  -7.221  37.246  1.00  0.00     0.175 C 
HETATM   20  O4  UNK     1      18.765  -8.393  37.404  1.00  0.00    -0.648 OA
BRANCH  19  21
HETATM   21  O2  UNK     1      17.211  -6.715  37.406  1.00  0.00    -0.775 OA
HETATM   22  H13 UNK     1      16.619  -6.959  36.664  1.00  0.00     0.167 HD
ENDBRANCH  19  21
ENDBRANCH  16  19
ENDBRANCH   3  13
TORSDOF 3
ENDMDL
MODEL 8
REMARK VINA RESULT:      -7.4      9.706     14.048
REMARK  3 active torsions:
REMARK  status: ('A' for Active; 'I' for Inactive)
REMARK    1  A    between atoms: C7_13  and  O2_3 
REMARK    2  A    between atoms: C1_7  and  C4_10 
REMARK    3  A    between atoms: C2_8  and  C7_13 
ROOT
HETATM    1  O1  UNK     1      22.356 -11.447  35.467  1.00  0.00    -0.321 OA
HETATM    2  O3  UNK     1      22.466  -7.747  37.185  1.00  0.00    -0.287 OA
HETATM    3  C4  UNK     1      21.180  -9.425  36.103  1.00  0.00     0.058 A 
HETATM    4  C5  UNK     1      22.430  -8.857  36.668  1.00  0.00     0.196 A 
HETATM    5  C6  UNK     1      23.633  -9.704  36.575  1.00  0.00     0.049 A 
HETATM    6  C8  UNK     1      21.244 -10.647  35.561  1.00  0.00     0.156 A 
HETATM    7  C9  UNK     1      23.533 -10.960  35.976  1.00  0.00     0.089 A 
HETATM    8  C10 UNK     1      24.859  -9.260  37.077  1.00  0.00     0.025 A 
HETATM    9  C11 UNK     1      25.983 -10.080  36.977  1.00  0.00    -0.061 A 
HETATM   10  C12 UNK     1      24.659 -11.779  35.878  1.00  0.00     0.039 A 
HETATM   11  C13 UNK     1      25.883 -11.337  36.379  1.00  0.00     0.009 A 
HETATM   12  C14 UNK     1      27.296  -9.614  37.511  1.00  0.00     0.048 C 
ENDROOT
BRANCH   3  13
HETATM   13  C1  UNK     1      19.934  -8.608  36.171  1.00  0.00     0.322 C 
HETATM   14  S1  UNK     1      19.179  -8.741  37.821  1.00  0.00    -0.126 SA
HETATM   15  C3  UNK     1      18.871  -6.963  37.940  1.00  0.00     0.123 C 
HETATM   16  C2  UNK     1      19.022  -6.472  36.508  1.00  0.00     0.328 C 
HETATM   17  N1  UNK     1      20.163  -7.179  35.906  1.00  0.00     0.117 N 
HETATM   18  H5  UNK     1      21.010  -6.886  36.393  1.00  0.00     0.319 HD
BRANCH  16  19
HETATM   19  C7  UNK     1      19.327  -5.011  36.453  1.00  0.00     0.175 C 
HETATM   20  O4  UNK     1      20.451  -4.581  36.239  1.00  0.00    -0.648 OA
BRANCH  19  21
HETATM   21  O2  UNK     1      18.229  -4.247  36.665  1.00  0.00    -0.775 OA
HETATM   22  H13 UNK     1      18.443  -3.426  37.159  1.00  0.00     0.167 HD
ENDBRANCH  19  21
ENDBRANCH  16  19
ENDBRANCH   3  13
TORSDOF 3
ENDMDL
MODEL 9
REMARK VINA RESULT:      -7.3      3.182      6.862
REMARK  3 active torsions:
REMARK  status: ('A' for Active; 'I' for Inactive)
REMARK    1  A    between atoms: C7_13  and  O2_3 
REMARK    2  A    between atoms: C1_7  and  C4_10 
REMARK    3  A    between atoms: C2_8  and  C7_13 
ROOT
HETATM    1  O1  UNK     1      18.587   1.576  31.270  1.00  0.00    -0.321 OA
HETATM    2  O3  UNK     1      18.166   3.538  34.823  1.00  0.00    -0.287 OA
HETATM    3  C4  UNK     1      18.342   3.674  32.459  1.00  0.00     0.058 A 
HETATM    4  C5  UNK     1      18.294   2.952  33.756  1.00  0.00     0.196 A 
HETATM    5  C6  UNK     1      18.406   1.483  33.689  1.00  0.00     0.049 A 
HETATM    6  C8  UNK     1      18.481   2.943  31.346  1.00  0.00     0.156 A 
HETATM    7  C9  UNK     1      18.548   0.869  32.445  1.00  0.00     0.089 A 
HETATM    8  C10 UNK     1      18.373   0.713  34.854  1.00  0.00     0.025 A 
HETATM    9  C11 UNK     1      18.481  -0.676  34.766  1.00  0.00    -0.061 A 
HETATM   10  C12 UNK     1      18.656  -0.520  32.360  1.00  0.00     0.039 A 
HETATM   11  C13 UNK     1      18.622  -1.290  33.522  1.00  0.00     0.009 A 
HETATM   12  C14 UNK     1      18.445  -1.506  36.005  1.00  0.00     0.048 C 
ENDROOT
BRANCH   3  13
HETATM   13  C1  UNK     1      18.232   5.162  32.470  1.00  0.00     0.322 C 
HETATM   14  S1  UNK     1      19.084   5.871  31.027  1.00  0.00    -0.126 SA
HETATM   15  C3  UNK     1      17.732   7.014  30.657  1.00  0.00     0.123 C 
HETATM   16  C2  UNK     1      16.903   7.020  31.934  1.00  0.00     0.328 C 
HETATM   17  N1  UNK     1      16.841   5.640  32.439  1.00  0.00     0.117 N 
HETATM   18  H5  UNK     1      16.316   5.080  31.767  1.00  0.00     0.319 HD
BRANCH  16  19
HETATM   19  C7  UNK     1      15.500   7.462  31.680  1.00  0.00     0.175 C 
HETATM   20  O4  UNK     1      14.537   6.730  31.856  1.00  0.00    -0.648 OA
BRANCH  19  21
HETATM   21  O2  UNK     1      15.434   8.743  31.242  1.00  0.00    -0.775 OA
HETATM   22  H13 UNK     1      14.860   8.831  30.452  1.00  0.00     0.167 HD
ENDBRANCH  19  21
ENDBRANCH  16  19
ENDBRANCH   3  13
TORSDOF 3
ENDMDL
MODEL 10
REMARK VINA RESULT:      -7.3     22.701     24.707
REMARK  3 active torsions:
REMARK  status: ('A' for Active; 'I' for Inactive)
REMARK    1  A    between atoms: C7_13  and  O2_3 
REMARK    2  A    between atoms: C1_7  and  C4_10 
REMARK    3  A    between atoms: C2_8  and  C7_13 
ROOT
HETATM    1  O1  UNK     1      15.941   5.485   9.727  1.00  0.00    -0.321 OA
HETATM    2  O3  UNK     1      12.938   8.001   8.587  1.00  0.00    -0.287 OA
HETATM    3  C4  UNK     1      13.709   5.767   8.824  1.00  0.00     0.058 A 
HETATM    4  C5  UNK     1      13.838   7.244   8.927  1.00  0.00     0.196 A 
HETATM    5  C6  UNK     1      15.113   7.752   9.466  1.00  0.00     0.049 A 
HETATM    6  C8  UNK     1      14.749   5.025   9.224  1.00  0.00     0.156 A 
HETATM    7  C9  UNK     1      16.102   6.842   9.838  1.00  0.00     0.089 A 
HETATM    8  C10 UNK     1      15.332   9.125   9.601  1.00  0.00     0.025 A 
HETATM    9  C11 UNK     1      16.547   9.582  10.113  1.00  0.00    -0.061 A 
HETATM   10  C12 UNK     1      17.316   7.302  10.351  1.00  0.00     0.039 A 
HETATM   11  C13 UNK     1      17.537   8.672  10.487  1.00  0.00     0.009 A 
HETATM   12  C14 UNK     1      16.789  11.046  10.263  1.00  0.00     0.048 C 
ENDROOT
BRANCH   3  13
HETATM   13  C1  UNK     1      12.439   5.201   8.286  1.00  0.00     0.322 C 
HETATM   14  S1  UNK     1      11.145   5.219   9.564  1.00  0.00    -0.126 SA
HETATM   15  C3  UNK     1       9.887   5.858   8.433  1.00  0.00     0.123 C 
HETATM   16  C2  UNK     1      10.487   5.622   7.054  1.00  0.00     0.328 C 
HETATM   17  N1  UNK     1      11.921   5.940   7.124  1.00  0.00     0.117 N 
HETATM   18  H5  UNK     1      12.015   6.941   7.303  1.00  0.00     0.319 HD
BRANCH  16  19
HETATM   19  C7  UNK     1       9.883   6.523   6.027  1.00  0.00     0.175 C 
HETATM   20  O4  UNK     1       8.678   6.703   5.937  1.00  0.00    -0.648 OA
BRANCH  19  21
HETATM   21  O2  UNK     1      10.817   7.099   5.233  1.00  0.00    -0.775 OA
HETATM   22  H13 UNK     1      10.946   6.601   4.398  1.00  0.00     0.167 HD
ENDBRANCH  19  21
ENDBRANCH  16  19
ENDBRANCH   3  13
TORSDOF 3
ENDMDL
