MODEL 1
REMARK VINA RESULT:      -7.7      0.000      0.000
REMARK  6 active torsions:
REMARK  status: ('A' for Active; 'I' for Inactive)
REMARK    1  A    between atoms: C1_9  and  O1_6 
REMARK    2  A    between atoms: C4_12  and  O1_6 
REMARK    3  A    between atoms: C3_11  and  O2_7 
REMARK    4  A    between atoms: C2_10  and  C9_17 
REMARK    5  A    between atoms: C4_12  and  C6_14 
REMARK    6  A    between atoms: C10_18  and  C11_19 
ROOT
HETATM    1  N1  UNK     1      27.583 -10.593  39.571  1.00  0.00    -0.191 NA
HETATM    2  C9  UNK     1      27.429  -8.580  36.775  1.00  0.00     0.036 C 
HETATM    3  C10 UNK     1      26.653  -9.500  37.406  1.00  0.00     0.057 C 
HETATM    4  C23 UNK     1      27.176 -10.101  38.603  1.00  0.00     0.100 C 
ENDROOT
BRANCH   3   5
HETATM    5  C11 UNK     1      25.331  -9.900  36.938  1.00  0.00     0.006 A 
HETATM    6  C16 UNK     1      24.183  -9.166  37.236  1.00  0.00     0.047 A 
HETATM    7 Cl2  UNK     1      24.244  -7.723  38.186  1.00  0.00    -0.083 Cl
HETATM    8  C19 UNK     1      22.942  -9.592  36.765  1.00  0.00     0.048 A 
HETATM    9  C21 UNK     1      22.848 -10.751  35.994  1.00  0.00     0.035 A 
HETATM   10  C20 UNK     1      23.996 -11.485  35.696  1.00  0.00     0.025 A 
HETATM   11 Cl4  UNK     1      21.316 -11.276  35.412  1.00  0.00    -0.084 Cl
HETATM   12  C17 UNK     1      25.237 -11.060  36.167  1.00  0.00     0.016 A 
ENDBRANCH   3   5
BRANCH   2  13
HETATM   13  C2  UNK     1      28.762  -8.138  37.209  1.00  0.00    -0.015 A 
HETATM   14  C5  UNK     1      29.850  -8.890  36.782  1.00  0.00     0.052 A 
HETATM   15  C3  UNK     1      31.138  -8.516  37.164  1.00  0.00     0.102 A 
HETATM   16  C1  UNK     1      31.328  -7.394  37.971  1.00  0.00     0.103 A 
HETATM   17  C7  UNK     1      30.229  -6.645  38.395  1.00  0.00     0.059 A 
HETATM   18  C8  UNK     1      28.942  -7.019  38.013  1.00  0.00     0.024 A 
HETATM   19 Br1  UNK     1      27.490  -5.957  38.625  1.00  0.00    -0.050 Br
BRANCH  15  20
HETATM   20  O2  UNK     1      32.203  -9.254  36.743  1.00  0.00    -0.353 OA
HETATM   21  C22 UNK     1      32.532  -9.185  35.358  1.00  0.00     0.210 C 
ENDBRANCH  15  20
BRANCH  16  22
HETATM   22  O1  UNK     1      32.581  -7.019  38.351  1.00  0.00    -0.344 OA
BRANCH  22  23
HETATM   23  C4  UNK     1      33.029  -5.734  37.925  1.00  0.00     0.216 C 
BRANCH  23  24
HETATM   24  C6  UNK     1      33.733  -5.871  36.607  1.00  0.00    -0.012 A 
HETATM   25  C12 UNK     1      33.096  -5.566  35.408  1.00  0.00     0.044 A 
HETATM   26 Cl1  UNK     1      31.460  -5.015  35.372  1.00  0.00    -0.084 Cl
HETATM   27  C14 UNK     1      33.783  -5.706  34.203  1.00  0.00     0.048 A 
HETATM   28  C18 UNK     1      35.105  -6.150  34.201  1.00  0.00     0.035 A 
HETATM   29  C15 UNK     1      35.740  -6.454  35.405  1.00  0.00     0.024 A 
HETATM   30 Cl3  UNK     1      35.955  -6.322  32.714  1.00  0.00    -0.084 Cl
HETATM   31  C13 UNK     1      35.052  -6.315  36.611  1.00  0.00     0.013 A 
ENDBRANCH  23  24
ENDBRANCH  22  23
ENDBRANCH  16  22
ENDBRANCH   2  13
TORSDOF 6
ENDMDL
MODEL 2
REMARK VINA RESULT:      -7.6     11.954     14.556
REMARK  6 active torsions:
REMARK  status: ('A' for Active; 'I' for Inactive)
REMARK    1  A    between atoms: C1_9  and  O1_6 
REMARK    2  A    between atoms: C4_12  and  O1_6 
REMARK    3  A    between atoms: C3_11  and  O2_7 
REMARK    4  A    between atoms: C2_10  and  C9_17 
REMARK    5  A    between atoms: C4_12  and  C6_14 
REMARK    6  A    between atoms: C10_18  and  C11_19 
ROOT
HETATM    1  N1  UNK     1      22.075  -1.785  35.302  1.00  0.00    -0.191 NA
HETATM    2  C9  UNK     1      18.864  -2.591  36.268  1.00  0.00     0.036 C 
HETATM    3  C10 UNK     1      20.120  -3.090  36.409  1.00  0.00     0.057 C 
HETATM    4  C23 UNK     1      21.197  -2.362  35.792  1.00  0.00     0.100 C 
ENDROOT
BRANCH   3   5
HETATM    5  C11 UNK     1      20.429  -4.307  37.150  1.00  0.00     0.006 A 
HETATM    6  C16 UNK     1      19.535  -5.375  37.232  1.00  0.00     0.047 A 
HETATM    7 Cl2  UNK     1      17.989  -5.332  36.458  1.00  0.00    -0.083 Cl
HETATM    8  C19 UNK     1      19.878  -6.517  37.954  1.00  0.00     0.048 A 
HETATM    9  C21 UNK     1      21.115  -6.594  38.593  1.00  0.00     0.035 A 
HETATM   10  C20 UNK     1      22.010  -5.525  38.512  1.00  0.00     0.025 A 
HETATM   11 Cl4  UNK     1      21.540  -8.003  39.484  1.00  0.00    -0.084 Cl
HETATM   12  C17 UNK     1      21.666  -4.383  37.790  1.00  0.00     0.016 A 
ENDBRANCH   3   5
BRANCH   2  13
HETATM   13  C2  UNK     1      18.503  -1.367  35.539  1.00  0.00    -0.015 A 
HETATM   14  C5  UNK     1      18.655  -1.382  34.158  1.00  0.00     0.052 A 
HETATM   15  C3  UNK     1      18.327  -0.248  33.417  1.00  0.00     0.102 A 
HETATM   16  C1  UNK     1      17.850   0.894  34.062  1.00  0.00     0.103 A 
HETATM   17  C7  UNK     1      17.700   0.899  35.449  1.00  0.00     0.059 A 
HETATM   18  C8  UNK     1      18.028  -0.235  36.191  1.00  0.00     0.024 A 
HETATM   19 Br1  UNK     1      17.800  -0.161  38.076  1.00  0.00    -0.050 Br
BRANCH  15  20
HETATM   20  O2  UNK     1      18.477  -0.265  32.063  1.00  0.00    -0.353 OA
HETATM   21  C22 UNK     1      19.601  -0.973  31.545  1.00  0.00     0.210 C 
ENDBRANCH  15  20
BRANCH  16  22
HETATM   22  O1  UNK     1      17.526   2.008  33.349  1.00  0.00    -0.344 OA
BRANCH  22  23
HETATM   23  C4  UNK     1      18.579   2.645  32.629  1.00  0.00     0.216 C 
BRANCH  23  24
HETATM   24  C6  UNK     1      18.371   4.130  32.669  1.00  0.00    -0.012 A 
HETATM   25  C12 UNK     1      18.520   4.915  31.529  1.00  0.00     0.044 A 
HETATM   26 Cl1  UNK     1      18.954   4.223  30.009  1.00  0.00    -0.084 Cl
HETATM   27  C14 UNK     1      18.319   6.293  31.605  1.00  0.00     0.048 A 
HETATM   28  C18 UNK     1      17.968   6.881  32.821  1.00  0.00     0.035 A 
HETATM   29  C15 UNK     1      17.819   6.090  33.960  1.00  0.00     0.024 A 
HETATM   30 Cl3  UNK     1      17.718   8.581  32.916  1.00  0.00    -0.084 Cl
HETATM   31  C13 UNK     1      18.022   4.712  33.884  1.00  0.00     0.013 A 
ENDBRANCH  23  24
ENDBRANCH  22  23
ENDBRANCH  16  22
ENDBRANCH   2  13
TORSDOF 6
ENDMDL
MODEL 3
REMARK VINA RESULT:      -7.6      2.709      9.618
REMARK  6 active torsions:
REMARK  status: ('A' for Active; 'I' for Inactive)
REMARK    1  A    between atoms: C1_9  and  O1_6 
REMARK    2  A    between atoms: C4_12  and  O1_6 
REMARK    3  A    between atoms: C3_11  and  O2_7 
REMARK    4  A    between atoms: C2_10  and  C9_17 
REMARK    5  A    between atoms: C4_12  and  C6_14 
REMARK    6  A    between atoms: C10_18  and  C11_19 
ROOT
HETATM    1  N1  UNK     1      29.424  -6.375  34.695  1.00  0.00    -0.191 NA
HETATM    2  C9  UNK     1      30.694  -7.734  37.599  1.00  0.00     0.036 C 
HETATM    3  C10 UNK     1      31.161  -7.234  36.426  1.00  0.00     0.057 C 
HETATM    4  C23 UNK     1      30.193  -6.761  35.473  1.00  0.00     0.100 C 
ENDROOT
BRANCH   3   5
HETATM    5  C11 UNK     1      32.578  -7.148  36.089  1.00  0.00     0.006 A 
HETATM    6  C16 UNK     1      33.461  -6.331  36.795  1.00  0.00     0.047 A 
HETATM    7 Cl2  UNK     1      32.939  -5.357  38.125  1.00  0.00    -0.083 Cl
HETATM    8  C19 UNK     1      34.807  -6.284  36.433  1.00  0.00     0.048 A 
HETATM    9  C21 UNK     1      35.271  -7.054  35.366  1.00  0.00     0.035 A 
HETATM   10  C20 UNK     1      34.387  -7.871  34.660  1.00  0.00     0.025 A 
HETATM   11 Cl4  UNK     1      36.931  -6.997  34.919  1.00  0.00    -0.084 Cl
HETATM   12  C17 UNK     1      33.041  -7.918  35.022  1.00  0.00     0.016 A 
ENDBRANCH   3   5
BRANCH   2  13
HETATM   13  C2  UNK     1      29.281  -7.835  37.988  1.00  0.00    -0.015 A 
HETATM   14  C5  UNK     1      28.645  -9.049  37.758  1.00  0.00     0.052 A 
HETATM   15  C3  UNK     1      27.304  -9.201  38.107  1.00  0.00     0.102 A 
HETATM   16  C1  UNK     1      26.608  -8.138  38.684  1.00  0.00     0.103 A 
HETATM   17  C7  UNK     1      27.255  -6.923  38.911  1.00  0.00     0.059 A 
HETATM   18  C8  UNK     1      28.596  -6.771  38.562  1.00  0.00     0.024 A 
HETATM   19 Br1  UNK     1      29.417  -5.091  38.898  1.00  0.00    -0.050 Br
BRANCH  15  20
HETATM   20  O2  UNK     1      26.683 -10.393  37.881  1.00  0.00    -0.353 OA
HETATM   21  C22 UNK     1      26.207 -10.634  36.559  1.00  0.00     0.210 C 
ENDBRANCH  15  20
BRANCH  16  22
HETATM   22  O1  UNK     1      25.298  -8.274  39.029  1.00  0.00    -0.344 OA
BRANCH  22  23
HETATM   23  C4  UNK     1      24.348  -7.519  38.281  1.00  0.00     0.216 C 
BRANCH  23  24
HETATM   24  C6  UNK     1      23.125  -8.357  38.052  1.00  0.00    -0.012 A 
HETATM   25  C12 UNK     1      22.080  -8.383  38.970  1.00  0.00     0.044 A 
HETATM   26 Cl1  UNK     1      22.134  -7.454  40.424  1.00  0.00    -0.084 Cl
HETATM   27  C14 UNK     1      20.959  -9.175  38.722  1.00  0.00     0.048 A 
HETATM   28  C18 UNK     1      20.887  -9.937  37.556  1.00  0.00     0.035 A 
HETATM   29  C15 UNK     1      21.937  -9.908  36.639  1.00  0.00     0.024 A 
HETATM   30 Cl3  UNK     1      19.504 -10.914  37.249  1.00  0.00    -0.084 Cl
HETATM   31  C13 UNK     1      23.058  -9.117  36.887  1.00  0.00     0.013 A 
ENDBRANCH  23  24
ENDBRANCH  22  23
ENDBRANCH  16  22
ENDBRANCH   2  13
TORSDOF 6
ENDMDL
MODEL 4
REMARK VINA RESULT:      -7.6     11.473     14.970
REMARK  6 active torsions:
REMARK  status: ('A' for Active; 'I' for Inactive)
REMARK    1  A    between atoms: C1_9  and  O1_6 
REMARK    2  A    between atoms: C4_12  and  O1_6 
REMARK    3  A    between atoms: C3_11  and  O2_7 
REMARK    4  A    between atoms: C2_10  and  C9_17 
REMARK    5  A    between atoms: C4_12  and  C6_14 
REMARK    6  A    between atoms: C10_18  and  C11_19 
ROOT
HETATM    1  N1  UNK     1      20.142   2.714  36.447  1.00  0.00    -0.191 NA
HETATM    2  C9  UNK     1      18.022   1.223  34.172  1.00  0.00     0.036 C 
HETATM    3  C10 UNK     1      18.518   2.460  34.435  1.00  0.00     0.057 C 
HETATM    4  C23 UNK     1      19.416   2.592  35.551  1.00  0.00     0.100 C 
ENDROOT
BRANCH   3   5
HETATM    5  C11 UNK     1      18.195   3.645  33.649  1.00  0.00     0.006 A 
HETATM    6  C16 UNK     1      18.184   3.632  32.254  1.00  0.00     0.047 A 
HETATM    7 Cl2  UNK     1      18.555   2.205  31.352  1.00  0.00    -0.083 Cl
HETATM    8  C19 UNK     1      17.868   4.793  31.549  1.00  0.00     0.048 A 
HETATM    9  C21 UNK     1      17.563   5.967  32.238  1.00  0.00     0.035 A 
HETATM   10  C20 UNK     1      17.574   5.980  33.633  1.00  0.00     0.025 A 
HETATM   11 Cl4  UNK     1      17.173   7.399  31.369  1.00  0.00    -0.084 Cl
HETATM   12  C17 UNK     1      17.889   4.819  34.338  1.00  0.00     0.016 A 
ENDBRANCH   3   5
BRANCH   2  13
HETATM   13  C2  UNK     1      18.322  -0.001  34.928  1.00  0.00    -0.015 A 
HETATM   14  C5  UNK     1      19.288  -0.851  34.402  1.00  0.00     0.052 A 
HETATM   15  C3  UNK     1      19.612  -2.027  35.077  1.00  0.00     0.102 A 
HETATM   16  C1  UNK     1      18.968  -2.345  36.273  1.00  0.00     0.103 A 
HETATM   17  C7  UNK     1      17.999  -1.486  36.794  1.00  0.00     0.059 A 
HETATM   18  C8  UNK     1      17.675  -0.310  36.118  1.00  0.00     0.024 A 
HETATM   19 Br1  UNK     1      16.348   0.816  36.881  1.00  0.00    -0.050 Br
BRANCH  15  20
HETATM   20  O2  UNK     1      20.559  -2.858  34.559  1.00  0.00    -0.353 OA
HETATM   21  C22 UNK     1      20.831  -2.741  33.165  1.00  0.00     0.210 C 
ENDBRANCH  15  20
BRANCH  16  22
HETATM   22  O1  UNK     1      19.276  -3.490  36.942  1.00  0.00    -0.344 OA
BRANCH  22  23
HETATM   23  C4  UNK     1      18.827  -4.717  36.368  1.00  0.00     0.216 C 
BRANCH  23  24
HETATM   24  C6  UNK     1      19.396  -5.862  37.151  1.00  0.00    -0.012 A 
HETATM   25  C12 UNK     1      19.027  -7.178  36.888  1.00  0.00     0.044 A 
HETATM   26 Cl1  UNK     1      17.892  -7.563  35.646  1.00  0.00    -0.084 Cl
HETATM   27  C14 UNK     1      19.579  -8.216  37.638  1.00  0.00     0.048 A 
HETATM   28  C18 UNK     1      20.499  -7.935  38.648  1.00  0.00     0.035 A 
HETATM   29  C15 UNK     1      20.866  -6.615  38.909  1.00  0.00     0.024 A 
HETATM   30 Cl3  UNK     1      21.181  -9.216  39.573  1.00  0.00    -0.084 Cl
HETATM   31  C13 UNK     1      20.314  -5.577  38.160  1.00  0.00     0.013 A 
ENDBRANCH  23  24
ENDBRANCH  22  23
ENDBRANCH  16  22
ENDBRANCH   2  13
TORSDOF 6
ENDMDL
MODEL 5
REMARK VINA RESULT:      -7.5      3.401      9.768
REMARK  6 active torsions:
REMARK  status: ('A' for Active; 'I' for Inactive)
REMARK    1  A    between atoms: C1_9  and  O1_6 
REMARK    2  A    between atoms: C4_12  and  O1_6 
REMARK    3  A    between atoms: C3_11  and  O2_7 
REMARK    4  A    between atoms: C2_10  and  C9_17 
REMARK    5  A    between atoms: C4_12  and  C6_14 
REMARK    6  A    between atoms: C10_18  and  C11_19 
ROOT
HETATM    1  N1  UNK     1      28.950  -6.287  34.402  1.00  0.00    -0.191 NA
HETATM    2  C9  UNK     1      30.137  -7.123  37.529  1.00  0.00     0.036 C 
HETATM    3  C10 UNK     1      30.638  -6.811  36.306  1.00  0.00     0.057 C 
HETATM    4  C23 UNK     1      29.696  -6.523  35.257  1.00  0.00     0.100 C 
ENDROOT
BRANCH   3   5
HETATM    5  C11 UNK     1      32.064  -6.747  36.008  1.00  0.00     0.006 A 
HETATM    6  C16 UNK     1      32.807  -5.578  36.173  1.00  0.00     0.047 A 
HETATM    7 Cl2  UNK     1      32.088  -4.114  36.746  1.00  0.00    -0.083 Cl
HETATM    8  C19 UNK     1      34.169  -5.570  35.873  1.00  0.00     0.048 A 
HETATM    9  C21 UNK     1      34.788  -6.730  35.408  1.00  0.00     0.035 A 
HETATM   10  C20 UNK     1      34.045  -7.899  35.242  1.00  0.00     0.025 A 
HETATM   11 Cl4  UNK     1      36.468  -6.721  35.038  1.00  0.00    -0.084 Cl
HETATM   12  C17 UNK     1      32.683  -7.908  35.542  1.00  0.00     0.016 A 
ENDBRANCH   3   5
BRANCH   2  13
HETATM   13  C2  UNK     1      28.712  -7.193  37.882  1.00  0.00    -0.015 A 
HETATM   14  C5  UNK     1      28.059  -8.397  37.647  1.00  0.00     0.052 A 
HETATM   15  C3  UNK     1      26.706  -8.519  37.963  1.00  0.00     0.102 A 
HETATM   16  C1  UNK     1      26.017  -7.437  38.512  1.00  0.00     0.103 A 
HETATM   17  C7  UNK     1      26.682  -6.233  38.745  1.00  0.00     0.059 A 
HETATM   18  C8  UNK     1      28.034  -6.110  38.429  1.00  0.00     0.024 A 
HETATM   19 Br1  UNK     1      28.879  -4.443  38.771  1.00  0.00    -0.050 Br
BRANCH  15  20
HETATM   20  O2  UNK     1      26.068  -9.700  37.732  1.00  0.00    -0.353 OA
HETATM   21  C22 UNK     1      26.335 -10.348  36.490  1.00  0.00     0.210 C 
ENDBRANCH  15  20
BRANCH  16  22
HETATM   22  O1  UNK     1      24.696  -7.544  38.824  1.00  0.00    -0.344 OA
BRANCH  22  23
HETATM   23  C4  UNK     1      24.018  -6.346  39.196  1.00  0.00     0.216 C 
BRANCH  23  24
HETATM   24  C6  UNK     1      22.568  -6.470  38.835  1.00  0.00    -0.012 A 
HETATM   25  C12 UNK     1      21.781  -7.504  39.334  1.00  0.00     0.044 A 
HETATM   26 Cl1  UNK     1      22.433  -8.702  40.392  1.00  0.00    -0.084 Cl
HETATM   27  C14 UNK     1      20.436  -7.586  38.975  1.00  0.00     0.048 A 
HETATM   28  C18 UNK     1      19.882  -6.633  38.121  1.00  0.00     0.035 A 
HETATM   29  C15 UNK     1      20.674  -5.598  37.624  1.00  0.00     0.024 A 
HETATM   30 Cl3  UNK     1      18.221  -6.733  37.679  1.00  0.00    -0.084 Cl
HETATM   31  C13 UNK     1      22.019  -5.517  37.981  1.00  0.00     0.013 A 
ENDBRANCH  23  24
ENDBRANCH  22  23
ENDBRANCH  16  22
ENDBRANCH   2  13
TORSDOF 6
ENDMDL
MODEL 6
REMARK VINA RESULT:      -7.5      3.556     10.060
REMARK  6 active torsions:
REMARK  status: ('A' for Active; 'I' for Inactive)
REMARK    1  A    between atoms: C1_9  and  O1_6 
REMARK    2  A    between atoms: C4_12  and  O1_6 
REMARK    3  A    between atoms: C3_11  and  O2_7 
REMARK    4  A    between atoms: C2_10  and  C9_17 
REMARK    5  A    between atoms: C4_12  and  C6_14 
REMARK    6  A    between atoms: C10_18  and  C11_19 
ROOT
HETATM    1  N1  UNK     1      27.506  -6.886  34.914  1.00  0.00    -0.191 NA
HETATM    2  C9  UNK     1      27.924  -9.224  37.414  1.00  0.00     0.036 C 
HETATM    3  C10 UNK     1      28.662  -8.277  36.779  1.00  0.00     0.057 C 
HETATM    4  C23 UNK     1      28.015  -7.512  35.748  1.00  0.00     0.100 C 
ENDROOT
BRANCH   3   5
HETATM    5  C11 UNK     1      30.058  -7.996  37.091  1.00  0.00     0.006 A 
HETATM    6  C16 UNK     1      30.432  -7.060  38.055  1.00  0.00     0.047 A 
HETATM    7 Cl2  UNK     1      29.261  -6.161  38.955  1.00  0.00    -0.083 Cl
HETATM    8  C19 UNK     1      31.782  -6.828  38.315  1.00  0.00     0.048 A 
HETATM    9  C21 UNK     1      32.760  -7.532  37.612  1.00  0.00     0.035 A 
HETATM   10  C20 UNK     1      32.387  -8.468  36.647  1.00  0.00     0.025 A 
HETATM   11 Cl4  UNK     1      34.426  -7.247  37.933  1.00  0.00    -0.084 Cl
HETATM   12  C17 UNK     1      31.036  -8.700  36.387  1.00  0.00     0.016 A 
ENDBRANCH   3   5
BRANCH   2  13
HETATM   13  C2  UNK     1      26.514  -9.539  37.143  1.00  0.00    -0.015 A 
HETATM   14  C5  UNK     1      26.254 -10.662  36.367  1.00  0.00     0.052 A 
HETATM   15  C3  UNK     1      24.934 -11.008  36.078  1.00  0.00     0.102 A 
HETATM   16  C1  UNK     1      23.885 -10.229  36.568  1.00  0.00     0.103 A 
HETATM   17  C7  UNK     1      24.157  -9.104  37.348  1.00  0.00     0.059 A 
HETATM   18  C8  UNK     1      25.476  -8.758  37.636  1.00  0.00     0.024 A 
HETATM   19 Br1  UNK     1      25.777  -7.214  38.703  1.00  0.00    -0.050 Br
BRANCH  15  20
HETATM   20  O2  UNK     1      24.681 -12.109  35.317  1.00  0.00    -0.353 OA
HETATM   21  C22 UNK     1      24.645 -13.366  35.987  1.00  0.00     0.210 C 
ENDBRANCH  15  20
BRANCH  16  22
HETATM   22  O1  UNK     1      22.593 -10.557  36.293  1.00  0.00    -0.344 OA
BRANCH  22  23
HETATM   23  C4  UNK     1      22.009  -9.974  35.130  1.00  0.00     0.216 C 
BRANCH  23  24
HETATM   24  C6  UNK     1      20.889  -9.067  35.545  1.00  0.00    -0.012 A 
HETATM   25  C12 UNK     1      19.960  -9.452  36.508  1.00  0.00     0.044 A 
HETATM   26 Cl1  UNK     1      20.046 -10.996  37.275  1.00  0.00    -0.084 Cl
HETATM   27  C14 UNK     1      18.932  -8.581  36.867  1.00  0.00     0.048 A 
HETATM   28  C18 UNK     1      18.838  -7.327  36.264  1.00  0.00     0.035 A 
HETATM   29  C15 UNK     1      19.770  -6.945  35.300  1.00  0.00     0.024 A 
HETATM   30 Cl3  UNK     1      17.570  -6.251  36.708  1.00  0.00    -0.084 Cl
HETATM   31  C13 UNK     1      20.798  -7.816  34.940  1.00  0.00     0.013 A 
ENDBRANCH  23  24
ENDBRANCH  22  23
ENDBRANCH  16  22
ENDBRANCH   2  13
TORSDOF 6
ENDMDL
MODEL 7
REMARK VINA RESULT:      -7.5      3.288      5.082
REMARK  6 active torsions:
REMARK  status: ('A' for Active; 'I' for Inactive)
REMARK    1  A    between atoms: C1_9  and  O1_6 
REMARK    2  A    between atoms: C4_12  and  O1_6 
REMARK    3  A    between atoms: C3_11  and  O2_7 
REMARK    4  A    between atoms: C2_10  and  C9_17 
REMARK    5  A    between atoms: C4_12  and  C6_14 
REMARK    6  A    between atoms: C10_18  and  C11_19 
ROOT
HETATM    1  N1  UNK     1      22.705  -8.253  40.080  1.00  0.00    -0.191 NA
HETATM    2  C9  UNK     1      23.444  -8.831  36.761  1.00  0.00     0.036 C 
HETATM    3  C10 UNK     1      22.360  -8.521  37.519  1.00  0.00     0.057 C 
HETATM    4  C23 UNK     1      22.559  -8.375  38.936  1.00  0.00     0.100 C 
ENDROOT
BRANCH   3   5
HETATM    5  C11 UNK     1      21.022  -8.324  36.973  1.00  0.00     0.006 A 
HETATM    6  C16 UNK     1      20.028  -9.298  37.072  1.00  0.00     0.047 A 
HETATM    7 Cl2  UNK     1      20.312 -10.815  37.851  1.00  0.00    -0.083 Cl
HETATM    8  C19 UNK     1      18.764  -9.061  36.533  1.00  0.00     0.048 A 
HETATM    9  C21 UNK     1      18.492  -7.850  35.897  1.00  0.00     0.035 A 
HETATM   10  C20 UNK     1      19.486  -6.876  35.797  1.00  0.00     0.025 A 
HETATM   11 Cl4  UNK     1      16.933  -7.556  35.232  1.00  0.00    -0.084 Cl
HETATM   12  C17 UNK     1      20.751  -7.113  36.336  1.00  0.00     0.016 A 
ENDBRANCH   3   5
BRANCH   2  13
HETATM   13  C2  UNK     1      24.812  -9.031  37.260  1.00  0.00    -0.015 A 
HETATM   14  C5  UNK     1      25.381  -7.992  37.985  1.00  0.00     0.052 A 
HETATM   15  C3  UNK     1      26.677  -8.127  38.483  1.00  0.00     0.102 A 
HETATM   16  C1  UNK     1      27.394  -9.302  38.251  1.00  0.00     0.103 A 
HETATM   17  C7  UNK     1      26.813 -10.341  37.523  1.00  0.00     0.059 A 
HETATM   18  C8  UNK     1      25.517 -10.205  37.025  1.00  0.00     0.024 A 
HETATM   19 Br1  UNK     1      24.787 -11.657  36.041  1.00  0.00    -0.050 Br
BRANCH  15  20
HETATM   20  O2  UNK     1      27.232  -7.107  39.193  1.00  0.00    -0.353 OA
HETATM   21  C22 UNK     1      27.217  -5.815  38.591  1.00  0.00     0.210 C 
ENDBRANCH  15  20
BRANCH  16  22
HETATM   22  O1  UNK     1      28.659  -9.447  38.732  1.00  0.00    -0.344 OA
BRANCH  22  23
HETATM   23  C4  UNK     1      29.719  -9.449  37.777  1.00  0.00     0.216 C 
BRANCH  23  24
HETATM   24  C6  UNK     1      30.145  -8.035  37.513  1.00  0.00    -0.012 A 
HETATM   25  C12 UNK     1      29.753  -7.361  36.360  1.00  0.00     0.044 A 
HETATM   26 Cl1  UNK     1      28.756  -8.117  35.170  1.00  0.00    -0.084 Cl
HETATM   27  C14 UNK     1      30.169  -6.047  36.150  1.00  0.00     0.048 A 
HETATM   28  C18 UNK     1      30.975  -5.411  37.094  1.00  0.00     0.035 A 
HETATM   29  C15 UNK     1      31.365  -6.090  38.248  1.00  0.00     0.024 A 
HETATM   30 Cl3  UNK     1      31.488  -3.789  36.836  1.00  0.00    -0.084 Cl
HETATM   31  C13 UNK     1      30.950  -7.405  38.458  1.00  0.00     0.013 A 
ENDBRANCH  23  24
ENDBRANCH  22  23
ENDBRANCH  16  22
ENDBRANCH   2  13
TORSDOF 6
ENDMDL
MODEL 8
REMARK VINA RESULT:      -7.5      2.881      9.492
REMARK  6 active torsions:
REMARK  status: ('A' for Active; 'I' for Inactive)
REMARK    1  A    between atoms: C1_9  and  O1_6 
REMARK    2  A    between atoms: C4_12  and  O1_6 
REMARK    3  A    between atoms: C3_11  and  O2_7 
REMARK    4  A    between atoms: C2_10  and  C9_17 
REMARK    5  A    between atoms: C4_12  and  C6_14 
REMARK    6  A    between atoms: C10_18  and  C11_19 
ROOT
HETATM    1  N1  UNK     1      31.625  -9.434  38.319  1.00  0.00    -0.191 NA
HETATM    2  C9  UNK     1      30.747  -7.375  35.696  1.00  0.00     0.036 C 
HETATM    3  C10 UNK     1      31.827  -8.089  36.105  1.00  0.00     0.057 C 
HETATM    4  C23 UNK     1      31.707  -8.830  37.332  1.00  0.00     0.100 C 
ENDROOT
BRANCH   3   5
HETATM    5  C11 UNK     1      33.085  -8.146  35.370  1.00  0.00     0.006 A 
HETATM    6  C16 UNK     1      34.124  -7.245  35.601  1.00  0.00     0.047 A 
HETATM    7 Cl2  UNK     1      33.995  -5.988  36.782  1.00  0.00    -0.083 Cl
HETATM    8  C19 UNK     1      35.307  -7.342  34.870  1.00  0.00     0.048 A 
HETATM    9  C21 UNK     1      35.453  -8.341  33.908  1.00  0.00     0.035 A 
HETATM   10  C20 UNK     1      34.414  -9.243  33.676  1.00  0.00     0.025 A 
HETATM   11 Cl4  UNK     1      36.913  -8.462  33.006  1.00  0.00    -0.084 Cl
HETATM   12  C17 UNK     1      33.231  -9.146  34.407  1.00  0.00     0.016 A 
ENDBRANCH   3   5
BRANCH   2  13
HETATM   13  C2  UNK     1      29.457  -7.291  36.395  1.00  0.00    -0.015 A 
HETATM   14  C5  UNK     1      29.312  -6.283  37.341  1.00  0.00     0.052 A 
HETATM   15  C3  UNK     1      28.109  -6.157  38.035  1.00  0.00     0.102 A 
HETATM   16  C1  UNK     1      27.060  -7.041  37.779  1.00  0.00     0.103 A 
HETATM   17  C7  UNK     1      27.215  -8.050  36.827  1.00  0.00     0.059 A 
HETATM   18  C8  UNK     1      28.418  -8.175  36.133  1.00  0.00     0.024 A 
HETATM   19 Br1  UNK     1      28.562  -9.571  34.851  1.00  0.00    -0.050 Br
BRANCH  15  20
HETATM   20  O2  UNK     1      27.970  -5.168  38.961  1.00  0.00    -0.353 OA
HETATM   21  C22 UNK     1      28.991  -4.174  39.005  1.00  0.00     0.210 C 
ENDBRANCH  15  20
BRANCH  16  22
HETATM   22  O1  UNK     1      25.881  -6.928  38.449  1.00  0.00    -0.344 OA
BRANCH  22  23
HETATM   23  C4  UNK     1      25.200  -8.139  38.772  1.00  0.00     0.216 C 
BRANCH  23  24
HETATM   24  C6  UNK     1      23.723  -7.927  38.621  1.00  0.00    -0.012 A 
HETATM   25  C12 UNK     1      22.993  -8.576  37.630  1.00  0.00     0.044 A 
HETATM   26 Cl1  UNK     1      23.748  -9.660  36.519  1.00  0.00    -0.084 Cl
HETATM   27  C14 UNK     1      21.620  -8.354  37.522  1.00  0.00     0.048 A 
HETATM   28  C18 UNK     1      20.983  -7.483  38.406  1.00  0.00     0.035 A 
HETATM   29  C15 UNK     1      21.718  -6.834  39.397  1.00  0.00     0.024 A 
HETATM   30 Cl3  UNK     1      19.289  -7.208  38.273  1.00  0.00    -0.084 Cl
HETATM   31  C13 UNK     1      23.091  -7.056  39.505  1.00  0.00     0.013 A 
ENDBRANCH  23  24
ENDBRANCH  22  23
ENDBRANCH  16  22
ENDBRANCH   2  13
TORSDOF 6
ENDMDL
MODEL 9
REMARK VINA RESULT:      -7.4      2.463      3.148
REMARK  6 active torsions:
REMARK  status: ('A' for Active; 'I' for Inactive)
REMARK    1  A    between atoms: C1_9  and  O1_6 
REMARK    2  A    between atoms: C4_12  and  O1_6 
REMARK    3  A    between atoms: C3_11  and  O2_7 
REMARK    4  A    between atoms: C2_10  and  C9_17 
REMARK    5  A    between atoms: C4_12  and  C6_14 
REMARK    6  A    between atoms: C10_18  and  C11_19 
ROOT
HETATM    1  N1  UNK     1      26.697  -5.786  38.981  1.00  0.00    -0.191 NA
HETATM    2  C9  UNK     1      26.148  -8.992  37.834  1.00  0.00     0.036 C 
HETATM    3  C10 UNK     1      25.419  -7.942  38.296  1.00  0.00     0.057 C 
HETATM    4  C23 UNK     1      26.134  -6.753  38.673  1.00  0.00     0.100 C 
ENDROOT
BRANCH   3   5
HETATM    5  C11 UNK     1      23.967  -7.958  38.421  1.00  0.00     0.006 A 
HETATM    6  C16 UNK     1      23.158  -8.742  37.598  1.00  0.00     0.047 A 
HETATM    7 Cl2  UNK     1      23.822  -9.756  36.365  1.00  0.00    -0.083 Cl
HETATM    8  C19 UNK     1      21.772  -8.721  37.758  1.00  0.00     0.048 A 
HETATM    9  C21 UNK     1      21.196  -7.918  38.741  1.00  0.00     0.035 A 
HETATM   10  C20 UNK     1      22.004  -7.133  39.564  1.00  0.00     0.025 A 
HETATM   11 Cl4  UNK     1      19.487  -7.892  38.940  1.00  0.00    -0.084 Cl
HETATM   12  C17 UNK     1      23.389  -7.154  39.404  1.00  0.00     0.016 A 
ENDBRANCH   3   5
BRANCH   2  13
HETATM   13  C2  UNK     1      27.609  -9.023  37.682  1.00  0.00    -0.015 A 
HETATM   14  C5  UNK     1      28.134  -8.532  36.492  1.00  0.00     0.052 A 
HETATM   15  C3  UNK     1      29.514  -8.538  36.295  1.00  0.00     0.102 A 
HETATM   16  C1  UNK     1      30.360  -9.034  37.288  1.00  0.00     0.103 A 
HETATM   17  C7  UNK     1      29.823  -9.523  38.479  1.00  0.00     0.059 A 
HETATM   18  C8  UNK     1      28.443  -9.518  38.677  1.00  0.00     0.024 A 
HETATM   19 Br1  UNK     1      27.778 -10.199  40.322  1.00  0.00    -0.050 Br
BRANCH  15  20
HETATM   20  O2  UNK     1      30.026  -8.056  35.128  1.00  0.00    -0.353 OA
HETATM   21  C22 UNK     1      29.673  -6.723  34.766  1.00  0.00     0.210 C 
ENDBRANCH  15  20
BRANCH  16  22
HETATM   22  O1  UNK     1      31.709  -9.044  37.107  1.00  0.00    -0.344 OA
BRANCH  22  23
HETATM   23  C4  UNK     1      32.481  -8.183  37.940  1.00  0.00     0.216 C 
BRANCH  23  24
HETATM   24  C6  UNK     1      32.940  -7.003  37.135  1.00  0.00    -0.012 A 
HETATM   25  C12 UNK     1      32.303  -5.769  37.227  1.00  0.00     0.044 A 
HETATM   26 Cl1  UNK     1      30.949  -5.529  38.270  1.00  0.00    -0.084 Cl
HETATM   27  C14 UNK     1      32.760  -4.695  36.462  1.00  0.00     0.048 A 
HETATM   28  C18 UNK     1      33.851  -4.860  35.610  1.00  0.00     0.035 A 
HETATM   29  C15 UNK     1      34.486  -6.098  35.521  1.00  0.00     0.024 A 
HETATM   30 Cl3  UNK     1      34.415  -3.535  34.667  1.00  0.00    -0.084 Cl
HETATM   31  C13 UNK     1      34.030  -7.172  36.285  1.00  0.00     0.013 A 
ENDBRANCH  23  24
ENDBRANCH  22  23
ENDBRANCH  16  22
ENDBRANCH   2  13
TORSDOF 6
ENDMDL
MODEL 10
REMARK VINA RESULT:      -7.3     34.463     36.795
REMARK  6 active torsions:
REMARK  status: ('A' for Active; 'I' for Inactive)
REMARK    1  A    between atoms: C1_9  and  O1_6 
REMARK    2  A    between atoms: C4_12  and  O1_6 
REMARK    3  A    between atoms: C3_11  and  O2_7 
REMARK    4  A    between atoms: C2_10  and  C9_17 
REMARK    5  A    between atoms: C4_12  and  C6_14 
REMARK    6  A    between atoms: C10_18  and  C11_19 
ROOT
HETATM    1  N1  UNK     1      16.673  12.645  11.594  1.00  0.00    -0.191 NA
HETATM    2  C9  UNK     1      18.034  10.390   9.368  1.00  0.00     0.036 C 
HETATM    3  C10 UNK     1      18.432  11.476  10.080  1.00  0.00     0.057 C 
HETATM    4  C23 UNK     1      17.452  12.118  10.915  1.00  0.00     0.100 C 
ENDROOT
BRANCH   3   5
HETATM    5  C11 UNK     1      19.787  12.015  10.047  1.00  0.00     0.006 A 
HETATM    6  C16 UNK     1      20.245  12.811   8.997  1.00  0.00     0.047 A 
HETATM    7 Cl2  UNK     1      19.235  13.219   7.654  1.00  0.00    -0.083 Cl
HETATM    8  C19 UNK     1      21.551  13.301   9.012  1.00  0.00     0.048 A 
HETATM    9  C21 UNK     1      22.398  12.995  10.077  1.00  0.00     0.035 A 
HETATM   10  C20 UNK     1      21.941  12.198  11.127  1.00  0.00     0.025 A 
HETATM   11 Cl4  UNK     1      24.009  13.600  10.096  1.00  0.00    -0.084 Cl
HETATM   12  C17 UNK     1      20.635  11.709  11.112  1.00  0.00     0.016 A 
ENDBRANCH   3   5
BRANCH   2  13
HETATM   13  C2  UNK     1      16.686   9.806   9.374  1.00  0.00    -0.015 A 
HETATM   14  C5  UNK     1      16.482   8.689  10.176  1.00  0.00     0.052 A 
HETATM   15  C3  UNK     1      15.222   8.093  10.219  1.00  0.00     0.102 A 
HETATM   16  C1  UNK     1      14.176   8.618   9.460  1.00  0.00     0.103 A 
HETATM   17  C7  UNK     1      14.390   9.740   8.658  1.00  0.00     0.059 A 
HETATM   18  C8  UNK     1      15.650  10.335   8.615  1.00  0.00     0.024 A 
HETATM   19 Br1  UNK     1      15.874  11.860   7.502  1.00  0.00    -0.050 Br
BRANCH  15  20
HETATM   20  O2  UNK     1      15.025   6.999  11.006  1.00  0.00    -0.353 OA
HETATM   21  C22 UNK     1      15.250   5.724  10.411  1.00  0.00     0.210 C 
ENDBRANCH  15  20
BRANCH  16  22
HETATM   22  O1  UNK     1      12.941   8.045   9.494  1.00  0.00    -0.344 OA
BRANCH  22  23
HETATM   23  C4  UNK     1      12.173   8.088   8.293  1.00  0.00     0.216 C 
BRANCH  23  24
HETATM   24  C6  UNK     1      10.717   7.986   8.637  1.00  0.00    -0.012 A 
HETATM   25  C12 UNK     1       9.893   7.037   8.039  1.00  0.00     0.044 A 
HETATM   26 Cl1  UNK     1      10.502   5.927   6.866  1.00  0.00    -0.084 Cl
HETATM   27  C14 UNK     1       8.544   6.973   8.386  1.00  0.00     0.048 A 
HETATM   28  C18 UNK     1       8.024   7.858   9.330  1.00  0.00     0.035 A 
HETATM   29  C15 UNK     1       8.853   8.807   9.928  1.00  0.00     0.024 A 
HETATM   30 Cl3  UNK     1       6.359   7.779   9.759  1.00  0.00    -0.084 Cl
HETATM   31  C13 UNK     1      10.202   8.871   9.580  1.00  0.00     0.013 A 
ENDBRANCH  23  24
ENDBRANCH  22  23
ENDBRANCH  16  22
ENDBRANCH   2  13
TORSDOF 6
ENDMDL
