MODEL 1
REMARK VINA RESULT:      -8.9      0.000      0.000
REMARK  3 active torsions:
REMARK  status: ('A' for Active; 'I' for Inactive)
REMARK    1  A    between atoms: C4_9  and  O1_2 
REMARK    2  A    between atoms: C8_13  and  O1_2 
REMARK    3  A    between atoms: C8_13  and  C9_14 
ROOT
HETATM    1 Cl1  UNK     1      18.265   2.276  28.798  1.00  0.00    -0.084 Cl
HETATM    2  O3  UNK     1      20.821  -2.645  30.806  1.00  0.00    -0.274 OA
HETATM    3  O4  UNK     1      21.366  -4.033  32.537  1.00  0.00    -0.259 OA
HETATM    4  C9  UNK     1      20.151  -2.075  33.088  1.00  0.00     0.115 A 
HETATM    5  C10 UNK     1      19.562  -0.951  32.663  1.00  0.00     0.038 A 
HETATM    6  C11 UNK     1      20.827  -3.002  32.151  1.00  0.00     0.304 A 
HETATM    7  C12 UNK     1      19.573  -0.607  31.249  1.00  0.00     0.001 A 
HETATM    8  C13 UNK     1      20.202  -1.464  30.353  1.00  0.00     0.089 A 
HETATM    9  C14 UNK     1      18.972   0.556  30.762  1.00  0.00     0.038 A 
HETATM   10  C15 UNK     1      20.248  -1.192  28.987  1.00  0.00     0.040 A 
HETATM   11  C16 UNK     1      19.009   0.842  29.394  1.00  0.00     0.035 A 
HETATM   12  C17 UNK     1      19.645  -0.030  28.509  1.00  0.00     0.026 A 
ENDROOT
BRANCH   4  13
HETATM   13  C8  UNK     1      20.087  -2.336  34.529  1.00  0.00     0.299 C 
HETATM   14  O2  UNK     1      20.276  -3.436  35.025  1.00  0.00    -0.259 OA
BRANCH  13  15
HETATM   15  O1  UNK     1      19.790  -1.177  35.178  1.00  0.00    -0.311 OA
BRANCH  15  16
HETATM   16  C4  UNK     1      18.436  -1.024  35.581  1.00  0.00     0.136 C 
HETATM   17  C1  UNK     1      17.930   0.374  35.176  1.00  0.00     0.015 C 
HETATM   18  C3  UNK     1      18.438   1.243  36.330  1.00  0.00     0.012 C 
HETATM   19  C6  UNK     1      16.409   0.428  35.395  1.00  0.00     0.007 C 
HETATM   20  C2  UNK     1      17.747   0.395  37.397  1.00  0.00    -0.012 C 
HETATM   21  C5  UNK     1      18.330  -1.003  37.115  1.00  0.00     0.037 C 
HETATM   22  C7  UNK     1      16.282   0.432  36.926  1.00  0.00     0.005 C 
ENDBRANCH  15  16
ENDBRANCH  13  15
ENDBRANCH   4  13
TORSDOF 3
ENDMDL
MODEL 2
REMARK VINA RESULT:      -8.8      5.642      7.356
REMARK  3 active torsions:
REMARK  status: ('A' for Active; 'I' for Inactive)
REMARK    1  A    between atoms: C4_9  and  O1_2 
REMARK    2  A    between atoms: C8_13  and  O1_2 
REMARK    3  A    between atoms: C8_13  and  C9_14 
ROOT
HETATM    1 Cl1  UNK     1      17.866   0.674  38.228  1.00  0.00    -0.084 Cl
HETATM    2  O3  UNK     1      18.416   1.152  32.376  1.00  0.00    -0.274 OA
HETATM    3  O4  UNK     1      18.535   2.440  30.493  1.00  0.00    -0.259 OA
HETATM    4  C9  UNK     1      18.271   3.587  32.550  1.00  0.00     0.115 A 
HETATM    5  C10 UNK     1      18.144   3.511  33.879  1.00  0.00     0.038 A 
HETATM    6  C11 UNK     1      18.417   2.375  31.712  1.00  0.00     0.304 A 
HETATM    7  C12 UNK     1      18.147   2.217  34.544  1.00  0.00     0.001 A 
HETATM    8  C13 UNK     1      18.284   1.066  33.775  1.00  0.00     0.089 A 
HETATM    9  C14 UNK     1      18.017   2.091  35.929  1.00  0.00     0.038 A 
HETATM   10  C15 UNK     1      18.294  -0.203  34.350  1.00  0.00     0.040 A 
HETATM   11  C16 UNK     1      18.026   0.824  36.520  1.00  0.00     0.035 A 
HETATM   12  C17 UNK     1      18.164  -0.320  35.732  1.00  0.00     0.026 A 
ENDROOT
BRANCH   4  13
HETATM   13  C8  UNK     1      18.257   4.934  31.973  1.00  0.00     0.299 C 
HETATM   14  O2  UNK     1      19.210   5.429  31.391  1.00  0.00    -0.259 OA
BRANCH  13  15
HETATM   15  O1  UNK     1      17.041   5.503  32.198  1.00  0.00    -0.311 OA
BRANCH  15  16
HETATM   16  C4  UNK     1      17.043   6.911  32.389  1.00  0.00     0.136 C 
HETATM   17  C1  UNK     1      17.750   7.252  33.715  1.00  0.00     0.015 C 
HETATM   18  C3  UNK     1      16.626   7.052  34.735  1.00  0.00     0.012 C 
HETATM   19  C6  UNK     1      17.960   8.774  33.782  1.00  0.00     0.007 C 
HETATM   20  C2  UNK     1      15.685   8.027  34.030  1.00  0.00    -0.012 C 
HETATM   21  C5  UNK     1      15.612   7.426  32.614  1.00  0.00     0.037 C 
HETATM   22  C7  UNK     1      16.535   9.309  33.988  1.00  0.00     0.005 C 
ENDBRANCH  15  16
ENDBRANCH  13  15
ENDBRANCH   4  13
TORSDOF 3
ENDMDL
MODEL 3
REMARK VINA RESULT:      -8.7      4.103      5.192
REMARK  3 active torsions:
REMARK  status: ('A' for Active; 'I' for Inactive)
REMARK    1  A    between atoms: C4_9  and  O1_2 
REMARK    2  A    between atoms: C8_13  and  O1_2 
REMARK    3  A    between atoms: C8_13  and  C9_14 
ROOT
HETATM    1 Cl1  UNK     1      17.827   8.357  34.101  1.00  0.00    -0.084 Cl
HETATM    2  O3  UNK     1      18.635   3.769  30.485  1.00  0.00    -0.274 OA
HETATM    3  O4  UNK     1      18.815   1.516  30.148  1.00  0.00    -0.259 OA
HETATM    4  C9  UNK     1      18.443   2.230  32.376  1.00  0.00     0.115 A 
HETATM    5  C10 UNK     1      18.257   3.250  33.222  1.00  0.00     0.038 A 
HETATM    6  C11 UNK     1      18.646   2.448  30.926  1.00  0.00     0.304 A 
HETATM    7  C12 UNK     1      18.251   4.619  32.729  1.00  0.00     0.001 A 
HETATM    8  C13 UNK     1      18.439   4.846  31.370  1.00  0.00     0.089 A 
HETATM    9  C14 UNK     1      18.061   5.714  33.576  1.00  0.00     0.038 A 
HETATM   10  C15 UNK     1      18.444   6.133  30.835  1.00  0.00     0.040 A 
HETATM   11  C16 UNK     1      18.063   7.011  33.053  1.00  0.00     0.035 A 
HETATM   12  C17 UNK     1      18.253   7.219  31.686  1.00  0.00     0.026 A 
ENDROOT
BRANCH   4  13
HETATM   13  C8  UNK     1      18.433   0.888  32.967  1.00  0.00     0.299 C 
HETATM   14  O2  UNK     1      19.109  -0.038  32.549  1.00  0.00    -0.259 OA
BRANCH  13  15
HETATM   15  O1  UNK     1      17.568   0.871  34.018  1.00  0.00    -0.311 OA
BRANCH  15  16
HETATM   16  C4  UNK     1      18.058   0.276  35.211  1.00  0.00     0.136 C 
HETATM   17  C1  UNK     1      16.928  -0.515  35.898  1.00  0.00     0.015 C 
HETATM   18  C3  UNK     1      16.195   0.584  36.672  1.00  0.00     0.012 C 
HETATM   19  C6  UNK     1      17.534  -1.346  37.040  1.00  0.00     0.007 C 
HETATM   20  C2  UNK     1      17.453   1.031  37.413  1.00  0.00    -0.012 C 
HETATM   21  C5  UNK     1      18.407   1.356  36.248  1.00  0.00     0.037 C 
HETATM   22  C7  UNK     1      17.906  -0.279  38.081  1.00  0.00     0.005 C 
ENDBRANCH  15  16
ENDBRANCH  13  15
ENDBRANCH   4  13
TORSDOF 3
ENDMDL
MODEL 4
REMARK VINA RESULT:      -8.6      4.637      6.435
REMARK  3 active torsions:
REMARK  status: ('A' for Active; 'I' for Inactive)
REMARK    1  A    between atoms: C4_9  and  O1_2 
REMARK    2  A    between atoms: C8_13  and  O1_2 
REMARK    3  A    between atoms: C8_13  and  C9_14 
ROOT
HETATM    1 Cl1  UNK     1      17.885  -0.329  38.306  1.00  0.00    -0.084 Cl
HETATM    2  O3  UNK     1      19.324  -0.673  32.597  1.00  0.00    -0.274 OA
HETATM    3  O4  UNK     1      19.383   0.249  30.507  1.00  0.00    -0.259 OA
HETATM    4  C9  UNK     1      18.407   1.563  32.220  1.00  0.00     0.115 A 
HETATM    5  C10 UNK     1      18.069   1.672  33.509  1.00  0.00     0.038 A 
HETATM    6  C11 UNK     1      19.070   0.351  31.688  1.00  0.00     0.304 A 
HETATM    7  C12 UNK     1      18.348   0.583  34.435  1.00  0.00     0.001 A 
HETATM    8  C13 UNK     1      18.970  -0.564  33.956  1.00  0.00     0.089 A 
HETATM    9  C14 UNK     1      18.011   0.653  35.788  1.00  0.00     0.038 A 
HETATM   10  C15 UNK     1      19.264  -1.641  34.789  1.00  0.00     0.040 A 
HETATM   11  C16 UNK     1      18.301  -0.420  36.637  1.00  0.00     0.035 A 
HETATM   12  C17 UNK     1      18.926  -1.563  36.138  1.00  0.00     0.026 A 
ENDROOT
BRANCH   4  13
HETATM   13  C8  UNK     1      18.086   2.711  31.367  1.00  0.00     0.299 C 
HETATM   14  O2  UNK     1      17.335   2.650  30.406  1.00  0.00    -0.259 OA
BRANCH  13  15
HETATM   15  O1  UNK     1      18.752   3.807  31.825  1.00  0.00    -0.311 OA
BRANCH  15  16
HETATM   16  C4  UNK     1      17.947   4.941  32.119  1.00  0.00     0.136 C 
HETATM   17  C1  UNK     1      18.477   6.165  31.347  1.00  0.00     0.015 C 
HETATM   18  C3  UNK     1      19.606   6.652  32.259  1.00  0.00     0.012 C 
HETATM   19  C6  UNK     1      17.457   7.308  31.481  1.00  0.00     0.007 C 
HETATM   20  C2  UNK     1      18.694   6.779  33.478  1.00  0.00    -0.012 C 
HETATM   21  C5  UNK     1      18.117   5.355  33.590  1.00  0.00     0.037 C 
HETATM   22  C7  UNK     1      17.599   7.724  32.953  1.00  0.00     0.005 C 
ENDBRANCH  15  16
ENDBRANCH  13  15
ENDBRANCH   4  13
TORSDOF 3
ENDMDL
MODEL 5
REMARK VINA RESULT:      -8.5      4.048      6.420
REMARK  3 active torsions:
REMARK  status: ('A' for Active; 'I' for Inactive)
REMARK    1  A    between atoms: C4_9  and  O1_2 
REMARK    2  A    between atoms: C8_13  and  O1_2 
REMARK    3  A    between atoms: C8_13  and  C9_14 
ROOT
HETATM    1 Cl1  UNK     1      16.023   2.052  37.577  1.00  0.00    -0.084 Cl
HETATM    2  O3  UNK     1      19.439  -1.410  34.241  1.00  0.00    -0.274 OA
HETATM    3  O4  UNK     1      20.758  -3.261  34.005  1.00  0.00    -0.259 OA
HETATM    4  C9  UNK     1      19.815  -2.895  36.148  1.00  0.00     0.115 A 
HETATM    5  C10 UNK     1      19.045  -2.130  36.930  1.00  0.00     0.038 A 
HETATM    6  C11 UNK     1      20.054  -2.561  34.725  1.00  0.00     0.304 A 
HETATM    7  C12 UNK     1      18.415  -0.933  36.394  1.00  0.00     0.001 A 
HETATM    8  C13 UNK     1      18.627  -0.601  35.060  1.00  0.00     0.089 A 
HETATM    9  C14 UNK     1      17.605  -0.105  37.174  1.00  0.00     0.038 A 
HETATM   10  C15 UNK     1      18.054   0.531  34.486  1.00  0.00     0.040 A 
HETATM   11  C16 UNK     1      17.023   1.035  36.611  1.00  0.00     0.035 A 
HETATM   12  C17 UNK     1      17.246   1.351  35.270  1.00  0.00     0.026 A 
ENDROOT
BRANCH   4  13
HETATM   13  C8  UNK     1      20.404  -4.080  36.778  1.00  0.00     0.299 C 
HETATM   14  O2  UNK     1      21.566  -4.140  37.149  1.00  0.00    -0.259 OA
BRANCH  13  15
HETATM   15  O1  UNK     1      19.458  -5.055  36.867  1.00  0.00    -0.311 OA
BRANCH  15  16
HETATM   16  C4  UNK     1      19.948  -6.380  37.010  1.00  0.00     0.136 C 
HETATM   17  C1  UNK     1      20.059  -7.045  35.625  1.00  0.00     0.015 C 
HETATM   18  C3  UNK     1      18.627  -7.533  35.390  1.00  0.00     0.012 C 
HETATM   19  C6  UNK     1      20.817  -8.374  35.777  1.00  0.00     0.007 C 
HETATM   20  C2  UNK     1      18.588  -8.338  36.688  1.00  0.00    -0.012 C 
HETATM   21  C5  UNK     1      18.917  -7.260  37.737  1.00  0.00     0.037 C 
HETATM   22  C7  UNK     1      19.807  -9.263  36.519  1.00  0.00     0.005 C 
ENDBRANCH  15  16
ENDBRANCH  13  15
ENDBRANCH   4  13
TORSDOF 3
ENDMDL
MODEL 6
REMARK VINA RESULT:      -8.5      4.023      6.025
REMARK  3 active torsions:
REMARK  status: ('A' for Active; 'I' for Inactive)
REMARK    1  A    between atoms: C4_9  and  O1_2 
REMARK    2  A    between atoms: C8_13  and  O1_2 
REMARK    3  A    between atoms: C8_13  and  C9_14 
ROOT
HETATM    1 Cl1  UNK     1      18.683  -1.934  36.920  1.00  0.00    -0.084 Cl
HETATM    2  O3  UNK     1      20.530  -1.239  31.362  1.00  0.00    -0.274 OA
HETATM    3  O4  UNK     1      20.477  -0.102  29.382  1.00  0.00    -0.259 OA
HETATM    4  C9  UNK     1      19.075   0.710  31.111  1.00  0.00     0.115 A 
HETATM    5  C10 UNK     1      18.637   0.580  32.368  1.00  0.00     0.038 A 
HETATM    6  C11 UNK     1      20.072  -0.220  30.533  1.00  0.00     0.304 A 
HETATM    7  C12 UNK     1      19.136  -0.497  33.210  1.00  0.00     0.001 A 
HETATM    8  C13 UNK     1      20.072  -1.382  32.687  1.00  0.00     0.089 A 
HETATM    9  C14 UNK     1      18.705  -0.672  34.527  1.00  0.00     0.038 A 
HETATM   10  C15 UNK     1      20.589  -2.434  33.441  1.00  0.00     0.040 A 
HETATM   11  C16 UNK     1      19.215  -1.723  35.296  1.00  0.00     0.035 A 
HETATM   12  C17 UNK     1      20.155  -2.601  34.754  1.00  0.00     0.026 A 
ENDROOT
BRANCH   4  13
HETATM   13  C8  UNK     1      18.515   1.826  30.342  1.00  0.00     0.299 C 
HETATM   14  O2  UNK     1      17.564   1.713  29.584  1.00  0.00    -0.259 OA
BRANCH  13  15
HETATM   15  O1  UNK     1      19.222   2.956  30.618  1.00  0.00    -0.311 OA
BRANCH  15  16
HETATM   16  C4  UNK     1      18.450   4.128  30.841  1.00  0.00     0.136 C 
HETATM   17  C1  UNK     1      19.232   5.364  30.356  1.00  0.00     0.015 C 
HETATM   18  C3  UNK     1      20.139   5.657  31.553  1.00  0.00     0.012 C 
HETATM   19  C6  UNK     1      18.290   6.579  30.376  1.00  0.00     0.007 C 
HETATM   20  C2  UNK     1      18.971   5.755  32.533  1.00  0.00    -0.012 C 
HETATM   21  C5  UNK     1      18.287   4.388  32.348  1.00  0.00     0.037 C 
HETATM   22  C7  UNK     1      18.101   6.843  31.877  1.00  0.00     0.005 C 
ENDBRANCH  15  16
ENDBRANCH  13  15
ENDBRANCH   4  13
TORSDOF 3
ENDMDL
MODEL 7
REMARK VINA RESULT:      -8.4     24.624     26.896
REMARK  3 active torsions:
REMARK  status: ('A' for Active; 'I' for Inactive)
REMARK    1  A    between atoms: C4_9  and  O1_2 
REMARK    2  A    between atoms: C8_13  and  O1_2 
REMARK    3  A    between atoms: C8_13  and  C9_14 
ROOT
HETATM    1 Cl1  UNK     1      17.345  10.402  10.289  1.00  0.00    -0.084 Cl
HETATM    2  O3  UNK     1      14.331   5.446   9.223  1.00  0.00    -0.274 OA
HETATM    3  O4  UNK     1      12.627   4.348   8.169  1.00  0.00    -0.259 OA
HETATM    4  C9  UNK     1      12.834   6.666   7.722  1.00  0.00     0.115 A 
HETATM    5  C10 UNK     1      13.498   7.807   7.943  1.00  0.00     0.038 A 
HETATM    6  C11 UNK     1      13.232   5.396   8.370  1.00  0.00     0.304 A 
HETATM    7  C12 UNK     1      14.643   7.826   8.841  1.00  0.00     0.001 A 
HETATM    8  C13 UNK     1      15.034   6.644   9.459  1.00  0.00     0.089 A 
HETATM    9  C14 UNK     1      15.364   8.994   9.101  1.00  0.00     0.038 A 
HETATM   10  C15 UNK     1      16.121   6.595  10.329  1.00  0.00     0.040 A 
HETATM   11  C16 UNK     1      16.458   8.961   9.972  1.00  0.00     0.035 A 
HETATM   12  C17 UNK     1      16.835   7.764  10.583  1.00  0.00     0.026 A 
ENDROOT
BRANCH   4  13
HETATM   13  C8  UNK     1      11.695   6.747   6.803  1.00  0.00     0.299 C 
HETATM   14  O2  UNK     1      11.660   6.182   5.721  1.00  0.00    -0.259 OA
BRANCH  13  15
HETATM   15  O1  UNK     1      10.731   7.533   7.356  1.00  0.00    -0.311 OA
BRANCH  15  16
HETATM   16  C4  UNK     1      10.069   6.990   8.490  1.00  0.00     0.136 C 
HETATM   17  C1  UNK     1       8.955   6.030   8.030  1.00  0.00     0.015 C 
HETATM   18  C3  UNK     1       7.803   6.994   7.738  1.00  0.00     0.012 C 
HETATM   19  C6  UNK     1       8.422   5.273   9.256  1.00  0.00     0.007 C 
HETATM   20  C2  UNK     1       7.835   7.605   9.138  1.00  0.00    -0.012 C 
HETATM   21  C5  UNK     1       9.294   8.089   9.238  1.00  0.00     0.037 C 
HETATM   22  C7  UNK     1       7.658   6.361  10.027  1.00  0.00     0.005 C 
ENDBRANCH  15  16
ENDBRANCH  13  15
ENDBRANCH   4  13
TORSDOF 3
ENDMDL
MODEL 8
REMARK VINA RESULT:      -8.3     24.726     26.366
REMARK  3 active torsions:
REMARK  status: ('A' for Active; 'I' for Inactive)
REMARK    1  A    between atoms: C4_9  and  O1_2 
REMARK    2  A    between atoms: C8_13  and  O1_2 
REMARK    3  A    between atoms: C8_13  and  C9_14 
ROOT
HETATM    1 Cl1  UNK     1      15.752  11.907   9.268  1.00  0.00    -0.084 Cl
HETATM    2  O3  UNK     1      16.185   6.073  10.018  1.00  0.00    -0.274 OA
HETATM    3  O4  UNK     1      15.277   3.981   9.872  1.00  0.00    -0.259 OA
HETATM    4  C9  UNK     1      13.912   5.784   9.162  1.00  0.00     0.115 A 
HETATM    5  C10 UNK     1      13.783   7.102   8.981  1.00  0.00     0.038 A 
HETATM    6  C11 UNK     1      15.155   5.190   9.705  1.00  0.00     0.304 A 
HETATM    7  C12 UNK     1      14.878   8.000   9.318  1.00  0.00     0.001 A 
HETATM    8  C13 UNK     1      16.055   7.463   9.828  1.00  0.00     0.089 A 
HETATM    9  C14 UNK     1      14.787   9.383   9.145  1.00  0.00     0.038 A 
HETATM   10  C15 UNK     1      17.140   8.267  10.171  1.00  0.00     0.040 A 
HETATM   11  C16 UNK     1      15.868  10.202   9.484  1.00  0.00     0.035 A 
HETATM   12  C17 UNK     1      17.042   9.645   9.995  1.00  0.00     0.026 A 
ENDROOT
BRANCH   4  13
HETATM   13  C8  UNK     1      12.755   4.962   8.793  1.00  0.00     0.299 C 
HETATM   14  O2  UNK     1      12.816   4.019   8.020  1.00  0.00    -0.259 OA
BRANCH  13  15
HETATM   15  O1  UNK     1      11.653   5.428   9.442  1.00  0.00    -0.311 OA
BRANCH  15  16
HETATM   16  C4  UNK     1      10.444   5.411   8.696  1.00  0.00     0.136 C 
HETATM   17  C1  UNK     1      10.527   6.439   7.551  1.00  0.00     0.015 C 
HETATM   18  C3  UNK     1      10.145   7.740   8.262  1.00  0.00     0.012 C 
HETATM   19  C6  UNK     1       9.324   6.232   6.617  1.00  0.00     0.007 C 
HETATM   20  C2  UNK     1       8.817   7.181   8.771  1.00  0.00    -0.012 C 
HETATM   21  C5  UNK     1       9.277   5.934   9.550  1.00  0.00     0.037 C 
HETATM   22  C7  UNK     1       8.142   6.733   7.462  1.00  0.00     0.005 C 
ENDBRANCH  15  16
ENDBRANCH  13  15
ENDBRANCH   4  13
TORSDOF 3
ENDMDL
MODEL 9
REMARK VINA RESULT:      -8.3     24.702     26.979
REMARK  3 active torsions:
REMARK  status: ('A' for Active; 'I' for Inactive)
REMARK    1  A    between atoms: C4_9  and  O1_2 
REMARK    2  A    between atoms: C8_13  and  O1_2 
REMARK    3  A    between atoms: C8_13  and  C9_14 
ROOT
HETATM    1 Cl1  UNK     1       4.817   4.104  15.768  1.00  0.00    -0.084 Cl
HETATM    2  O3  UNK     1       6.385   3.318  10.138  1.00  0.00    -0.274 OA
HETATM    3  O4  UNK     1       7.291   4.120   8.200  1.00  0.00    -0.259 OA
HETATM    4  C9  UNK     1       7.202   5.620  10.032  1.00  0.00     0.115 A 
HETATM    5  C10 UNK     1       6.858   5.830  11.307  1.00  0.00     0.038 A 
HETATM    6  C11 UNK     1       6.976   4.316   9.368  1.00  0.00     0.304 A 
HETATM    7  C12 UNK     1       6.242   4.765  12.085  1.00  0.00     0.001 A 
HETATM    8  C13 UNK     1       6.021   3.532  11.481  1.00  0.00     0.089 A 
HETATM    9  C14 UNK     1       5.866   4.939  13.419  1.00  0.00     0.038 A 
HETATM   10  C15 UNK     1       5.435   2.472  12.170  1.00  0.00     0.040 A 
HETATM   11  C16 UNK     1       5.278   3.885  14.124  1.00  0.00     0.035 A 
HETATM   12  C17 UNK     1       5.064   2.654  13.500  1.00  0.00     0.026 A 
ENDROOT
BRANCH   4  13
HETATM   13  C8  UNK     1       7.816   6.753   9.332  1.00  0.00     0.299 C 
HETATM   14  O2  UNK     1       7.195   7.518   8.611  1.00  0.00    -0.259 OA
BRANCH  13  15
HETATM   15  O1  UNK     1       9.146   6.788   9.622  1.00  0.00    -0.311 OA
BRANCH  15  16
HETATM   16  C4  UNK     1      10.004   7.131   8.544  1.00  0.00     0.136 C 
HETATM   17  C1  UNK     1      10.327   5.872   7.717  1.00  0.00     0.015 C 
HETATM   18  C3  UNK     1      11.475   5.251   8.516  1.00  0.00     0.012 C 
HETATM   19  C6  UNK     1      11.045   6.302   6.427  1.00  0.00     0.007 C 
HETATM   20  C2  UNK     1      12.328   6.517   8.453  1.00  0.00    -0.012 C 
HETATM   21  C5  UNK     1      11.383   7.565   9.070  1.00  0.00     0.037 C 
HETATM   22  C7  UNK     1      12.422   6.757   6.936  1.00  0.00     0.005 C 
ENDBRANCH  15  16
ENDBRANCH  13  15
ENDBRANCH   4  13
TORSDOF 3
ENDMDL
MODEL 10
REMARK VINA RESULT:      -8.3      3.431      5.337
REMARK  3 active torsions:
REMARK  status: ('A' for Active; 'I' for Inactive)
REMARK    1  A    between atoms: C4_9  and  O1_2 
REMARK    2  A    between atoms: C8_13  and  O1_2 
REMARK    3  A    between atoms: C8_13  and  C9_14 
ROOT
HETATM    1 Cl1  UNK     1      20.824  -1.352  29.122  1.00  0.00    -0.084 Cl
HETATM    2  O3  UNK     1      18.655  -0.430  34.528  1.00  0.00    -0.274 OA
HETATM    3  O4  UNK     1      18.474  -1.037  36.723  1.00  0.00    -0.259 OA
HETATM    4  C9  UNK     1      19.834  -2.408  35.350  1.00  0.00     0.115 A 
HETATM    5  C10 UNK     1      20.342  -2.644  34.136  1.00  0.00     0.038 A 
HETATM    6  C11 UNK     1      18.941  -1.256  35.611  1.00  0.00     0.304 A 
HETATM    7  C12 UNK     1      20.024  -1.761  33.024  1.00  0.00     0.001 A 
HETATM    8  C13 UNK     1      19.187  -0.673  33.247  1.00  0.00     0.089 A 
HETATM    9  C14 UNK     1      20.531  -1.970  31.739  1.00  0.00     0.038 A 
HETATM   10  C15 UNK     1      18.843   0.210  32.225  1.00  0.00     0.040 A 
HETATM   11  C16 UNK     1      20.195  -1.092  30.704  1.00  0.00     0.035 A 
HETATM   12  C17 UNK     1      19.354  -0.005  30.947  1.00  0.00     0.026 A 
ENDROOT
BRANCH   4  13
HETATM   13  C8  UNK     1      20.213  -3.353  36.406  1.00  0.00     0.299 C 
HETATM   14  O2  UNK     1      20.467  -3.017  37.553  1.00  0.00    -0.259 OA
BRANCH  13  15
HETATM   15  O1  UNK     1      20.228  -4.613  35.891  1.00  0.00    -0.311 OA
BRANCH  15  16
HETATM   16  C4  UNK     1      19.606  -5.612  36.687  1.00  0.00     0.136 C 
HETATM   17  C1  UNK     1      20.678  -6.548  37.277  1.00  0.00     0.015 C 
HETATM   18  C3  UNK     1      20.918  -7.525  36.123  1.00  0.00     0.012 C 
HETATM   19  C6  UNK     1      20.014  -7.459  38.321  1.00  0.00     0.007 C 
HETATM   20  C2  UNK     1      19.445  -7.920  36.027  1.00  0.00    -0.012 C 
HETATM   21  C5  UNK     1      18.767  -6.554  35.808  1.00  0.00     0.037 C 
HETATM   22  C7  UNK     1      19.155  -8.399  37.461  1.00  0.00     0.005 C 
ENDBRANCH  15  16
ENDBRANCH  13  15
ENDBRANCH   4  13
TORSDOF 3
ENDMDL
