MODEL 1
REMARK VINA RESULT:     -11.1      0.000      0.000
REMARK  10 active torsions:
REMARK  status: ('A' for Active; 'I' for Inactive)
REMARK    1  A    between atoms: C11_22  and  O2_2 
REMARK    2  A    between atoms: C15_26  and  O2_2 
REMARK    3  A    between atoms: N1_8  and  N2_9 
REMARK    4  A    between atoms: C21_32  and  N2_9 
REMARK    5  A    between atoms: C24_35  and  N3_10 
REMARK    6  A    between atoms: C29_40  and  N4_11 
REMARK    7  A    between atoms: C2_13  and  C4_15 
REMARK    8  A    between atoms: C4_15  and  C7_18 
REMARK    9  A    between atoms: C15_26  and  C16_27 
REMARK   10  A    between atoms: C16_27  and  C20_31 
ROOT
HETATM    1  N1  UNK     1      18.356   2.361  31.750  1.00  0.00    -0.176 NA
HETATM    2  C16 UNK     1      18.665   2.513  30.496  1.00  0.00     0.089 C 
ENDROOT
BRANCH   2   3
HETATM    3  C15 UNK     1      18.583   3.835  29.743  1.00  0.00     0.237 C 
BRANCH   3   4
HETATM    4  O2  UNK     1      19.645   4.689  30.165  1.00  0.00    -0.345 OA
BRANCH   4   5
HETATM    5  C11 UNK     1      19.342   5.645  31.085  1.00  0.00     0.071 A 
HETATM    6  C10 UNK     1      18.116   6.295  31.041  1.00  0.00     0.075 A 
HETATM    7  C5  UNK     1      17.825   7.274  31.996  1.00  0.00     0.092 A 
HETATM    8  C3  UNK     1      18.719   7.627  33.002  1.00  0.00     0.005 A 
HETATM    9  O1  UNK     1      16.572   7.897  31.889  1.00  0.00    -0.274 OA
HETATM   10  C1  UNK     1      18.328   8.673  33.970  1.00  0.00    -0.036 A 
HETATM   11  C8  UNK     1      19.954   6.961  33.024  1.00  0.00     0.017 A 
HETATM   12  C2  UNK     1      17.133   9.289  33.836  1.00  0.00     0.029 A 
HETATM   13  C9  UNK     1      19.307   8.979  35.077  1.00  0.00     0.050 C 
HETATM   14  C6  UNK     1      16.176   8.896  32.761  1.00  0.00     0.295 A 
HETATM   15  O3  UNK     1      15.073   9.422  32.648  1.00  0.00    -0.259 OA
HETATM   16  C12 UNK     1      20.262   5.978  32.075  1.00  0.00     0.038 A 
BRANCH  12  17
HETATM   17  C4  UNK     1      16.639  10.412  34.710  1.00  0.00     0.084 C 
BRANCH  17  18
HETATM   18  C7  UNK     1      16.980  11.761  34.148  1.00  0.00    -0.054 A 
HETATM   19  C13 UNK     1      18.301  12.061  33.811  1.00  0.00     0.007 A 
HETATM   20  C17 UNK     1      18.619  13.315  33.287  1.00  0.00     0.001 A 
HETATM   21  C19 UNK     1      17.617  14.268  33.104  1.00  0.00     0.000 A 
HETATM   22  C18 UNK     1      16.297  13.967  33.441  1.00  0.00     0.001 A 
HETATM   23  C14 UNK     1      15.980  12.714  33.964  1.00  0.00     0.007 A 
ENDBRANCH  17  18
ENDBRANCH  12  17
ENDBRANCH   4   5
ENDBRANCH   3   4
ENDBRANCH   2   3
BRANCH   2  24
HETATM   24  C20 UNK     1      19.116   1.310  29.739  1.00  0.00    -0.008 A 
HETATM   25  C23 UNK     1      18.409   0.889  28.612  1.00  0.00     0.013 A 
HETATM   26  C27 UNK     1      18.831  -0.237  27.905  1.00  0.00     0.001 A 
HETATM   27  C31 UNK     1      19.959  -0.942  28.325  1.00  0.00     0.000 A 
HETATM   28  C26 UNK     1      20.666  -0.521  29.451  1.00  0.00     0.001 A 
HETATM   29  C22 UNK     1      20.244   0.605  30.158  1.00  0.00     0.013 A 
ENDBRANCH   2  24
BRANCH   1  30
HETATM   30  N2  UNK     1      18.466   1.129  32.279  1.00  0.00    -0.276 N 
HETATM   31  H18 UNK     1      18.595   0.301  31.712  1.00  0.00     0.189 HD
BRANCH  30  32
HETATM   32  C21 UNK     1      18.352   0.935  33.665  1.00  0.00     0.083 A 
HETATM   33  C24 UNK     1      18.656  -0.294  34.249  1.00  0.00     0.133 A 
HETATM   34  C28 UNK     1      18.535  -0.461  35.628  1.00  0.00     0.074 A 
HETATM   35  C29 UNK     1      18.110   0.604  36.424  1.00  0.00     0.105 A 
HETATM   36  C30 UNK     1      17.806   1.834  35.841  1.00  0.00     0.038 A 
HETATM   37  C25 UNK     1      17.927   1.999  34.461  1.00  0.00     0.036 A 
BRANCH  33  38
HETATM   38  N3  UNK     1      19.093  -1.395  33.460  1.00  0.00    -0.113 N 
HETATM   39  O4  UNK     1      20.068  -2.076  33.859  1.00  0.00    -0.532 OA
HETATM   40  O5  UNK     1      18.490  -1.653  32.392  1.00  0.00    -0.532 OA
ENDBRANCH  33  38
BRANCH  35  41
HETATM   41  N4  UNK     1      17.985   0.435  37.828  1.00  0.00    -0.116 N 
HETATM   42  O6  UNK     1      17.931   1.452  38.561  1.00  0.00    -0.532 OA
HETATM   43  O7  UNK     1      17.932  -0.727  38.299  1.00  0.00    -0.532 OA
ENDBRANCH  35  41
ENDBRANCH  30  32
ENDBRANCH   1  30
TORSDOF 10
ENDMDL
MODEL 2
REMARK VINA RESULT:     -10.9      1.919      2.799
REMARK  10 active torsions:
REMARK  status: ('A' for Active; 'I' for Inactive)
REMARK    1  A    between atoms: C11_22  and  O2_2 
REMARK    2  A    between atoms: C15_26  and  O2_2 
REMARK    3  A    between atoms: N1_8  and  N2_9 
REMARK    4  A    between atoms: C21_32  and  N2_9 
REMARK    5  A    between atoms: C24_35  and  N3_10 
REMARK    6  A    between atoms: C29_40  and  N4_11 
REMARK    7  A    between atoms: C2_13  and  C4_15 
REMARK    8  A    between atoms: C4_15  and  C7_18 
REMARK    9  A    between atoms: C15_26  and  C16_27 
REMARK   10  A    between atoms: C16_27  and  C20_31 
ROOT
HETATM    1  N1  UNK     1      18.003   2.985  32.788  1.00  0.00    -0.176 NA
HETATM    2  C16 UNK     1      18.427   3.377  31.622  1.00  0.00     0.089 C 
ENDROOT
BRANCH   2   3
HETATM    3  C15 UNK     1      18.712   4.825  31.251  1.00  0.00     0.237 C 
BRANCH   3   4
HETATM    4  O2  UNK     1      18.937   5.586  32.437  1.00  0.00    -0.345 OA
BRANCH   4   5
HETATM    5  C11 UNK     1      18.084   6.617  32.682  1.00  0.00     0.071 A 
HETATM    6  C10 UNK     1      18.576   7.847  33.101  1.00  0.00     0.075 A 
HETATM    7  C5  UNK     1      17.681   8.893  33.348  1.00  0.00     0.092 A 
HETATM    8  C3  UNK     1      16.306   8.756  33.188  1.00  0.00     0.005 A 
HETATM    9  O1  UNK     1      18.243  10.106  33.775  1.00  0.00    -0.274 OA
HETATM   10  C1  UNK     1      15.435   9.915  33.472  1.00  0.00    -0.036 A 
HETATM   11  C8  UNK     1      15.832   7.502  32.770  1.00  0.00     0.017 A 
HETATM   12  C2  UNK     1      15.985  11.066  33.915  1.00  0.00     0.029 A 
HETATM   13  C9  UNK     1      13.957   9.734  33.227  1.00  0.00     0.050 C 
HETATM   14  C6  UNK     1      17.461  11.209  34.072  1.00  0.00     0.295 A 
HETATM   15  O3  UNK     1      17.979  12.259  34.440  1.00  0.00    -0.259 OA
HETATM   16  C12 UNK     1      16.713   6.444  32.518  1.00  0.00     0.038 A 
BRANCH  12  17
HETATM   17  C4  UNK     1      15.210  12.299  34.302  1.00  0.00     0.084 C 
BRANCH  17  18
HETATM   18  C7  UNK     1      14.888  12.330  35.767  1.00  0.00    -0.054 A 
HETATM   19  C13 UNK     1      15.468  13.297  36.588  1.00  0.00     0.007 A 
HETATM   20  C17 UNK     1      15.169  13.326  37.951  1.00  0.00     0.001 A 
HETATM   21  C19 UNK     1      14.291  12.387  38.491  1.00  0.00     0.000 A 
HETATM   22  C18 UNK     1      13.711  11.420  37.670  1.00  0.00     0.001 A 
HETATM   23  C14 UNK     1      14.010  11.391  36.308  1.00  0.00     0.007 A 
ENDBRANCH  17  18
ENDBRANCH  12  17
ENDBRANCH   4   5
ENDBRANCH   3   4
ENDBRANCH   2   3
BRANCH   2  24
HETATM   24  C20 UNK     1      18.636   2.337  30.573  1.00  0.00    -0.008 A 
HETATM   25  C23 UNK     1      17.864   2.353  29.411  1.00  0.00     0.013 A 
HETATM   26  C27 UNK     1      18.059   1.380  28.431  1.00  0.00     0.001 A 
HETATM   27  C31 UNK     1      19.027   0.392  28.612  1.00  0.00     0.000 A 
HETATM   28  C26 UNK     1      19.799   0.376  29.773  1.00  0.00     0.001 A 
HETATM   29  C22 UNK     1      19.604   1.349  30.753  1.00  0.00     0.013 A 
ENDBRANCH   2  24
BRANCH   1  30
HETATM   30  N2  UNK     1      17.783   1.670  32.967  1.00  0.00    -0.276 N 
HETATM   31  H18 UNK     1      17.488   1.059  32.218  1.00  0.00     0.189 HD
BRANCH  30  32
HETATM   32  C21 UNK     1      17.906   1.095  34.242  1.00  0.00     0.083 A 
HETATM   33  C24 UNK     1      18.329  -0.224  34.400  1.00  0.00     0.133 A 
HETATM   34  C28 UNK     1      18.444  -0.773  35.677  1.00  0.00     0.074 A 
HETATM   35  C29 UNK     1      18.135  -0.000  36.797  1.00  0.00     0.105 A 
HETATM   36  C30 UNK     1      17.712   1.320  36.640  1.00  0.00     0.038 A 
HETATM   37  C25 UNK     1      17.597   1.867  35.362  1.00  0.00     0.036 A 
BRANCH  33  38
HETATM   38  N3  UNK     1      18.652  -1.033  33.274  1.00  0.00    -0.113 N 
HETATM   39  O4  UNK     1      19.823  -1.465  33.156  1.00  0.00    -0.532 OA
HETATM   40  O5  UNK     1      17.756  -1.290  32.436  1.00  0.00    -0.532 OA
ENDBRANCH  33  38
BRANCH  35  41
HETATM   41  N4  UNK     1      18.250  -0.558  38.098  1.00  0.00    -0.116 N 
HETATM   42  O6  UNK     1      18.239   0.209  39.092  1.00  0.00    -0.532 OA
HETATM   43  O7  UNK     1      18.360  -1.802  38.219  1.00  0.00    -0.532 OA
ENDBRANCH  35  41
ENDBRANCH  30  32
ENDBRANCH   1  30
TORSDOF 10
ENDMDL
MODEL 3
REMARK VINA RESULT:     -10.9      1.490      2.268
REMARK  10 active torsions:
REMARK  status: ('A' for Active; 'I' for Inactive)
REMARK    1  A    between atoms: C11_22  and  O2_2 
REMARK    2  A    between atoms: C15_26  and  O2_2 
REMARK    3  A    between atoms: N1_8  and  N2_9 
REMARK    4  A    between atoms: C21_32  and  N2_9 
REMARK    5  A    between atoms: C24_35  and  N3_10 
REMARK    6  A    between atoms: C29_40  and  N4_11 
REMARK    7  A    between atoms: C2_13  and  C4_15 
REMARK    8  A    between atoms: C4_15  and  C7_18 
REMARK    9  A    between atoms: C15_26  and  C16_27 
REMARK   10  A    between atoms: C16_27  and  C20_31 
ROOT
HETATM    1  N1  UNK     1      18.056   2.900  32.496  1.00  0.00    -0.176 NA
HETATM    2  C16 UNK     1      18.439   3.245  31.301  1.00  0.00     0.089 C 
ENDROOT
BRANCH   2   3
HETATM    3  C15 UNK     1      18.627   4.683  30.838  1.00  0.00     0.237 C 
BRANCH   3   4
HETATM    4  O2  UNK     1      19.094   5.477  31.927  1.00  0.00    -0.345 OA
BRANCH   4   5
HETATM    5  C11 UNK     1      18.259   6.446  32.390  1.00  0.00     0.071 A 
HETATM    6  C10 UNK     1      18.767   7.679  32.781  1.00  0.00     0.075 A 
HETATM    7  C5  UNK     1      17.890   8.661  33.254  1.00  0.00     0.092 A 
HETATM    8  C3  UNK     1      16.517   8.457  33.348  1.00  0.00     0.005 A 
HETATM    9  O1  UNK     1      18.470   9.879  33.640  1.00  0.00    -0.274 OA
HETATM   10  C1  UNK     1      15.666   9.551  33.859  1.00  0.00    -0.036 A 
HETATM   11  C8  UNK     1      16.028   7.201  32.952  1.00  0.00     0.017 A 
HETATM   12  C2  UNK     1      16.239  10.707  34.259  1.00  0.00     0.029 A 
HETATM   13  C9  UNK     1      14.178   9.302  33.886  1.00  0.00     0.050 C 
HETATM   14  C6  UNK     1      17.711  10.922  34.144  1.00  0.00     0.295 A 
HETATM   15  O3  UNK     1      18.242  11.979  34.470  1.00  0.00    -0.259 OA
HETATM   16  C12 UNK     1      16.891   6.207  32.476  1.00  0.00     0.038 A 
BRANCH  12  17
HETATM   17  C4  UNK     1      15.499  11.874  34.857  1.00  0.00     0.084 C 
BRANCH  17  18
HETATM   18  C7  UNK     1      15.030  12.844  33.812  1.00  0.00    -0.054 A 
HETATM   19  C13 UNK     1      15.802  13.965  33.507  1.00  0.00     0.007 A 
HETATM   20  C17 UNK     1      15.367  14.867  32.535  1.00  0.00     0.001 A 
HETATM   21  C19 UNK     1      14.161  14.648  31.871  1.00  0.00     0.000 A 
HETATM   22  C18 UNK     1      13.389  13.527  32.176  1.00  0.00     0.001 A 
HETATM   23  C14 UNK     1      13.825  12.625  33.148  1.00  0.00     0.007 A 
ENDBRANCH  17  18
ENDBRANCH  12  17
ENDBRANCH   4   5
ENDBRANCH   3   4
ENDBRANCH   2   3
BRANCH   2  24
HETATM   24  C20 UNK     1      18.697   2.158  30.313  1.00  0.00    -0.008 A 
HETATM   25  C23 UNK     1      17.918   2.063  29.160  1.00  0.00     0.013 A 
HETATM   26  C27 UNK     1      18.159   1.046  28.237  1.00  0.00     0.001 A 
HETATM   27  C31 UNK     1      19.180   0.123  28.467  1.00  0.00     0.000 A 
HETATM   28  C26 UNK     1      19.959   0.217  29.619  1.00  0.00     0.001 A 
HETATM   29  C22 UNK     1      19.717   1.234  30.543  1.00  0.00     0.013 A 
ENDBRANCH   2  24
BRANCH   1  30
HETATM   30  N2  UNK     1      17.922   1.588  32.759  1.00  0.00    -0.276 N 
HETATM   31  H18 UNK     1      17.735   0.904  32.038  1.00  0.00     0.189 HD
BRANCH  30  32
HETATM   32  C21 UNK     1      17.985   1.115  34.079  1.00  0.00     0.083 A 
HETATM   33  C24 UNK     1      18.360  -0.199  34.358  1.00  0.00     0.133 A 
HETATM   34  C28 UNK     1      18.416  -0.643  35.679  1.00  0.00     0.074 A 
HETATM   35  C29 UNK     1      18.097   0.227  36.722  1.00  0.00     0.105 A 
HETATM   36  C30 UNK     1      17.722   1.542  36.443  1.00  0.00     0.038 A 
HETATM   37  C25 UNK     1      17.666   1.986  35.122  1.00  0.00     0.036 A 
BRANCH  33  38
HETATM   38  N3  UNK     1      18.692  -1.106  33.313  1.00  0.00    -0.113 N 
HETATM   39  O4  UNK     1      19.787  -1.715  33.366  1.00  0.00    -0.532 OA
HETATM   40  O5  UNK     1      17.880  -1.271  32.373  1.00  0.00    -0.532 OA
ENDBRANCH  33  38
BRANCH  35  41
HETATM   41  N4  UNK     1      18.152  -0.225  38.066  1.00  0.00    -0.116 N 
HETATM   42  O6  UNK     1      18.309  -1.450  38.290  1.00  0.00    -0.532 OA
HETATM   43  O7  UNK     1      18.039   0.612  38.994  1.00  0.00    -0.532 OA
ENDBRANCH  35  41
ENDBRANCH  30  32
ENDBRANCH   1  30
TORSDOF 10
ENDMDL
MODEL 4
REMARK VINA RESULT:     -10.8     10.421     16.054
REMARK  10 active torsions:
REMARK  status: ('A' for Active; 'I' for Inactive)
REMARK    1  A    between atoms: C11_22  and  O2_2 
REMARK    2  A    between atoms: C15_26  and  O2_2 
REMARK    3  A    between atoms: N1_8  and  N2_9 
REMARK    4  A    between atoms: C21_32  and  N2_9 
REMARK    5  A    between atoms: C24_35  and  N3_10 
REMARK    6  A    between atoms: C29_40  and  N4_11 
REMARK    7  A    between atoms: C2_13  and  C4_15 
REMARK    8  A    between atoms: C4_15  and  C7_18 
REMARK    9  A    between atoms: C15_26  and  C16_27 
REMARK   10  A    between atoms: C16_27  and  C20_31 
ROOT
HETATM    1  N1  UNK     1      22.154  -6.507  38.577  1.00  0.00    -0.176 NA
HETATM    2  C16 UNK     1      22.571  -7.735  38.686  1.00  0.00     0.089 C 
ENDROOT
BRANCH   2   3
HETATM    3  C15 UNK     1      23.976  -8.132  39.116  1.00  0.00     0.237 C 
BRANCH   3   4
HETATM    4  O2  UNK     1      24.762  -8.428  37.962  1.00  0.00    -0.345 OA
BRANCH   4   5
HETATM    5  C11 UNK     1      26.087  -8.126  38.022  1.00  0.00     0.071 A 
HETATM    6  C10 UNK     1      26.502  -6.882  38.478  1.00  0.00     0.075 A 
HETATM    7  C5  UNK     1      27.869  -6.593  38.531  1.00  0.00     0.092 A 
HETATM    8  C3  UNK     1      28.843  -7.508  38.146  1.00  0.00     0.005 A 
HETATM    9  O1  UNK     1      28.218  -5.315  38.994  1.00  0.00    -0.274 OA
HETATM   10  C1  UNK     1      30.266  -7.118  38.235  1.00  0.00    -0.036 A 
HETATM   11  C8  UNK     1      28.401  -8.758  37.683  1.00  0.00     0.017 A 
HETATM   12  C2  UNK     1      30.588  -5.873  38.649  1.00  0.00     0.029 A 
HETATM   13  C9  UNK     1      31.286  -8.165  37.862  1.00  0.00     0.050 C 
HETATM   14  C6  UNK     1      29.537  -4.902  39.072  1.00  0.00     0.295 A 
HETATM   15  O3  UNK     1      29.816  -3.780  39.484  1.00  0.00    -0.259 OA
HETATM   16  C12 UNK     1      27.036  -9.064  37.623  1.00  0.00     0.038 A 
BRANCH  12  17
HETATM   17  C4  UNK     1      31.989  -5.326  38.726  1.00  0.00     0.084 C 
BRANCH  17  18
HETATM   18  C7  UNK     1      32.585  -5.102  37.367  1.00  0.00    -0.054 A 
HETATM   19  C13 UNK     1      33.843  -5.623  37.064  1.00  0.00     0.007 A 
HETATM   20  C17 UNK     1      34.398  -5.415  35.800  1.00  0.00     0.001 A 
HETATM   21  C19 UNK     1      33.694  -4.686  34.841  1.00  0.00     0.000 A 
HETATM   22  C18 UNK     1      32.436  -4.166  35.145  1.00  0.00     0.001 A 
HETATM   23  C14 UNK     1      31.882  -4.373  36.408  1.00  0.00     0.007 A 
ENDBRANCH  17  18
ENDBRANCH  12  17
ENDBRANCH   4   5
ENDBRANCH   3   4
ENDBRANCH   2   3
BRANCH   2  24
HETATM   24  C20 UNK     1      21.611  -8.827  38.354  1.00  0.00    -0.008 A 
HETATM   25  C23 UNK     1      21.736  -9.524  37.152  1.00  0.00     0.013 A 
HETATM   26  C27 UNK     1      20.838 -10.545  36.842  1.00  0.00     0.001 A 
HETATM   27  C31 UNK     1      19.815 -10.869  37.733  1.00  0.00     0.000 A 
HETATM   28  C26 UNK     1      19.690 -10.173  38.935  1.00  0.00     0.001 A 
HETATM   29  C22 UNK     1      20.588  -9.152  39.245  1.00  0.00     0.013 A 
ENDBRANCH   2  24
BRANCH   1  30
HETATM   30  N2  UNK     1      20.886  -6.308  38.174  1.00  0.00    -0.276 N 
HETATM   31  H18 UNK     1      20.132  -6.937  38.413  1.00  0.00     0.189 HD
BRANCH  30  32
HETATM   32  C21 UNK     1      20.565  -5.223  37.343  1.00  0.00     0.083 A 
HETATM   33  C24 UNK     1      20.177  -5.419  36.018  1.00  0.00     0.133 A 
HETATM   34  C28 UNK     1      19.862  -4.325  35.213  1.00  0.00     0.074 A 
HETATM   35  C29 UNK     1      19.936  -3.032  35.734  1.00  0.00     0.105 A 
HETATM   36  C30 UNK     1      20.325  -2.835  37.059  1.00  0.00     0.038 A 
HETATM   37  C25 UNK     1      20.640  -3.930  37.864  1.00  0.00     0.036 A 
BRANCH  33  38
HETATM   38  N3  UNK     1      20.091  -6.727  35.463  1.00  0.00    -0.113 N 
HETATM   39  O4  UNK     1      19.209  -7.509  35.890  1.00  0.00    -0.532 OA
HETATM   40  O5  UNK     1      20.899  -7.057  34.563  1.00  0.00    -0.532 OA
ENDBRANCH  33  38
BRANCH  35  41
HETATM   41  N4  UNK     1      19.618  -1.917  34.915  1.00  0.00    -0.116 N 
HETATM   42  O6  UNK     1      20.028  -1.896  33.729  1.00  0.00    -0.532 OA
HETATM   43  O7  UNK     1      18.938  -0.981  35.400  1.00  0.00    -0.532 OA
ENDBRANCH  35  41
ENDBRANCH  30  32
ENDBRANCH   1  30
TORSDOF 10
ENDMDL
MODEL 5
REMARK VINA RESULT:     -10.5     10.479     16.164
REMARK  10 active torsions:
REMARK  status: ('A' for Active; 'I' for Inactive)
REMARK    1  A    between atoms: C11_22  and  O2_2 
REMARK    2  A    between atoms: C15_26  and  O2_2 
REMARK    3  A    between atoms: N1_8  and  N2_9 
REMARK    4  A    between atoms: C21_32  and  N2_9 
REMARK    5  A    between atoms: C24_35  and  N3_10 
REMARK    6  A    between atoms: C29_40  and  N4_11 
REMARK    7  A    between atoms: C2_13  and  C4_15 
REMARK    8  A    between atoms: C4_15  and  C7_18 
REMARK    9  A    between atoms: C15_26  and  C16_27 
REMARK   10  A    between atoms: C16_27  and  C20_31 
ROOT
HETATM    1  N1  UNK     1      22.200  -6.597  38.246  1.00  0.00    -0.176 NA
HETATM    2  C16 UNK     1      22.576  -7.812  38.521  1.00  0.00     0.089 C 
ENDROOT
BRANCH   2   3
HETATM    3  C15 UNK     1      23.943  -8.186  39.078  1.00  0.00     0.237 C 
BRANCH   3   4
HETATM    4  O2  UNK     1      24.884  -8.279  38.009  1.00  0.00    -0.345 OA
BRANCH   4   5
HETATM    5  C11 UNK     1      26.064  -7.620  38.163  1.00  0.00     0.071 A 
HETATM    6  C10 UNK     1      27.264  -8.256  37.871  1.00  0.00     0.075 A 
HETATM    7  C5  UNK     1      28.465  -7.560  38.037  1.00  0.00     0.092 A 
HETATM    8  C3  UNK     1      28.512  -6.243  38.483  1.00  0.00     0.005 A 
HETATM    9  O1  UNK     1      29.640  -8.263  37.732  1.00  0.00    -0.274 OA
HETATM   10  C1  UNK     1      29.827  -5.585  38.630  1.00  0.00    -0.036 A 
HETATM   11  C8  UNK     1      27.288  -5.623  38.778  1.00  0.00     0.017 A 
HETATM   12  C2  UNK     1      30.952  -6.283  38.365  1.00  0.00     0.029 A 
HETATM   13  C9  UNK     1      29.822  -4.139  39.060  1.00  0.00     0.050 C 
HETATM   14  C6  UNK     1      30.893  -7.691  37.875  1.00  0.00     0.295 A 
HETATM   15  O3  UNK     1      31.905  -8.327  37.597  1.00  0.00    -0.259 OA
HETATM   16  C12 UNK     1      26.075  -6.305  38.618  1.00  0.00     0.038 A 
BRANCH  12  17
HETATM   17  C4  UNK     1      32.354  -5.757  38.534  1.00  0.00     0.084 C 
BRANCH  17  18
HETATM   18  C7  UNK     1      32.954  -5.318  37.231  1.00  0.00    -0.054 A 
HETATM   19  C13 UNK     1      34.244  -5.723  36.887  1.00  0.00     0.007 A 
HETATM   20  C17 UNK     1      34.803  -5.315  35.675  1.00  0.00     0.001 A 
HETATM   21  C19 UNK     1      34.073  -4.501  34.809  1.00  0.00     0.000 A 
HETATM   22  C18 UNK     1      32.784  -4.095  35.154  1.00  0.00     0.001 A 
HETATM   23  C14 UNK     1      32.225  -4.504  36.365  1.00  0.00     0.007 A 
ENDBRANCH  17  18
ENDBRANCH  12  17
ENDBRANCH   4   5
ENDBRANCH   3   4
ENDBRANCH   2   3
BRANCH   2  24
HETATM   24  C20 UNK     1      21.608  -8.916  38.261  1.00  0.00    -0.008 A 
HETATM   25  C23 UNK     1      21.701  -9.664  37.087  1.00  0.00     0.013 A 
HETATM   26  C27 UNK     1      20.795 -10.695  36.843  1.00  0.00     0.001 A 
HETATM   27  C31 UNK     1      19.794 -10.979  37.773  1.00  0.00     0.000 A 
HETATM   28  C26 UNK     1      19.700 -10.231  38.947  1.00  0.00     0.001 A 
HETATM   29  C22 UNK     1      20.607  -9.200  39.190  1.00  0.00     0.013 A 
ENDBRANCH   2  24
BRANCH   1  30
HETATM   30  N2  UNK     1      20.964  -6.420  37.747  1.00  0.00    -0.276 N 
HETATM   31  H18 UNK     1      20.240  -7.122  37.822  1.00  0.00     0.189 HD
BRANCH  30  32
HETATM   32  C21 UNK     1      20.641  -5.250  37.041  1.00  0.00     0.083 A 
HETATM   33  C24 UNK     1      20.216  -5.302  35.714  1.00  0.00     0.133 A 
HETATM   34  C28 UNK     1      19.901  -4.126  35.035  1.00  0.00     0.074 A 
HETATM   35  C29 UNK     1      20.010  -2.896  35.685  1.00  0.00     0.105 A 
HETATM   36  C30 UNK     1      20.435  -2.843  37.012  1.00  0.00     0.038 A 
HETATM   37  C25 UNK     1      20.751  -4.020  37.691  1.00  0.00     0.036 A 
BRANCH  33  38
HETATM   38  N3  UNK     1      20.094  -6.544  35.029  1.00  0.00    -0.113 N 
HETATM   39  O4  UNK     1      19.316  -7.414  35.488  1.00  0.00    -0.532 OA
HETATM   40  O5  UNK     1      20.767  -6.730  33.988  1.00  0.00    -0.532 OA
ENDBRANCH  33  38
BRANCH  35  41
HETATM   41  N4  UNK     1      19.692  -1.697  34.994  1.00  0.00    -0.116 N 
HETATM   42  O6  UNK     1      19.717  -1.692  33.739  1.00  0.00    -0.532 OA
HETATM   43  O7  UNK     1      19.395  -0.674  35.657  1.00  0.00    -0.532 OA
ENDBRANCH  35  41
ENDBRANCH  30  32
ENDBRANCH   1  30
TORSDOF 10
ENDMDL
MODEL 6
REMARK VINA RESULT:     -10.5      5.527     13.299
REMARK  10 active torsions:
REMARK  status: ('A' for Active; 'I' for Inactive)
REMARK    1  A    between atoms: C11_22  and  O2_2 
REMARK    2  A    between atoms: C15_26  and  O2_2 
REMARK    3  A    between atoms: N1_8  and  N2_9 
REMARK    4  A    between atoms: C21_32  and  N2_9 
REMARK    5  A    between atoms: C24_35  and  N3_10 
REMARK    6  A    between atoms: C29_40  and  N4_11 
REMARK    7  A    between atoms: C2_13  and  C4_15 
REMARK    8  A    between atoms: C4_15  and  C7_18 
REMARK    9  A    between atoms: C15_26  and  C16_27 
REMARK   10  A    between atoms: C16_27  and  C20_31 
ROOT
HETATM    1  N1  UNK     1      18.511   0.758  32.966  1.00  0.00    -0.176 NA
HETATM    2  C16 UNK     1      18.528  -0.019  34.009  1.00  0.00     0.089 C 
ENDROOT
BRANCH   2   3
HETATM    3  C15 UNK     1      19.410  -1.252  34.152  1.00  0.00     0.237 C 
BRANCH   3   4
HETATM    4  O2  UNK     1      19.818  -1.391  35.512  1.00  0.00    -0.345 OA
BRANCH   4   5
HETATM    5  C11 UNK     1      19.976  -2.657  35.984  1.00  0.00     0.071 A 
HETATM    6  C10 UNK     1      20.095  -3.723  35.102  1.00  0.00     0.075 A 
HETATM    7  C5  UNK     1      20.255  -5.016  35.609  1.00  0.00     0.092 A 
HETATM    8  C3  UNK     1      20.304  -5.285  36.974  1.00  0.00     0.005 A 
HETATM    9  O1  UNK     1      20.362  -6.048  34.664  1.00  0.00    -0.274 OA
HETATM   10  C1  UNK     1      20.477  -6.683  37.421  1.00  0.00    -0.036 A 
HETATM   11  C8  UNK     1      20.176  -4.193  37.847  1.00  0.00     0.017 A 
HETATM   12  C2  UNK     1      20.543  -7.671  36.502  1.00  0.00     0.029 A 
HETATM   13  C9  UNK     1      20.583  -6.916  38.908  1.00  0.00     0.050 C 
HETATM   14  C6  UNK     1      20.502  -7.373  35.040  1.00  0.00     0.295 A 
HETATM   15  O3  UNK     1      20.597  -8.255  34.193  1.00  0.00    -0.259 OA
HETATM   16  C12 UNK     1      20.015  -2.891  37.356  1.00  0.00     0.038 A 
BRANCH  12  17
HETATM   17  C4  UNK     1      20.654  -9.139  36.821  1.00  0.00     0.084 C 
BRANCH  17  18
HETATM   18  C7  UNK     1      22.051  -9.654  36.642  1.00  0.00    -0.054 A 
HETATM   19  C13 UNK     1      22.267 -10.876  36.003  1.00  0.00     0.007 A 
HETATM   20  C17 UNK     1      23.567 -11.355  35.837  1.00  0.00     0.001 A 
HETATM   21  C19 UNK     1      24.650 -10.614  36.311  1.00  0.00     0.000 A 
HETATM   22  C18 UNK     1      24.433  -9.393  36.949  1.00  0.00     0.001 A 
HETATM   23  C14 UNK     1      23.134  -8.914  37.115  1.00  0.00     0.007 A 
ENDBRANCH  17  18
ENDBRANCH  12  17
ENDBRANCH   4   5
ENDBRANCH   3   4
ENDBRANCH   2   3
BRANCH   2  24
HETATM   24  C20 UNK     1      17.612   0.313  35.138  1.00  0.00    -0.008 A 
HETATM   25  C23 UNK     1      18.102   0.974  36.264  1.00  0.00     0.013 A 
HETATM   26  C27 UNK     1      17.245   1.283  37.320  1.00  0.00     0.001 A 
HETATM   27  C31 UNK     1      15.897   0.930  37.250  1.00  0.00     0.000 A 
HETATM   28  C26 UNK     1      15.406   0.269  36.125  1.00  0.00     0.001 A 
HETATM   29  C22 UNK     1      16.264  -0.040  35.069  1.00  0.00     0.013 A 
ENDBRANCH   2  24
BRANCH   1  30
HETATM   30  N2  UNK     1      17.669   1.807  32.977  1.00  0.00    -0.276 N 
HETATM   31  H18 UNK     1      16.664   1.700  32.946  1.00  0.00     0.189 HD
BRANCH  30  32
HETATM   32  C21 UNK     1      18.167   3.120  32.980  1.00  0.00     0.083 A 
HETATM   33  C24 UNK     1      18.407   3.803  31.788  1.00  0.00     0.133 A 
HETATM   34  C28 UNK     1      18.900   5.107  31.817  1.00  0.00     0.074 A 
HETATM   35  C29 UNK     1      19.154   5.728  33.041  1.00  0.00     0.105 A 
HETATM   36  C30 UNK     1      18.914   5.046  34.233  1.00  0.00     0.038 A 
HETATM   37  C25 UNK     1      18.421   3.742  34.203  1.00  0.00     0.036 A 
BRANCH  33  38
HETATM   38  N3  UNK     1      18.155   3.192  30.527  1.00  0.00    -0.113 N 
HETATM   39  O4  UNK     1      17.116   2.504  30.385  1.00  0.00    -0.532 OA
HETATM   40  O5  UNK     1      18.977   3.361  29.597  1.00  0.00    -0.532 OA
ENDBRANCH  33  38
BRANCH  35  41
HETATM   41  N4  UNK     1      19.658   7.055  33.072  1.00  0.00    -0.116 N 
HETATM   42  O6  UNK     1      20.900   7.233  33.111  1.00  0.00    -0.532 OA
HETATM   43  O7  UNK     1      18.849   8.014  33.061  1.00  0.00    -0.532 OA
ENDBRANCH  35  41
ENDBRANCH  30  32
ENDBRANCH   1  30
TORSDOF 10
ENDMDL
MODEL 7
REMARK VINA RESULT:     -10.4      9.292     15.205
REMARK  10 active torsions:
REMARK  status: ('A' for Active; 'I' for Inactive)
REMARK    1  A    between atoms: C11_22  and  O2_2 
REMARK    2  A    between atoms: C15_26  and  O2_2 
REMARK    3  A    between atoms: N1_8  and  N2_9 
REMARK    4  A    between atoms: C21_32  and  N2_9 
REMARK    5  A    between atoms: C24_35  and  N3_10 
REMARK    6  A    between atoms: C29_40  and  N4_11 
REMARK    7  A    between atoms: C2_13  and  C4_15 
REMARK    8  A    between atoms: C4_15  and  C7_18 
REMARK    9  A    between atoms: C15_26  and  C16_27 
REMARK   10  A    between atoms: C16_27  and  C20_31 
ROOT
HETATM    1  N1  UNK     1      21.596  -4.381  37.658  1.00  0.00    -0.176 NA
HETATM    2  C16 UNK     1      21.804  -5.560  38.166  1.00  0.00     0.089 C 
ENDROOT
BRANCH   2   3
HETATM    3  C15 UNK     1      22.965  -5.908  39.088  1.00  0.00     0.237 C 
BRANCH   3   4
HETATM    4  O2  UNK     1      23.507  -7.174  38.714  1.00  0.00    -0.345 OA
BRANCH   4   5
HETATM    5  C11 UNK     1      24.860  -7.260  38.607  1.00  0.00     0.071 A 
HETATM    6  C10 UNK     1      25.658  -6.165  38.914  1.00  0.00     0.075 A 
HETATM    7  C5  UNK     1      27.047  -6.276  38.797  1.00  0.00     0.092 A 
HETATM    8  C3  UNK     1      27.672  -7.449  38.386  1.00  0.00     0.005 A 
HETATM    9  O1  UNK     1      27.793  -5.131  39.115  1.00  0.00    -0.274 OA
HETATM   10  C1  UNK     1      29.147  -7.477  38.291  1.00  0.00    -0.036 A 
HETATM   11  C8  UNK     1      26.846  -8.541  38.075  1.00  0.00     0.017 A 
HETATM   12  C2  UNK     1      29.851  -6.358  38.566  1.00  0.00     0.029 A 
HETATM   13  C9  UNK     1      29.781  -8.788  37.897  1.00  0.00     0.050 C 
HETATM   14  C6  UNK     1      29.174  -5.108  39.019  1.00  0.00     0.295 A 
HETATM   15  O3  UNK     1      29.802  -4.094  39.307  1.00  0.00    -0.259 OA
HETATM   16  C12 UNK     1      25.454  -8.447  38.186  1.00  0.00     0.038 A 
BRANCH  12  17
HETATM   17  C4  UNK     1      31.348  -6.229  38.448  1.00  0.00     0.084 C 
BRANCH  17  18
HETATM   18  C7  UNK     1      31.763  -5.621  37.141  1.00  0.00    -0.054 A 
HETATM   19  C13 UNK     1      32.491  -4.431  37.126  1.00  0.00     0.007 A 
HETATM   20  C17 UNK     1      32.877  -3.865  35.910  1.00  0.00     0.001 A 
HETATM   21  C19 UNK     1      32.534  -4.489  34.711  1.00  0.00     0.000 A 
HETATM   22  C18 UNK     1      31.806  -5.679  34.726  1.00  0.00     0.001 A 
HETATM   23  C14 UNK     1      31.420  -6.244  35.941  1.00  0.00     0.007 A 
ENDBRANCH  17  18
ENDBRANCH  12  17
ENDBRANCH   4   5
ENDBRANCH   3   4
ENDBRANCH   2   3
BRANCH   2  24
HETATM   24  C20 UNK     1      20.848  -6.648  37.813  1.00  0.00    -0.008 A 
HETATM   25  C23 UNK     1      19.881  -7.055  38.732  1.00  0.00     0.013 A 
HETATM   26  C27 UNK     1      18.988  -8.074  38.401  1.00  0.00     0.001 A 
HETATM   27  C31 UNK     1      19.062  -8.687  37.151  1.00  0.00     0.000 A 
HETATM   28  C26 UNK     1      20.028  -8.281  36.231  1.00  0.00     0.001 A 
HETATM   29  C22 UNK     1      20.921  -7.262  36.562  1.00  0.00     0.013 A 
ENDBRANCH   2  24
BRANCH   1  30
HETATM   30  N2  UNK     1      20.533  -4.224  36.849  1.00  0.00    -0.276 N 
HETATM   31  H18 UNK     1      20.213  -4.949  36.221  1.00  0.00     0.189 HD
BRANCH  30  32
HETATM   32  C21 UNK     1      19.843  -3.002  36.806  1.00  0.00     0.083 A 
HETATM   33  C24 UNK     1      20.040  -2.098  35.762  1.00  0.00     0.133 A 
HETATM   34  C28 UNK     1      19.342  -0.891  35.743  1.00  0.00     0.074 A 
HETATM   35  C29 UNK     1      18.446  -0.587  36.769  1.00  0.00     0.105 A 
HETATM   36  C30 UNK     1      18.249  -1.490  37.814  1.00  0.00     0.038 A 
HETATM   37  C25 UNK     1      18.948  -2.698  37.832  1.00  0.00     0.036 A 
BRANCH  33  38
HETATM   38  N3  UNK     1      20.946  -2.385  34.703  1.00  0.00    -0.113 N 
HETATM   39  O4  UNK     1      20.534  -3.037  33.714  1.00  0.00    -0.532 OA
HETATM   40  O5  UNK     1      22.128  -1.976  34.789  1.00  0.00    -0.532 OA
ENDBRANCH  33  38
BRANCH  35  41
HETATM   41  N4  UNK     1      17.737   0.643  36.751  1.00  0.00    -0.116 N 
HETATM   42  O6  UNK     1      16.570   0.666  36.290  1.00  0.00    -0.532 OA
HETATM   43  O7  UNK     1      18.297   1.674  37.196  1.00  0.00    -0.532 OA
ENDBRANCH  35  41
ENDBRANCH  30  32
ENDBRANCH   1  30
TORSDOF 10
ENDMDL
MODEL 8
REMARK VINA RESULT:     -10.4      6.579     14.463
REMARK  10 active torsions:
REMARK  status: ('A' for Active; 'I' for Inactive)
REMARK    1  A    between atoms: C11_22  and  O2_2 
REMARK    2  A    between atoms: C15_26  and  O2_2 
REMARK    3  A    between atoms: N1_8  and  N2_9 
REMARK    4  A    between atoms: C21_32  and  N2_9 
REMARK    5  A    between atoms: C24_35  and  N3_10 
REMARK    6  A    between atoms: C29_40  and  N4_11 
REMARK    7  A    between atoms: C2_13  and  C4_15 
REMARK    8  A    between atoms: C4_15  and  C7_18 
REMARK    9  A    between atoms: C15_26  and  C16_27 
REMARK   10  A    between atoms: C16_27  and  C20_31 
ROOT
HETATM    1  N1  UNK     1      18.855  -1.600  34.841  1.00  0.00    -0.176 NA
HETATM    2  C16 UNK     1      18.235  -1.664  35.983  1.00  0.00     0.089 C 
ENDROOT
BRANCH   2   3
HETATM    3  C15 UNK     1      18.223  -2.888  36.889  1.00  0.00     0.237 C 
BRANCH   3   4
HETATM    4  O2  UNK     1      19.559  -3.209  37.275  1.00  0.00    -0.345 OA
BRANCH   4   5
HETATM    5  C11 UNK     1      19.901  -4.525  37.286  1.00  0.00     0.071 A 
HETATM    6  C10 UNK     1      20.244  -5.169  36.104  1.00  0.00     0.075 A 
HETATM    7  C5  UNK     1      20.592  -6.523  36.138  1.00  0.00     0.092 A 
HETATM    8  C3  UNK     1      20.613  -7.261  37.318  1.00  0.00     0.005 A 
HETATM    9  O1  UNK     1      20.921  -7.113  34.909  1.00  0.00    -0.274 OA
HETATM   10  C1  UNK     1      20.993  -8.688  37.261  1.00  0.00    -0.036 A 
HETATM   11  C8  UNK     1      20.256  -6.592  38.499  1.00  0.00     0.017 A 
HETATM   12  C2  UNK     1      21.274  -9.253  36.066  1.00  0.00     0.029 A 
HETATM   13  C9  UNK     1      21.057  -9.430  38.573  1.00  0.00     0.050 C 
HETATM   14  C6  UNK     1      21.262  -8.452  34.808  1.00  0.00     0.295 A 
HETATM   15  O3  UNK     1      21.549  -8.942  33.721  1.00  0.00    -0.259 OA
HETATM   16  C12 UNK     1      19.905  -5.236  38.483  1.00  0.00     0.038 A 
BRANCH  12  17
HETATM   17  C4  UNK     1      21.612 -10.707  35.859  1.00  0.00     0.084 C 
BRANCH  17  18
HETATM   18  C7  UNK     1      23.075 -10.981  36.046  1.00  0.00    -0.054 A 
HETATM   19  C13 UNK     1      23.576 -12.264  35.830  1.00  0.00     0.007 A 
HETATM   20  C17 UNK     1      24.937 -12.520  36.004  1.00  0.00     0.001 A 
HETATM   21  C19 UNK     1      25.795 -11.491  36.396  1.00  0.00     0.000 A 
HETATM   22  C18 UNK     1      25.293 -10.208  36.612  1.00  0.00     0.001 A 
HETATM   23  C14 UNK     1      23.933  -9.954  36.438  1.00  0.00     0.007 A 
ENDBRANCH  17  18
ENDBRANCH  12  17
ENDBRANCH   4   5
ENDBRANCH   3   4
ENDBRANCH   2   3
BRANCH   2  24
HETATM   24  C20 UNK     1      17.473  -0.463  36.429  1.00  0.00    -0.008 A 
HETATM   25  C23 UNK     1      18.027   0.406  37.370  1.00  0.00     0.013 A 
HETATM   26  C27 UNK     1      17.313   1.529  37.788  1.00  0.00     0.001 A 
HETATM   27  C31 UNK     1      16.045   1.783  37.265  1.00  0.00     0.000 A 
HETATM   28  C26 UNK     1      15.490   0.915  36.325  1.00  0.00     0.001 A 
HETATM   29  C22 UNK     1      16.204  -0.208  35.907  1.00  0.00     0.013 A 
ENDBRANCH   2  24
BRANCH   1  30
HETATM   30  N2  UNK     1      18.767  -0.454  34.143  1.00  0.00    -0.276 N 
HETATM   31  H18 UNK     1      18.430   0.408  34.548  1.00  0.00     0.189 HD
BRANCH  30  32
HETATM   32  C21 UNK     1      19.099  -0.424  32.778  1.00  0.00     0.083 A 
HETATM   33  C24 UNK     1      18.857   0.709  32.002  1.00  0.00     0.133 A 
HETATM   34  C28 UNK     1      19.196   0.714  30.649  1.00  0.00     0.074 A 
HETATM   35  C29 UNK     1      19.778  -0.415  30.072  1.00  0.00     0.105 A 
HETATM   36  C30 UNK     1      20.020  -1.549  30.848  1.00  0.00     0.038 A 
HETATM   37  C25 UNK     1      19.680  -1.554  32.201  1.00  0.00     0.036 A 
BRANCH  33  38
HETATM   38  N3  UNK     1      18.267   1.875  32.566  1.00  0.00    -0.113 N 
HETATM   39  O4  UNK     1      17.689   2.688  31.807  1.00  0.00    -0.532 OA
HETATM   40  O5  UNK     1      18.342   2.054  33.805  1.00  0.00    -0.532 OA
ENDBRANCH  33  38
BRANCH  35  41
HETATM   41  N4  UNK     1      20.121  -0.413  28.695  1.00  0.00    -0.116 N 
HETATM   42  O6  UNK     1      19.215  -0.252  27.842  1.00  0.00    -0.532 OA
HETATM   43  O7  UNK     1      21.322  -0.573  28.367  1.00  0.00    -0.532 OA
ENDBRANCH  35  41
ENDBRANCH  30  32
ENDBRANCH   1  30
TORSDOF 10
ENDMDL
MODEL 9
REMARK VINA RESULT:     -10.2     15.899     19.285
REMARK  10 active torsions:
REMARK  status: ('A' for Active; 'I' for Inactive)
REMARK    1  A    between atoms: C11_22  and  O2_2 
REMARK    2  A    between atoms: C15_26  and  O2_2 
REMARK    3  A    between atoms: N1_8  and  N2_9 
REMARK    4  A    between atoms: C21_32  and  N2_9 
REMARK    5  A    between atoms: C24_35  and  N3_10 
REMARK    6  A    between atoms: C29_40  and  N4_11 
REMARK    7  A    between atoms: C2_13  and  C4_15 
REMARK    8  A    between atoms: C4_15  and  C7_18 
REMARK    9  A    between atoms: C15_26  and  C16_27 
REMARK   10  A    between atoms: C16_27  and  C20_31 
ROOT
HETATM    1  N1  UNK     1      31.949  -9.154  30.568  1.00  0.00    -0.176 NA
HETATM    2  C16 UNK     1      30.653  -9.218  30.658  1.00  0.00     0.089 C 
ENDROOT
BRANCH   2   3
HETATM    3  C15 UNK     1      29.845 -10.506  30.568  1.00  0.00     0.237 C 
BRANCH   3   4
HETATM    4  O2  UNK     1      30.263 -11.402  31.597  1.00  0.00    -0.345 OA
BRANCH   4   5
HETATM    5  C11 UNK     1      30.248 -10.930  32.873  1.00  0.00     0.071 A 
HETATM    6  C10 UNK     1      29.104 -10.331  33.385  1.00  0.00     0.075 A 
HETATM    7  C5  UNK     1      29.112  -9.853  34.699  1.00  0.00     0.092 A 
HETATM    8  C3  UNK     1      30.226  -9.953  35.526  1.00  0.00     0.005 A 
HETATM    9  O1  UNK     1      27.926  -9.253  35.150  1.00  0.00    -0.274 OA
HETATM   10  C1  UNK     1      30.144  -9.419  36.902  1.00  0.00    -0.036 A 
HETATM   11  C8  UNK     1      31.373 -10.556  34.985  1.00  0.00     0.017 A 
HETATM   12  C2  UNK     1      29.009  -8.814  37.313  1.00  0.00     0.029 A 
HETATM   13  C9  UNK     1      31.358  -9.605  37.779  1.00  0.00     0.050 C 
HETATM   14  C6  UNK     1      27.815  -8.721  36.424  1.00  0.00     0.295 A 
HETATM   15  O3  UNK     1      26.765  -8.205  36.795  1.00  0.00    -0.259 OA
HETATM   16  C12 UNK     1      31.383 -11.041  33.672  1.00  0.00     0.038 A 
BRANCH  12  17
HETATM   17  C4  UNK     1      28.814  -8.172  38.662  1.00  0.00     0.084 C 
BRANCH  17  18
HETATM   18  C7  UNK     1      29.187  -6.718  38.657  1.00  0.00    -0.054 A 
HETATM   19  C13 UNK     1      30.519  -6.342  38.480  1.00  0.00     0.007 A 
HETATM   20  C17 UNK     1      30.866  -4.990  38.475  1.00  0.00     0.001 A 
HETATM   21  C19 UNK     1      29.882  -4.017  38.649  1.00  0.00     0.000 A 
HETATM   22  C18 UNK     1      28.551  -4.394  38.827  1.00  0.00     0.001 A 
HETATM   23  C14 UNK     1      28.205  -5.745  38.831  1.00  0.00     0.007 A 
ENDBRANCH  17  18
ENDBRANCH  12  17
ENDBRANCH   4   5
ENDBRANCH   3   4
ENDBRANCH   2   3
BRANCH   2  24
HETATM   24  C20 UNK     1      29.905  -7.942  30.846  1.00  0.00    -0.008 A 
HETATM   25  C23 UNK     1      29.906  -7.310  32.090  1.00  0.00     0.013 A 
HETATM   26  C27 UNK     1      29.205  -6.117  32.266  1.00  0.00     0.001 A 
HETATM   27  C31 UNK     1      28.504  -5.556  31.199  1.00  0.00     0.000 A 
HETATM   28  C26 UNK     1      28.502  -6.187  29.956  1.00  0.00     0.001 A 
HETATM   29  C22 UNK     1      29.203  -7.380  29.779  1.00  0.00     0.013 A 
ENDBRANCH   2  24
BRANCH   1  30
HETATM   30  N2  UNK     1      32.525  -7.942  30.654  1.00  0.00    -0.276 N 
HETATM   31  H18 UNK     1      32.316  -7.192  30.010  1.00  0.00     0.189 HD
BRANCH  30  32
HETATM   32  C21 UNK     1      33.501  -7.684  31.631  1.00  0.00     0.083 A 
HETATM   33  C24 UNK     1      34.797  -7.314  31.276  1.00  0.00     0.133 A 
HETATM   34  C28 UNK     1      35.747  -7.062  32.265  1.00  0.00     0.074 A 
HETATM   35  C29 UNK     1      35.400  -7.180  33.611  1.00  0.00     0.105 A 
HETATM   36  C30 UNK     1      34.103  -7.551  33.967  1.00  0.00     0.038 A 
HETATM   37  C25 UNK     1      33.153  -7.803  32.977  1.00  0.00     0.036 A 
BRANCH  33  38
HETATM   38  N3  UNK     1      35.177  -7.184  29.910  1.00  0.00    -0.113 N 
HETATM   39  O4  UNK     1      35.559  -6.065  29.493  1.00  0.00    -0.532 OA
HETATM   40  O5  UNK     1      35.120  -8.192  29.166  1.00  0.00    -0.532 OA
ENDBRANCH  33  38
BRANCH  35  41
HETATM   41  N4  UNK     1      36.367  -6.927  34.619  1.00  0.00    -0.116 N 
HETATM   42  O6  UNK     1      36.018  -6.308  35.654  1.00  0.00    -0.532 OA
HETATM   43  O7  UNK     1      37.543  -7.327  34.448  1.00  0.00    -0.532 OA
ENDBRANCH  35  41
ENDBRANCH  30  32
ENDBRANCH   1  30
TORSDOF 10
ENDMDL
MODEL 10
REMARK VINA RESULT:     -10.1      5.577     13.449
REMARK  10 active torsions:
REMARK  status: ('A' for Active; 'I' for Inactive)
REMARK    1  A    between atoms: C11_22  and  O2_2 
REMARK    2  A    between atoms: C15_26  and  O2_2 
REMARK    3  A    between atoms: N1_8  and  N2_9 
REMARK    4  A    between atoms: C21_32  and  N2_9 
REMARK    5  A    between atoms: C24_35  and  N3_10 
REMARK    6  A    between atoms: C29_40  and  N4_11 
REMARK    7  A    between atoms: C2_13  and  C4_15 
REMARK    8  A    between atoms: C4_15  and  C7_18 
REMARK    9  A    between atoms: C15_26  and  C16_27 
REMARK   10  A    between atoms: C16_27  and  C20_31 
ROOT
HETATM    1  N1  UNK     1      18.716   0.285  33.152  1.00  0.00    -0.176 NA
HETATM    2  C16 UNK     1      18.705  -0.190  34.363  1.00  0.00     0.089 C 
ENDROOT
BRANCH   2   3
HETATM    3  C15 UNK     1      19.693  -1.220  34.894  1.00  0.00     0.237 C 
BRANCH   3   4
HETATM    4  O2  UNK     1      19.392  -1.509  36.258  1.00  0.00    -0.345 OA
BRANCH   4   5
HETATM    5  C11 UNK     1      19.519  -2.803  36.659  1.00  0.00     0.071 A 
HETATM    6  C10 UNK     1      20.731  -3.267  37.154  1.00  0.00     0.075 A 
HETATM    7  C5  UNK     1      20.839  -4.601  37.560  1.00  0.00     0.092 A 
HETATM    8  C3  UNK     1      19.773  -5.493  37.493  1.00  0.00     0.005 A 
HETATM    9  O1  UNK     1      22.093  -5.006  38.043  1.00  0.00    -0.274 OA
HETATM   10  C1  UNK     1      19.978  -6.885  37.944  1.00  0.00    -0.036 A 
HETATM   11  C8  UNK     1      18.560  -5.004  36.984  1.00  0.00     0.017 A 
HETATM   12  C2  UNK     1      21.198  -7.271  38.374  1.00  0.00     0.029 A 
HETATM   13  C9  UNK     1      18.776  -7.798  37.906  1.00  0.00     0.050 C 
HETATM   14  C6  UNK     1      22.332  -6.305  38.455  1.00  0.00     0.295 A 
HETATM   15  O3  UNK     1      23.437  -6.633  38.877  1.00  0.00    -0.259 OA
HETATM   16  C12 UNK     1      18.434  -3.671  36.573  1.00  0.00     0.038 A 
BRANCH  12  17
HETATM   17  C4  UNK     1      21.559  -8.671  38.800  1.00  0.00     0.084 C 
BRANCH  17  18
HETATM   18  C7  UNK     1      21.790  -9.578  37.628  1.00  0.00    -0.054 A 
HETATM   19  C13 UNK     1      22.993  -9.513  36.923  1.00  0.00     0.007 A 
HETATM   20  C17 UNK     1      23.208 -10.357  35.833  1.00  0.00     0.001 A 
HETATM   21  C19 UNK     1      22.221 -11.264  35.447  1.00  0.00     0.000 A 
HETATM   22  C18 UNK     1      21.019 -11.328  36.152  1.00  0.00     0.001 A 
HETATM   23  C14 UNK     1      20.804 -10.485  37.242  1.00  0.00     0.007 A 
ENDBRANCH  17  18
ENDBRANCH  12  17
ENDBRANCH   4   5
ENDBRANCH   3   4
ENDBRANCH   2   3
BRANCH   2  24
HETATM   24  C20 UNK     1      17.645   0.297  35.292  1.00  0.00    -0.008 A 
HETATM   25  C23 UNK     1      17.960   1.220  36.289  1.00  0.00     0.013 A 
HETATM   26  C27 UNK     1      16.968   1.674  37.158  1.00  0.00     0.001 A 
HETATM   27  C31 UNK     1      15.661   1.206  37.029  1.00  0.00     0.000 A 
HETATM   28  C26 UNK     1      15.344   0.284  36.033  1.00  0.00     0.001 A 
HETATM   29  C22 UNK     1      16.336  -0.171  35.164  1.00  0.00     0.013 A 
ENDBRANCH   2  24
BRANCH   1  30
HETATM   30  N2  UNK     1      17.771   1.183  32.821  1.00  0.00    -0.276 N 
HETATM   31  H18 UNK     1      16.787   0.954  32.793  1.00  0.00     0.189 HD
BRANCH  30  32
HETATM   32  C21 UNK     1      18.129   2.487  32.442  1.00  0.00     0.083 A 
HETATM   33  C24 UNK     1      18.461   2.789  31.122  1.00  0.00     0.133 A 
HETATM   34  C28 UNK     1      18.813   4.092  30.770  1.00  0.00     0.074 A 
HETATM   35  C29 UNK     1      18.831   5.094  31.741  1.00  0.00     0.105 A 
HETATM   36  C30 UNK     1      18.499   4.793  33.062  1.00  0.00     0.038 A 
HETATM   37  C25 UNK     1      18.148   3.489  33.412  1.00  0.00     0.036 A 
BRANCH  33  38
HETATM   38  N3  UNK     1      18.448   1.785  30.112  1.00  0.00    -0.113 N 
HETATM   39  O4  UNK     1      17.485   1.747  29.310  1.00  0.00    -0.532 OA
HETATM   40  O5  UNK     1      19.400   0.972  30.054  1.00  0.00    -0.532 OA
ENDBRANCH  33  38
BRANCH  35  41
HETATM   41  N4  UNK     1      19.191   6.421  31.385  1.00  0.00    -0.116 N 
HETATM   42  O6  UNK     1      19.303   7.284  32.289  1.00  0.00    -0.532 OA
HETATM   43  O7  UNK     1      19.386   6.694  30.176  1.00  0.00    -0.532 OA
ENDBRANCH  35  41
ENDBRANCH  30  32
ENDBRANCH   1  30
TORSDOF 10
ENDMDL
