MODEL 1
REMARK VINA RESULT:      -8.3      0.000      0.000
REMARK  4 active torsions:
REMARK  status: ('A' for Active; 'I' for Inactive)
REMARK    1  A    between atoms: C6_8  and  S1_1 
REMARK    2  A    between atoms: C1_3  and  C5_7 
REMARK    3  A    between atoms: C2_4  and  C9_11 
REMARK    4  A    between atoms: C10_12  and  C9_11 
ROOT
HETATM    1  C5  UNK     1      19.064   4.172  30.456  1.00  0.00     0.015 C 
HETATM    2  C10 UNK     1      18.246   3.115  30.386  1.00  0.00     0.056 C 
ENDROOT
BRANCH   1   3
HETATM    3  C1  UNK     1      19.035   5.229  31.454  1.00  0.00    -0.036 A 
HETATM    4  C3  UNK     1      20.223   5.831  31.868  1.00  0.00     0.012 A 
HETATM    5  C7  UNK     1      20.194   6.844  32.826  1.00  0.00     0.019 A 
HETATM    6  C6  UNK     1      18.978   7.257  33.369  1.00  0.00    -0.000 A 
HETATM    7  C8  UNK     1      17.789   6.655  32.955  1.00  0.00     0.019 A 
HETATM    8  C4  UNK     1      17.818   5.641  31.998  1.00  0.00     0.012 A 
BRANCH   6   9
HETATM    9  S1  UNK     1      18.941   8.550  34.594  1.00  0.00    -0.134 SA
HETATM   10  C16 UNK     1      17.643   9.593  33.894  1.00  0.00     0.095 C 
ENDBRANCH   6   9
ENDBRANCH   1   3
BRANCH   2  11
HETATM   11  C9  UNK     1      18.402   2.115  29.279  1.00  0.00     0.182 C 
HETATM   12  O1  UNK     1      17.908   2.351  28.176  1.00  0.00    -0.288 OA
BRANCH  11  13
HETATM   13  C2  UNK     1      19.109   0.861  29.567  1.00  0.00     0.014 A 
HETATM   14  C11 UNK     1      19.477   0.028  28.520  1.00  0.00     0.015 A 
HETATM   15  C13 UNK     1      20.149  -1.164  28.794  1.00  0.00     0.001 A 
HETATM   16  C15 UNK     1      20.446  -1.509  30.112  1.00  0.00     0.000 A 
HETATM   17  C14 UNK     1      20.071  -0.665  31.157  1.00  0.00     0.001 A 
HETATM   18  C12 UNK     1      19.399   0.527  30.882  1.00  0.00     0.015 A 
ENDBRANCH  11  13
ENDBRANCH   2  11
TORSDOF 4
ENDMDL
MODEL 2
REMARK VINA RESULT:      -7.3      1.868      2.666
REMARK  4 active torsions:
REMARK  status: ('A' for Active; 'I' for Inactive)
REMARK    1  A    between atoms: C6_8  and  S1_1 
REMARK    2  A    between atoms: C1_3  and  C5_7 
REMARK    3  A    between atoms: C2_4  and  C9_11 
REMARK    4  A    between atoms: C10_12  and  C9_11 
ROOT
HETATM    1  C5  UNK     1      18.221   4.839  33.328  1.00  0.00     0.015 C 
HETATM    2  C10 UNK     1      18.266   4.157  32.178  1.00  0.00     0.056 C 
ENDROOT
BRANCH   1   3
HETATM    3  C1  UNK     1      18.321   6.281  33.488  1.00  0.00    -0.036 A 
HETATM    4  C3  UNK     1      19.405   6.834  34.171  1.00  0.00     0.012 A 
HETATM    5  C7  UNK     1      19.498   8.217  34.325  1.00  0.00     0.019 A 
HETATM    6  C6  UNK     1      18.511   9.047  33.797  1.00  0.00    -0.000 A 
HETATM    7  C8  UNK     1      17.427   8.494  33.115  1.00  0.00     0.019 A 
HETATM    8  C4  UNK     1      17.332   7.111  32.961  1.00  0.00     0.012 A 
BRANCH   6   9
HETATM    9  S1  UNK     1      18.630  10.814  33.997  1.00  0.00    -0.134 SA
HETATM   10  C16 UNK     1      16.883  11.211  34.226  1.00  0.00     0.095 C 
ENDBRANCH   6   9
ENDBRANCH   1   3
BRANCH   2  11
HETATM   11  C9  UNK     1      18.161   2.661  32.184  1.00  0.00     0.182 C 
HETATM   12  O1  UNK     1      17.819   2.082  33.216  1.00  0.00    -0.288 OA
BRANCH  11  13
HETATM   13  C2  UNK     1      18.513   1.932  30.959  1.00  0.00     0.014 A 
HETATM   14  C11 UNK     1      19.407   0.873  31.027  1.00  0.00     0.015 A 
HETATM   15  C13 UNK     1      19.742   0.181  29.863  1.00  0.00     0.001 A 
HETATM   16  C15 UNK     1      19.179   0.557  28.643  1.00  0.00     0.000 A 
HETATM   17  C14 UNK     1      18.282   1.623  28.586  1.00  0.00     0.001 A 
HETATM   18  C12 UNK     1      17.948   2.314  29.751  1.00  0.00     0.015 A 
ENDBRANCH  11  13
ENDBRANCH   2  11
TORSDOF 4
ENDMDL
MODEL 3
REMARK VINA RESULT:      -7.0      3.139      7.792
REMARK  4 active torsions:
REMARK  status: ('A' for Active; 'I' for Inactive)
REMARK    1  A    between atoms: C6_8  and  S1_1 
REMARK    2  A    between atoms: C1_3  and  C5_7 
REMARK    3  A    between atoms: C2_4  and  C9_11 
REMARK    4  A    between atoms: C10_12  and  C9_11 
ROOT
HETATM    1  C5  UNK     1      17.752   3.708  31.574  1.00  0.00     0.015 C 
HETATM    2  C10 UNK     1      18.235   4.954  31.634  1.00  0.00     0.056 C 
ENDROOT
BRANCH   1   3
HETATM    3  C1  UNK     1      18.380   2.562  30.936  1.00  0.00    -0.036 A 
HETATM    4  C3  UNK     1      18.995   1.580  31.714  1.00  0.00     0.012 A 
HETATM    5  C7  UNK     1      19.597   0.482  31.101  1.00  0.00     0.019 A 
HETATM    6  C6  UNK     1      19.584   0.363  29.711  1.00  0.00    -0.000 A 
HETATM    7  C8  UNK     1      18.968   1.345  28.934  1.00  0.00     0.019 A 
HETATM    8  C4  UNK     1      18.367   2.444  29.546  1.00  0.00     0.012 A 
BRANCH   6   9
HETATM    9  S1  UNK     1      20.355  -1.040  28.929  1.00  0.00    -0.134 SA
HETATM   10  C16 UNK     1      20.370  -2.192  30.320  1.00  0.00     0.095 C 
ENDBRANCH   6   9
ENDBRANCH   1   3
BRANCH   2  11
HETATM   11  C9  UNK     1      17.453   6.033  32.323  1.00  0.00     0.182 C 
HETATM   12  O1  UNK     1      16.223   6.009  32.283  1.00  0.00    -0.288 OA
BRANCH  11  13
HETATM   13  C2  UNK     1      18.193   7.110  32.992  1.00  0.00     0.014 A 
HETATM   14  C11 UNK     1      17.562   8.322  33.239  1.00  0.00     0.015 A 
HETATM   15  C13 UNK     1      18.265   9.345  33.874  1.00  0.00     0.001 A 
HETATM   16  C15 UNK     1      19.592   9.146  34.257  1.00  0.00     0.000 A 
HETATM   17  C14 UNK     1      20.216   7.925  34.004  1.00  0.00     0.001 A 
HETATM   18  C12 UNK     1      19.512   6.901  33.368  1.00  0.00     0.015 A 
ENDBRANCH  11  13
ENDBRANCH   2  11
TORSDOF 4
ENDMDL
MODEL 4
REMARK VINA RESULT:      -6.8     22.656     24.114
REMARK  4 active torsions:
REMARK  status: ('A' for Active; 'I' for Inactive)
REMARK    1  A    between atoms: C6_8  and  S1_1 
REMARK    2  A    between atoms: C1_3  and  C5_7 
REMARK    3  A    between atoms: C2_4  and  C9_11 
REMARK    4  A    between atoms: C10_12  and  C9_11 
ROOT
HETATM    1  C5  UNK     1      13.795   8.190   9.374  1.00  0.00     0.015 C 
HETATM    2  C10 UNK     1      13.710   6.886   9.095  1.00  0.00     0.056 C 
ENDROOT
BRANCH   1   3
HETATM    3  C1  UNK     1      14.972   9.034   9.241  1.00  0.00    -0.036 A 
HETATM    4  C3  UNK     1      14.943  10.146   8.399  1.00  0.00     0.012 A 
HETATM    5  C7  UNK     1      16.073  10.953   8.272  1.00  0.00     0.019 A 
HETATM    6  C6  UNK     1      17.232  10.651   8.987  1.00  0.00    -0.000 A 
HETATM    7  C8  UNK     1      17.261   9.539   9.829  1.00  0.00     0.019 A 
HETATM    8  C4  UNK     1      16.132   8.731   9.956  1.00  0.00     0.012 A 
BRANCH   6   9
HETATM    9  S1  UNK     1      18.676  11.682   8.822  1.00  0.00    -0.134 SA
HETATM   10  C16 UNK     1      18.569  12.072   7.061  1.00  0.00     0.095 C 
ENDBRANCH   6   9
ENDBRANCH   1   3
BRANCH   2  11
HETATM   11  C9  UNK     1      12.417   6.153   9.300  1.00  0.00     0.182 C 
HETATM   12  O1  UNK     1      12.230   5.537  10.349  1.00  0.00    -0.288 OA
BRANCH  11  13
HETATM   13  C2  UNK     1      11.429   6.167   8.214  1.00  0.00     0.014 A 
HETATM   14  C11 UNK     1      11.863   6.187   6.896  1.00  0.00     0.015 A 
HETATM   15  C13 UNK     1      10.925   6.201   5.864  1.00  0.00     0.001 A 
HETATM   16  C15 UNK     1       9.562   6.193   6.161  1.00  0.00     0.000 A 
HETATM   17  C14 UNK     1       9.137   6.173   7.489  1.00  0.00     0.001 A 
HETATM   18  C12 UNK     1      10.076   6.159   8.520  1.00  0.00     0.015 A 
ENDBRANCH  11  13
ENDBRANCH   2  11
TORSDOF 4
ENDMDL
MODEL 5
REMARK VINA RESULT:      -6.8      3.879      4.742
REMARK  4 active torsions:
REMARK  status: ('A' for Active; 'I' for Inactive)
REMARK    1  A    between atoms: C6_8  and  S1_1 
REMARK    2  A    between atoms: C1_3  and  C5_7 
REMARK    3  A    between atoms: C2_4  and  C9_11 
REMARK    4  A    between atoms: C10_12  and  C9_11 
ROOT
HETATM    1  C5  UNK     1      18.216   4.128  33.472  1.00  0.00     0.015 C 
HETATM    2  C10 UNK     1      18.287   3.252  34.479  1.00  0.00     0.056 C 
ENDROOT
BRANCH   1   3
HETATM    3  C1  UNK     1      18.270   5.578  33.574  1.00  0.00    -0.036 A 
HETATM    4  C3  UNK     1      19.457   6.207  33.949  1.00  0.00     0.012 A 
HETATM    5  C7  UNK     1      19.508   7.598  34.048  1.00  0.00     0.019 A 
HETATM    6  C6  UNK     1      18.373   8.359  33.770  1.00  0.00    -0.000 A 
HETATM    7  C8  UNK     1      17.186   7.730  33.395  1.00  0.00     0.019 A 
HETATM    8  C4  UNK     1      17.135   6.340  33.297  1.00  0.00     0.012 A 
BRANCH   6   9
HETATM    9  S1  UNK     1      18.438  10.135  33.898  1.00  0.00    -0.134 SA
HETATM   10  C16 UNK     1      16.688  10.482  34.183  1.00  0.00     0.095 C 
ENDBRANCH   6   9
ENDBRANCH   1   3
BRANCH   2  11
HETATM   11  C9  UNK     1      18.202   1.780  34.205  1.00  0.00     0.182 C 
HETATM   12  O1  UNK     1      18.205   1.379  33.041  1.00  0.00    -0.288 OA
BRANCH  11  13
HETATM   13  C2  UNK     1      18.077   0.865  35.347  1.00  0.00     0.014 A 
HETATM   14  C11 UNK     1      17.807   1.379  36.608  1.00  0.00     0.015 A 
HETATM   15  C13 UNK     1      17.689   0.511  37.693  1.00  0.00     0.001 A 
HETATM   16  C15 UNK     1      17.842  -0.863  37.505  1.00  0.00     0.000 A 
HETATM   17  C14 UNK     1      18.113  -1.369  36.234  1.00  0.00     0.001 A 
HETATM   18  C12 UNK     1      18.231  -0.499  35.149  1.00  0.00     0.015 A 
ENDBRANCH  11  13
ENDBRANCH   2  11
TORSDOF 4
ENDMDL
MODEL 6
REMARK VINA RESULT:      -6.8     22.682     24.144
REMARK  4 active torsions:
REMARK  status: ('A' for Active; 'I' for Inactive)
REMARK    1  A    between atoms: C6_8  and  S1_1 
REMARK    2  A    between atoms: C1_3  and  C5_7 
REMARK    3  A    between atoms: C2_4  and  C9_11 
REMARK    4  A    between atoms: C10_12  and  C9_11 
ROOT
HETATM    1  C5  UNK     1      13.806   8.206   9.364  1.00  0.00     0.015 C 
HETATM    2  C10 UNK     1      13.709   6.908   9.058  1.00  0.00     0.056 C 
ENDROOT
BRANCH   1   3
HETATM    3  C1  UNK     1      14.982   9.048   9.219  1.00  0.00    -0.036 A 
HETATM    4  C3  UNK     1      16.138   8.765   9.947  1.00  0.00     0.012 A 
HETATM    5  C7  UNK     1      17.265   9.575   9.808  1.00  0.00     0.019 A 
HETATM    6  C6  UNK     1      17.239  10.666   8.940  1.00  0.00    -0.000 A 
HETATM    7  C8  UNK     1      16.083  10.949   8.212  1.00  0.00     0.019 A 
HETATM    8  C4  UNK     1      14.955  10.141   8.351  1.00  0.00     0.012 A 
BRANCH   6   9
HETATM    9  S1  UNK     1      18.678  11.701   8.764  1.00  0.00    -0.134 SA
HETATM   10  C16 UNK     1      18.443  12.260   7.062  1.00  0.00     0.095 C 
ENDBRANCH   6   9
ENDBRANCH   1   3
BRANCH   2  11
HETATM   11  C9  UNK     1      12.419   6.175   9.281  1.00  0.00     0.182 C 
HETATM   12  O1  UNK     1      12.244   5.564  10.335  1.00  0.00    -0.288 OA
BRANCH  11  13
HETATM   13  C2  UNK     1      11.419   6.182   8.205  1.00  0.00     0.014 A 
HETATM   14  C11 UNK     1      10.069   6.159   8.528  1.00  0.00     0.015 A 
HETATM   15  C13 UNK     1       9.119   6.165   7.506  1.00  0.00     0.001 A 
HETATM   16  C15 UNK     1       9.530   6.194   6.173  1.00  0.00     0.000 A 
HETATM   17  C14 UNK     1      10.889   6.217   5.861  1.00  0.00     0.001 A 
HETATM   18  C12 UNK     1      11.838   6.211   6.884  1.00  0.00     0.015 A 
ENDBRANCH  11  13
ENDBRANCH   2  11
TORSDOF 4
ENDMDL
MODEL 7
REMARK VINA RESULT:      -6.8     22.752     24.251
REMARK  4 active torsions:
REMARK  status: ('A' for Active; 'I' for Inactive)
REMARK    1  A    between atoms: C6_8  and  S1_1 
REMARK    2  A    between atoms: C1_3  and  C5_7 
REMARK    3  A    between atoms: C2_4  and  C9_11 
REMARK    4  A    between atoms: C10_12  and  C9_11 
ROOT
HETATM    1  C5  UNK     1      13.835   7.122   9.011  1.00  0.00     0.015 C 
HETATM    2  C10 UNK     1      13.534   6.456   7.891  1.00  0.00     0.056 C 
ENDROOT
BRANCH   1   3
HETATM    3  C1  UNK     1      14.865   8.136   9.169  1.00  0.00    -0.036 A 
HETATM    4  C3  UNK     1      16.023   7.848   9.893  1.00  0.00     0.012 A 
HETATM    5  C7  UNK     1      17.010   8.821  10.045  1.00  0.00     0.019 A 
HETATM    6  C6  UNK     1      16.842  10.082   9.473  1.00  0.00    -0.000 A 
HETATM    7  C8  UNK     1      15.684  10.370   8.749  1.00  0.00     0.019 A 
HETATM    8  C4  UNK     1      14.696   9.397   8.597  1.00  0.00     0.012 A 
BRANCH   6   9
HETATM    9  S1  UNK     1      18.103  11.326   9.668  1.00  0.00    -0.134 SA
HETATM   10  C16 UNK     1      18.671  11.451   7.959  1.00  0.00     0.095 C 
ENDBRANCH   6   9
ENDBRANCH   1   3
BRANCH   2  11
HETATM   11  C9  UNK     1      12.444   5.425   7.898  1.00  0.00     0.182 C 
HETATM   12  O1  UNK     1      12.702   4.273   8.248  1.00  0.00    -0.288 OA
BRANCH  11  13
HETATM   13  C2  UNK     1      11.105   5.824   7.445  1.00  0.00     0.014 A 
HETATM   14  C11 UNK     1      10.897   6.116   6.104  1.00  0.00     0.015 A 
HETATM   15  C13 UNK     1       9.626   6.496   5.673  1.00  0.00     0.001 A 
HETATM   16  C15 UNK     1       8.576   6.579   6.588  1.00  0.00     0.000 A 
HETATM   17  C14 UNK     1       8.797   6.283   7.933  1.00  0.00     0.001 A 
HETATM   18  C12 UNK     1      10.069   5.903   8.363  1.00  0.00     0.015 A 
ENDBRANCH  11  13
ENDBRANCH   2  11
TORSDOF 4
ENDMDL
MODEL 8
REMARK VINA RESULT:      -6.7      8.661     11.946
REMARK  4 active torsions:
REMARK  status: ('A' for Active; 'I' for Inactive)
REMARK    1  A    between atoms: C6_8  and  S1_1 
REMARK    2  A    between atoms: C1_3  and  C5_7 
REMARK    3  A    between atoms: C2_4  and  C9_11 
REMARK    4  A    between atoms: C10_12  and  C9_11 
ROOT
HETATM    1  C5  UNK     1      19.820  -3.943  36.400  1.00  0.00     0.015 C 
HETATM    2  C10 UNK     1      19.318  -2.817  36.917  1.00  0.00     0.056 C 
ENDROOT
BRANCH   1   3
HETATM    3  C1  UNK     1      19.998  -5.212  37.088  1.00  0.00    -0.036 A 
HETATM    4  C3  UNK     1      21.114  -5.416  37.899  1.00  0.00     0.012 A 
HETATM    5  C7  UNK     1      21.283  -6.634  38.557  1.00  0.00     0.019 A 
HETATM    6  C6  UNK     1      20.337  -7.647  38.406  1.00  0.00    -0.000 A 
HETATM    7  C8  UNK     1      19.221  -7.443  37.595  1.00  0.00     0.019 A 
HETATM    8  C4  UNK     1      19.051  -6.226  36.936  1.00  0.00     0.012 A 
BRANCH   6   9
HETATM    9  S1  UNK     1      20.556  -9.204  39.246  1.00  0.00    -0.134 SA
HETATM   10  C16 UNK     1      19.335 -10.198  38.361  1.00  0.00     0.095 C 
ENDBRANCH   6   9
ENDBRANCH   1   3
BRANCH   2  11
HETATM   11  C9  UNK     1      19.213  -1.581  36.072  1.00  0.00     0.182 C 
HETATM   12  O1  UNK     1      20.153  -1.264  35.344  1.00  0.00    -0.288 OA
BRANCH  11  13
HETATM   13  C2  UNK     1      17.995  -0.767  36.177  1.00  0.00     0.014 A 
HETATM   14  C11 UNK     1      17.834   0.083  37.262  1.00  0.00     0.015 A 
HETATM   15  C13 UNK     1      16.677   0.856  37.363  1.00  0.00     0.001 A 
HETATM   16  C15 UNK     1      15.694   0.771  36.376  1.00  0.00     0.000 A 
HETATM   17  C14 UNK     1      15.867  -0.087  35.291  1.00  0.00     0.001 A 
HETATM   18  C12 UNK     1      17.025  -0.860  35.191  1.00  0.00     0.015 A 
ENDBRANCH  11  13
ENDBRANCH   2  11
TORSDOF 4
ENDMDL
MODEL 9
REMARK VINA RESULT:      -6.7      8.590     10.644
REMARK  4 active torsions:
REMARK  status: ('A' for Active; 'I' for Inactive)
REMARK    1  A    between atoms: C6_8  and  S1_1 
REMARK    2  A    between atoms: C1_3  and  C5_7 
REMARK    3  A    between atoms: C2_4  and  C9_11 
REMARK    4  A    between atoms: C10_12  and  C9_11 
ROOT
HETATM    1  C5  UNK     1      20.580  -3.566  37.041  1.00  0.00     0.015 C 
HETATM    2  C10 UNK     1      20.242  -4.695  37.674  1.00  0.00     0.056 C 
ENDROOT
BRANCH   1   3
HETATM    3  C1  UNK     1      19.674  -2.543  36.544  1.00  0.00    -0.036 A 
HETATM    4  C3  UNK     1      18.675  -2.033  37.373  1.00  0.00     0.012 A 
HETATM    5  C7  UNK     1      17.806  -1.052  36.895  1.00  0.00     0.019 A 
HETATM    6  C6  UNK     1      17.937  -0.580  35.589  1.00  0.00    -0.000 A 
HETATM    7  C8  UNK     1      18.936  -1.090  34.760  1.00  0.00     0.019 A 
HETATM    8  C4  UNK     1      19.805  -2.071  35.238  1.00  0.00     0.012 A 
BRANCH   6   9
HETATM    9  S1  UNK     1      16.825   0.672  34.978  1.00  0.00    -0.134 SA
HETATM   10  C16 UNK     1      17.983   1.649  33.995  1.00  0.00     0.095 C 
ENDBRANCH   6   9
ENDBRANCH   1   3
BRANCH   2  11
HETATM   11  C9  UNK     1      21.304  -5.659  38.115  1.00  0.00     0.182 C 
HETATM   12  O1  UNK     1      22.486  -5.317  38.077  1.00  0.00    -0.288 OA
BRANCH  11  13
HETATM   13  C2  UNK     1      20.891  -7.002  38.540  1.00  0.00     0.014 A 
HETATM   14  C11 UNK     1      19.655  -7.494  38.145  1.00  0.00     0.015 A 
HETATM   15  C13 UNK     1      19.262  -8.770  38.550  1.00  0.00     0.001 A 
HETATM   16  C15 UNK     1      20.110  -9.541  39.345  1.00  0.00     0.000 A 
HETATM   17  C14 UNK     1      21.351  -9.037  39.736  1.00  0.00     0.001 A 
HETATM   18  C12 UNK     1      21.742  -7.760  39.330  1.00  0.00     0.015 A 
ENDBRANCH  11  13
ENDBRANCH   2  11
TORSDOF 4
ENDMDL
MODEL 10
REMARK VINA RESULT:      -6.6      3.395      8.828
REMARK  4 active torsions:
REMARK  status: ('A' for Active; 'I' for Inactive)
REMARK    1  A    between atoms: C6_8  and  S1_1 
REMARK    2  A    between atoms: C1_3  and  C5_7 
REMARK    3  A    between atoms: C2_4  and  C9_11 
REMARK    4  A    between atoms: C10_12  and  C9_11 
ROOT
HETATM    1  C5  UNK     1      18.855   7.089  32.725  1.00  0.00     0.015 C 
HETATM    2  C10 UNK     1      17.852   7.938  32.969  1.00  0.00     0.056 C 
ENDROOT
BRANCH   1   3
HETATM    3  C1  UNK     1      18.788   5.862  31.947  1.00  0.00    -0.036 A 
HETATM    4  C3  UNK     1      19.270   5.837  30.639  1.00  0.00     0.012 A 
HETATM    5  C7  UNK     1      19.203   4.660  29.893  1.00  0.00     0.019 A 
HETATM    6  C6  UNK     1      18.656   3.508  30.456  1.00  0.00    -0.000 A 
HETATM    7  C8  UNK     1      18.173   3.532  31.765  1.00  0.00     0.019 A 
HETATM    8  C4  UNK     1      18.239   4.709  32.510  1.00  0.00     0.012 A 
BRANCH   6   9
HETATM    9  S1  UNK     1      18.569   2.005  29.503  1.00  0.00    -0.134 SA
HETATM   10  C16 UNK     1      19.306   0.854  30.685  1.00  0.00     0.095 C 
ENDBRANCH   6   9
ENDBRANCH   1   3
BRANCH   2  11
HETATM   11  C9  UNK     1      18.085   9.161  33.806  1.00  0.00     0.182 C 
HETATM   12  O1  UNK     1      19.234   9.462  34.131  1.00  0.00    -0.288 OA
BRANCH  11  13
HETATM   13  C2  UNK     1      16.919   9.938  34.244  1.00  0.00     0.014 A 
HETATM   14  C11 UNK     1      16.979  11.325  34.231  1.00  0.00     0.015 A 
HETATM   15  C13 UNK     1      15.872  12.063  34.648  1.00  0.00     0.001 A 
HETATM   16  C15 UNK     1      14.716  11.408  35.073  1.00  0.00     0.000 A 
HETATM   17  C14 UNK     1      14.668  10.014  35.083  1.00  0.00     0.001 A 
HETATM   18  C12 UNK     1      15.776   9.276  34.665  1.00  0.00     0.015 A 
ENDBRANCH  11  13
ENDBRANCH   2  11
TORSDOF 4
ENDMDL
