MODEL 1
REMARK VINA RESULT:      -9.9      0.000      0.000
REMARK  6 active torsions:
REMARK  status: ('A' for Active; 'I' for Inactive)
REMARK    1  A    between atoms: C10_18  and  O2_2 
REMARK    2  A    between atoms: C4_12  and  O2_2 
REMARK    3  A    between atoms: C13_21  and  N1_6 
REMARK    4  A    between atoms: N1_6  and  N2_7 
REMARK    5  A    between atoms: C17_25  and  N3_8 
REMARK    6  A    between atoms: C10_18  and  C12_20 
ROOT
HETATM    1  C10 UNK     1      20.410  -0.020  30.352  1.00  0.00     0.231 C 
ENDROOT
BRANCH   1   2
HETATM    2  O2  UNK     1      19.817  -1.228  30.828  1.00  0.00    -0.345 OA
BRANCH   2   3
HETATM    3  C4  UNK     1      19.559  -1.308  32.161  1.00  0.00     0.071 A 
HETATM    4  C6  UNK     1      20.205  -2.260  32.942  1.00  0.00     0.075 A 
HETATM    5  C2  UNK     1      19.925  -2.325  34.309  1.00  0.00     0.092 A 
HETATM    6  C1  UNK     1      19.016  -1.463  34.925  1.00  0.00     0.004 A 
HETATM    7  O1  UNK     1      20.610  -3.310  35.047  1.00  0.00    -0.275 OA
HETATM    8  C3  UNK     1      18.782  -1.602  36.369  1.00  0.00    -0.043 A 
HETATM    9  C5  UNK     1      18.377  -0.510  34.121  1.00  0.00     0.017 A 
HETATM   10  C8  UNK     1      19.449  -2.549  37.046  1.00  0.00     0.090 A 
HETATM   11  C9  UNK     1      17.811  -0.692  37.061  1.00  0.00     0.049 C 
HETATM   12  C11 UNK     1      20.410  -3.465  36.410  1.00  0.00     0.288 A 
HETATM   13  O3  UNK     1      21.001  -4.318  37.061  1.00  0.00    -0.260 OA
HETATM   14  C7  UNK     1      18.647  -0.433  32.750  1.00  0.00     0.038 A 
ENDBRANCH   2   3
ENDBRANCH   1   2
BRANCH   1  15
HETATM   15  C12 UNK     1      19.448   0.661  29.400  1.00  0.00     0.052 C 
HETATM   16  N2  UNK     1      18.973   1.863  29.531  1.00  0.00    -0.182 NA
HETATM   17  C14 UNK     1      19.024  -0.128  28.185  1.00  0.00     0.070 C 
BRANCH  16  18
HETATM   18  N1  UNK     1      19.382   2.576  30.596  1.00  0.00    -0.278 N 
HETATM   19  H13 UNK     1      20.087   2.226  31.233  1.00  0.00     0.189 HD
BRANCH  18  20
HETATM   20  C13 UNK     1      18.863   3.859  30.837  1.00  0.00     0.050 A 
HETATM   21  C15 UNK     1      19.166   4.914  29.972  1.00  0.00     0.033 A 
HETATM   22  C18 UNK     1      18.650   6.188  30.211  1.00  0.00     0.038 A 
HETATM   23  C17 UNK     1      17.830   6.413  31.317  1.00  0.00     0.103 A 
HETATM   24  C19 UNK     1      17.526   5.363  32.183  1.00  0.00     0.038 A 
HETATM   25  C16 UNK     1      18.041   4.088  31.944  1.00  0.00     0.033 A 
BRANCH  23  26
HETATM   26  N3  UNK     1      17.306   7.710  31.561  1.00  0.00    -0.116 N 
HETATM   27  O4  UNK     1      17.669   8.328  32.591  1.00  0.00    -0.532 OA
HETATM   28  O5  UNK     1      16.494   8.201  30.740  1.00  0.00    -0.532 OA
ENDBRANCH  23  26
ENDBRANCH  18  20
ENDBRANCH  16  18
ENDBRANCH   1  15
TORSDOF 6
ENDMDL
MODEL 2
REMARK VINA RESULT:      -9.9      3.193      8.013
REMARK  6 active torsions:
REMARK  status: ('A' for Active; 'I' for Inactive)
REMARK    1  A    between atoms: C10_18  and  O2_2 
REMARK    2  A    between atoms: C4_12  and  O2_2 
REMARK    3  A    between atoms: C13_21  and  N1_6 
REMARK    4  A    between atoms: N1_6  and  N2_7 
REMARK    5  A    between atoms: C17_25  and  N3_8 
REMARK    6  A    between atoms: C10_18  and  C12_20 
ROOT
HETATM    1  C10 UNK     1      18.307   3.025  29.977  1.00  0.00     0.231 C 
ENDROOT
BRANCH   1   2
HETATM    2  O2  UNK     1      19.366   3.971  30.123  1.00  0.00    -0.345 OA
BRANCH   2   3
HETATM    3  C4  UNK     1      19.207   4.938  31.066  1.00  0.00     0.071 A 
HETATM    4  C6  UNK     1      17.944   5.212  31.581  1.00  0.00     0.075 A 
HETATM    5  C2  UNK     1      17.804   6.210  32.547  1.00  0.00     0.092 A 
HETATM    6  C1  UNK     1      18.891   6.946  33.022  1.00  0.00     0.004 A 
HETATM    7  O1  UNK     1      16.501   6.441  33.030  1.00  0.00    -0.275 OA
HETATM    8  C3  UNK     1      18.651   7.978  34.041  1.00  0.00    -0.043 A 
HETATM    9  C5  UNK     1      20.155   6.654  32.491  1.00  0.00     0.017 A 
HETATM   10  C8  UNK     1      17.400   8.176  34.481  1.00  0.00     0.090 A 
HETATM   11  C9  UNK     1      19.798   8.787  34.570  1.00  0.00     0.049 C 
HETATM   12  C11 UNK     1      16.244   7.407  33.991  1.00  0.00     0.288 A 
HETATM   13  O3  UNK     1      15.115   7.616  34.418  1.00  0.00    -0.260 OA
HETATM   14  C7  UNK     1      20.311   5.658  31.521  1.00  0.00     0.038 A 
ENDBRANCH   2   3
ENDBRANCH   1   2
BRANCH   1  15
HETATM   15  C12 UNK     1      18.803   1.658  30.403  1.00  0.00     0.052 C 
HETATM   16  N2  UNK     1      18.700   1.150  31.594  1.00  0.00    -0.182 NA
HETATM   17  C14 UNK     1      19.457   0.812  29.338  1.00  0.00     0.070 C 
BRANCH  16  18
HETATM   18  N1  UNK     1      18.083   1.893  32.531  1.00  0.00    -0.278 N 
HETATM   19  H13 UNK     1      17.604   2.754  32.299  1.00  0.00     0.189 HD
BRANCH  18  20
HETATM   20  C13 UNK     1      18.055   1.471  33.870  1.00  0.00     0.050 A 
HETATM   21  C15 UNK     1      18.393   2.360  34.895  1.00  0.00     0.033 A 
HETATM   22  C18 UNK     1      18.365   1.940  36.225  1.00  0.00     0.038 A 
HETATM   23  C17 UNK     1      17.998   0.631  36.537  1.00  0.00     0.103 A 
HETATM   24  C19 UNK     1      17.660  -0.259  35.518  1.00  0.00     0.038 A 
HETATM   25  C16 UNK     1      17.688   0.160  34.187  1.00  0.00     0.033 A 
BRANCH  23  26
HETATM   26  N3  UNK     1      17.970   0.204  37.891  1.00  0.00    -0.116 N 
HETATM   27  O4  UNK     1      17.900   1.068  38.799  1.00  0.00    -0.532 OA
HETATM   28  O5  UNK     1      18.015  -1.024  38.142  1.00  0.00    -0.532 OA
ENDBRANCH  23  26
ENDBRANCH  18  20
ENDBRANCH  16  18
ENDBRANCH   1  15
TORSDOF 6
ENDMDL
MODEL 3
REMARK VINA RESULT:      -9.9      1.446      2.369
REMARK  6 active torsions:
REMARK  status: ('A' for Active; 'I' for Inactive)
REMARK    1  A    between atoms: C10_18  and  O2_2 
REMARK    2  A    between atoms: C4_12  and  O2_2 
REMARK    3  A    between atoms: C13_21  and  N1_6 
REMARK    4  A    between atoms: N1_6  and  N2_7 
REMARK    5  A    between atoms: C17_25  and  N3_8 
REMARK    6  A    between atoms: C10_18  and  C12_20 
ROOT
HETATM    1  C10 UNK     1      20.444  -0.002  30.342  1.00  0.00     0.231 C 
ENDROOT
BRANCH   1   2
HETATM    2  O2  UNK     1      19.926  -1.266  30.755  1.00  0.00    -0.345 OA
BRANCH   2   3
HETATM    3  C4  UNK     1      19.738  -1.452  32.089  1.00  0.00     0.071 A 
HETATM    4  C6  UNK     1      18.740  -0.752  32.759  1.00  0.00     0.075 A 
HETATM    5  C2  UNK     1      18.565  -0.958  34.129  1.00  0.00     0.092 A 
HETATM    6  C1  UNK     1      19.358  -1.847  34.856  1.00  0.00     0.004 A 
HETATM    7  O1  UNK     1      17.539  -0.220  34.751  1.00  0.00    -0.275 OA
HETATM    8  C3  UNK     1      19.104  -2.002  36.295  1.00  0.00    -0.043 A 
HETATM    9  C5  UNK     1      20.358  -2.543  34.163  1.00  0.00     0.017 A 
HETATM   10  C8  UNK     1      18.121  -1.286  36.860  1.00  0.00     0.090 A 
HETATM   11  C9  UNK     1      19.940  -2.948  37.105  1.00  0.00     0.049 C 
HETATM   12  C11 UNK     1      17.275  -0.346  36.107  1.00  0.00     0.288 A 
HETATM   13  O3  UNK     1      16.385   0.291  36.658  1.00  0.00    -0.260 OA
HETATM   14  C7  UNK     1      20.545  -2.347  32.790  1.00  0.00     0.038 A 
ENDBRANCH   2   3
ENDBRANCH   1   2
BRANCH   1  15
HETATM   15  C12 UNK     1      19.445   0.662  29.415  1.00  0.00     0.052 C 
HETATM   16  N2  UNK     1      18.930   1.843  29.575  1.00  0.00    -0.182 NA
HETATM   17  C14 UNK     1      19.034  -0.118  28.190  1.00  0.00     0.070 C 
BRANCH  16  18
HETATM   18  N1  UNK     1      19.327   2.551  30.649  1.00  0.00    -0.278 N 
HETATM   19  H13 UNK     1      20.009   2.188  31.303  1.00  0.00     0.189 HD
BRANCH  18  20
HETATM   20  C13 UNK     1      18.829   3.844  30.875  1.00  0.00     0.050 A 
HETATM   21  C15 UNK     1      18.035   4.106  31.995  1.00  0.00     0.033 A 
HETATM   22  C18 UNK     1      17.540   5.391  32.220  1.00  0.00     0.038 A 
HETATM   23  C17 UNK     1      17.837   6.419  31.325  1.00  0.00     0.103 A 
HETATM   24  C19 UNK     1      18.628   6.162  30.206  1.00  0.00     0.038 A 
HETATM   25  C16 UNK     1      19.124   4.878  29.981  1.00  0.00     0.033 A 
BRANCH  23  26
HETATM   26  N3  UNK     1      17.332   7.727  31.554  1.00  0.00    -0.116 N 
HETATM   27  O4  UNK     1      16.512   8.213  30.738  1.00  0.00    -0.532 OA
HETATM   28  O5  UNK     1      17.721   8.360  32.565  1.00  0.00    -0.532 OA
ENDBRANCH  23  26
ENDBRANCH  18  20
ENDBRANCH  16  18
ENDBRANCH   1  15
TORSDOF 6
ENDMDL
MODEL 4
REMARK VINA RESULT:      -9.3      4.365      7.648
REMARK  6 active torsions:
REMARK  status: ('A' for Active; 'I' for Inactive)
REMARK    1  A    between atoms: C10_18  and  O2_2 
REMARK    2  A    between atoms: C4_12  and  O2_2 
REMARK    3  A    between atoms: C13_21  and  N1_6 
REMARK    4  A    between atoms: N1_6  and  N2_7 
REMARK    5  A    between atoms: C17_25  and  N3_8 
REMARK    6  A    between atoms: C10_18  and  C12_20 
ROOT
HETATM    1  C10 UNK     1      19.692  -3.766  36.965  1.00  0.00     0.231 C 
ENDROOT
BRANCH   1   2
HETATM    2  O2  UNK     1      18.809  -4.774  36.473  1.00  0.00    -0.345 OA
BRANCH   2   3
HETATM    3  C4  UNK     1      19.300  -6.040  36.388  1.00  0.00     0.071 A 
HETATM    4  C6  UNK     1      18.937  -6.995  37.331  1.00  0.00     0.075 A 
HETATM    5  C2  UNK     1      19.454  -8.288  37.225  1.00  0.00     0.092 A 
HETATM    6  C1  UNK     1      20.325  -8.661  36.200  1.00  0.00     0.004 A 
HETATM    7  O1  UNK     1      19.050  -9.211  38.211  1.00  0.00    -0.275 OA
HETATM    8  C3  UNK     1      20.820 -10.044  36.165  1.00  0.00    -0.043 A 
HETATM    9  C5  UNK     1      20.677  -7.684  35.259  1.00  0.00     0.017 A 
HETATM   10  C8  UNK     1      20.419 -10.900  37.117  1.00  0.00     0.090 A 
HETATM   11  C9  UNK     1      21.758 -10.476  35.078  1.00  0.00     0.049 C 
HETATM   12  C11 UNK     1      19.500 -10.522  38.203  1.00  0.00     0.288 A 
HETATM   13  O3  UNK     1      19.156 -11.333  39.055  1.00  0.00    -0.260 OA
HETATM   14  C7  UNK     1      20.168  -6.384  35.353  1.00  0.00     0.038 A 
ENDBRANCH   2   3
ENDBRANCH   1   2
BRANCH   1  15
HETATM   15  C12 UNK     1      19.103  -2.403  36.665  1.00  0.00     0.052 C 
HETATM   16  N2  UNK     1      19.098  -1.816  35.506  1.00  0.00    -0.182 NA
HETATM   17  C14 UNK     1      18.449  -1.678  37.817  1.00  0.00     0.070 C 
BRANCH  16  18
HETATM   18  N1  UNK     1      19.648  -2.481  34.475  1.00  0.00    -0.278 N 
HETATM   19  H13 UNK     1      19.962  -3.439  34.565  1.00  0.00     0.189 HD
BRANCH  18  20
HETATM   20  C13 UNK     1      19.771  -1.870  33.216  1.00  0.00     0.050 A 
HETATM   21  C15 UNK     1      20.696  -2.354  32.286  1.00  0.00     0.033 A 
HETATM   22  C18 UNK     1      20.817  -1.747  31.036  1.00  0.00     0.038 A 
HETATM   23  C17 UNK     1      20.015  -0.653  30.710  1.00  0.00     0.103 A 
HETATM   24  C19 UNK     1      19.091  -0.166  31.635  1.00  0.00     0.038 A 
HETATM   25  C16 UNK     1      18.969  -0.773  32.885  1.00  0.00     0.033 A 
BRANCH  23  26
HETATM   26  N3  UNK     1      20.139  -0.035  29.438  1.00  0.00    -0.116 N 
HETATM   27  O4  UNK     1      20.848  -0.586  28.561  1.00  0.00    -0.532 OA
HETATM   28  O5  UNK     1      19.537   1.045  29.226  1.00  0.00    -0.532 OA
ENDBRANCH  23  26
ENDBRANCH  18  20
ENDBRANCH  16  18
ENDBRANCH   1  15
TORSDOF 6
ENDMDL
MODEL 5
REMARK VINA RESULT:      -9.3      4.329      7.471
REMARK  6 active torsions:
REMARK  status: ('A' for Active; 'I' for Inactive)
REMARK    1  A    between atoms: C10_18  and  O2_2 
REMARK    2  A    between atoms: C4_12  and  O2_2 
REMARK    3  A    between atoms: C13_21  and  N1_6 
REMARK    4  A    between atoms: N1_6  and  N2_7 
REMARK    5  A    between atoms: C17_25  and  N3_8 
REMARK    6  A    between atoms: C10_18  and  C12_20 
ROOT
HETATM    1  C10 UNK     1      19.978  -3.728  36.713  1.00  0.00     0.231 C 
ENDROOT
BRANCH   1   2
HETATM    2  O2  UNK     1      19.445  -4.722  35.838  1.00  0.00    -0.345 OA
BRANCH   2   3
HETATM    3  C4  UNK     1      19.598  -6.021  36.211  1.00  0.00     0.071 A 
HETATM    4  C6  UNK     1      20.440  -6.862  35.490  1.00  0.00     0.075 A 
HETATM    5  C2  UNK     1      20.581  -8.192  35.891  1.00  0.00     0.092 A 
HETATM    6  C1  UNK     1      19.905  -8.714  36.995  1.00  0.00     0.004 A 
HETATM    7  O1  UNK     1      21.447  -8.994  35.121  1.00  0.00    -0.275 OA
HETATM    8  C3  UNK     1      20.113 -10.125  37.345  1.00  0.00    -0.043 A 
HETATM    9  C5  UNK     1      19.062  -7.850  37.708  1.00  0.00     0.017 A 
HETATM   10  C8  UNK     1      20.943 -10.864  36.595  1.00  0.00     0.090 A 
HETATM   11  C9  UNK     1      19.400 -10.716  38.526  1.00  0.00     0.049 C 
HETATM   12  C11 UNK     1      21.663 -10.328  35.428  1.00  0.00     0.288 A 
HETATM   13  O3  UNK     1      22.415 -11.034  34.766  1.00  0.00    -0.260 OA
HETATM   14  C7  UNK     1      18.910  -6.515  37.318  1.00  0.00     0.038 A 
ENDBRANCH   2   3
ENDBRANCH   1   2
BRANCH   1  15
HETATM   15  C12 UNK     1      19.281  -2.409  36.444  1.00  0.00     0.052 C 
HETATM   16  N2  UNK     1      19.227  -1.799  35.299  1.00  0.00    -0.182 NA
HETATM   17  C14 UNK     1      18.574  -1.765  37.612  1.00  0.00     0.070 C 
BRANCH  16  18
HETATM   18  N1  UNK     1      19.827  -2.394  34.252  1.00  0.00    -0.278 N 
HETATM   19  H13 UNK     1      20.268  -3.302  34.336  1.00  0.00     0.189 HD
BRANCH  18  20
HETATM   20  C13 UNK     1      19.827  -1.783  32.988  1.00  0.00     0.050 A 
HETATM   21  C15 UNK     1      20.577  -2.330  31.942  1.00  0.00     0.033 A 
HETATM   22  C18 UNK     1      20.577  -1.723  30.686  1.00  0.00     0.038 A 
HETATM   23  C17 UNK     1      19.827  -0.567  30.470  1.00  0.00     0.103 A 
HETATM   24  C19 UNK     1      19.078  -0.017  31.510  1.00  0.00     0.038 A 
HETATM   25  C16 UNK     1      19.078  -0.624  32.767  1.00  0.00     0.033 A 
BRANCH  23  26
HETATM   26  N3  UNK     1      19.828   0.052  29.191  1.00  0.00    -0.116 N 
HETATM   27  O4  UNK     1      19.420   1.234  29.088  1.00  0.00    -0.532 OA
HETATM   28  O5  UNK     1      20.236  -0.601  28.201  1.00  0.00    -0.532 OA
ENDBRANCH  23  26
ENDBRANCH  18  20
ENDBRANCH  16  18
ENDBRANCH   1  15
TORSDOF 6
ENDMDL
MODEL 6
REMARK VINA RESULT:      -9.3      2.532      3.164
REMARK  6 active torsions:
REMARK  status: ('A' for Active; 'I' for Inactive)
REMARK    1  A    between atoms: C10_18  and  O2_2 
REMARK    2  A    between atoms: C4_12  and  O2_2 
REMARK    3  A    between atoms: C13_21  and  N1_6 
REMARK    4  A    between atoms: N1_6  and  N2_7 
REMARK    5  A    between atoms: C17_25  and  N3_8 
REMARK    6  A    between atoms: C10_18  and  C12_20 
ROOT
HETATM    1  C10 UNK     1      18.884   1.670  30.970  1.00  0.00     0.231 C 
ENDROOT
BRANCH   1   2
HETATM    2  O2  UNK     1      18.116   2.074  32.103  1.00  0.00    -0.345 OA
BRANCH   2   3
HETATM    3  C4  UNK     1      18.181   1.284  33.209  1.00  0.00     0.071 A 
HETATM    4  C6  UNK     1      17.985   1.832  34.472  1.00  0.00     0.075 A 
HETATM    5  C2  UNK     1      18.058   1.002  35.593  1.00  0.00     0.092 A 
HETATM    6  C1  UNK     1      18.319  -0.365  35.493  1.00  0.00     0.004 A 
HETATM    7  O1  UNK     1      17.851   1.615  36.845  1.00  0.00    -0.275 OA
HETATM    8  C3  UNK     1      18.377  -1.163  36.726  1.00  0.00    -0.043 A 
HETATM    9  C5  UNK     1      18.513  -0.898  34.211  1.00  0.00     0.017 A 
HETATM   10  C8  UNK     1      18.176  -0.553  37.903  1.00  0.00     0.090 A 
HETATM   11  C9  UNK     1      18.657  -2.635  36.652  1.00  0.00     0.049 C 
HETATM   12  C11 UNK     1      17.899   0.888  38.025  1.00  0.00     0.288 A 
HETATM   13  O3  UNK     1      17.720   1.411  39.118  1.00  0.00    -0.260 OA
HETATM   14  C7  UNK     1      18.444  -0.079  33.078  1.00  0.00     0.038 A 
ENDBRANCH   2   3
ENDBRANCH   1   2
BRANCH   1  15
HETATM   15  C12 UNK     1      18.603   2.615  29.820  1.00  0.00     0.052 C 
HETATM   16  N2  UNK     1      18.973   3.858  29.751  1.00  0.00    -0.182 NA
HETATM   17  C14 UNK     1      17.840   2.048  28.647  1.00  0.00     0.070 C 
BRANCH  16  18
HETATM   18  N1  UNK     1      19.684   4.349  30.782  1.00  0.00    -0.278 N 
HETATM   19  H13 UNK     1      20.594   3.980  31.025  1.00  0.00     0.189 HD
BRANCH  18  20
HETATM   20  C13 UNK     1      19.193   5.427  31.537  1.00  0.00     0.050 A 
HETATM   21  C15 UNK     1      20.073   6.234  32.265  1.00  0.00     0.033 A 
HETATM   22  C18 UNK     1      19.586   7.305  33.015  1.00  0.00     0.038 A 
HETATM   23  C17 UNK     1      18.217   7.573  33.041  1.00  0.00     0.103 A 
HETATM   24  C19 UNK     1      17.336   6.770  32.317  1.00  0.00     0.038 A 
HETATM   25  C16 UNK     1      17.823   5.700  31.567  1.00  0.00     0.033 A 
BRANCH  23  26
HETATM   26  N3  UNK     1      17.722   8.663  33.805  1.00  0.00    -0.116 N 
HETATM   27  O4  UNK     1      18.003   9.833  33.449  1.00  0.00    -0.532 OA
HETATM   28  O5  UNK     1      17.017   8.426  34.815  1.00  0.00    -0.532 OA
ENDBRANCH  23  26
ENDBRANCH  18  20
ENDBRANCH  16  18
ENDBRANCH   1  15
TORSDOF 6
ENDMDL
MODEL 7
REMARK VINA RESULT:      -9.2      1.031      1.506
REMARK  6 active torsions:
REMARK  status: ('A' for Active; 'I' for Inactive)
REMARK    1  A    between atoms: C10_18  and  O2_2 
REMARK    2  A    between atoms: C4_12  and  O2_2 
REMARK    3  A    between atoms: C13_21  and  N1_6 
REMARK    4  A    between atoms: N1_6  and  N2_7 
REMARK    5  A    between atoms: C17_25  and  N3_8 
REMARK    6  A    between atoms: C10_18  and  C12_20 
ROOT
HETATM    1  C10 UNK     1      19.350   0.467  31.008  1.00  0.00     0.231 C 
ENDROOT
BRANCH   1   2
HETATM    2  O2  UNK     1      18.420   0.883  32.008  1.00  0.00    -0.345 OA
BRANCH   2   3
HETATM    3  C4  UNK     1      18.495   0.266  33.218  1.00  0.00     0.071 A 
HETATM    4  C6  UNK     1      19.143  -0.959  33.340  1.00  0.00     0.075 A 
HETATM    5  C2  UNK     1      19.207  -1.574  34.592  1.00  0.00     0.092 A 
HETATM    6  C1  UNK     1      18.644  -1.002  35.734  1.00  0.00     0.004 A 
HETATM    7  O1  UNK     1      19.877  -2.813  34.652  1.00  0.00    -0.275 OA
HETATM    8  C3  UNK     1      18.760  -1.719  37.011  1.00  0.00    -0.043 A 
HETATM    9  C5  UNK     1      17.996   0.233  35.590  1.00  0.00     0.017 A 
HETATM   10  C8  UNK     1      19.402  -2.897  37.037  1.00  0.00     0.090 A 
HETATM   11  C9  UNK     1      18.164  -1.132  38.256  1.00  0.00     0.049 C 
HETATM   12  C11 UNK     1      20.002  -3.512  35.842  1.00  0.00     0.288 A 
HETATM   13  O3  UNK     1      20.582  -4.590  35.906  1.00  0.00    -0.260 OA
HETATM   14  C7  UNK     1      17.923   0.861  34.342  1.00  0.00     0.038 A 
ENDBRANCH   2   3
ENDBRANCH   1   2
BRANCH   1  15
HETATM   15  C12 UNK     1      19.078   1.236  29.731  1.00  0.00     0.052 C 
HETATM   16  N2  UNK     1      19.125   2.527  29.598  1.00  0.00    -0.182 NA
HETATM   17  C14 UNK     1      18.744   0.420  28.506  1.00  0.00     0.070 C 
BRANCH  16  18
HETATM   18  N1  UNK     1      19.459   3.249  30.683  1.00  0.00    -0.278 N 
HETATM   19  H13 UNK     1      20.206   2.963  31.304  1.00  0.00     0.189 HD
BRANCH  18  20
HETATM   20  C13 UNK     1      18.798   4.455  30.969  1.00  0.00     0.050 A 
HETATM   21  C15 UNK     1      17.943   4.544  32.071  1.00  0.00     0.033 A 
HETATM   22  C18 UNK     1      17.286   5.742  32.355  1.00  0.00     0.038 A 
HETATM   23  C17 UNK     1      17.482   6.856  31.538  1.00  0.00     0.103 A 
HETATM   24  C19 UNK     1      18.334   6.771  30.438  1.00  0.00     0.038 A 
HETATM   25  C16 UNK     1      18.991   5.574  30.153  1.00  0.00     0.033 A 
BRANCH  23  26
HETATM   26  N3  UNK     1      16.813   8.075  31.827  1.00  0.00    -0.116 N 
HETATM   27  O4  UNK     1      17.182   8.749  32.819  1.00  0.00    -0.532 OA
HETATM   28  O5  UNK     1      15.873   8.443  31.083  1.00  0.00    -0.532 OA
ENDBRANCH  23  26
ENDBRANCH  18  20
ENDBRANCH  16  18
ENDBRANCH   1  15
TORSDOF 6
ENDMDL
MODEL 8
REMARK VINA RESULT:      -9.0      3.033      5.330
REMARK  6 active torsions:
REMARK  status: ('A' for Active; 'I' for Inactive)
REMARK    1  A    between atoms: C10_18  and  O2_2 
REMARK    2  A    between atoms: C4_12  and  O2_2 
REMARK    3  A    between atoms: C13_21  and  N1_6 
REMARK    4  A    between atoms: N1_6  and  N2_7 
REMARK    5  A    between atoms: C17_25  and  N3_8 
REMARK    6  A    between atoms: C10_18  and  C12_20 
ROOT
HETATM    1  C10 UNK     1      18.090   5.393  31.416  1.00  0.00     0.231 C 
ENDROOT
BRANCH   1   2
HETATM    2  O2  UNK     1      17.697   4.182  32.061  1.00  0.00    -0.345 OA
BRANCH   2   3
HETATM    3  C4  UNK     1      18.218   3.023  31.573  1.00  0.00     0.071 A 
HETATM    4  C6  UNK     1      18.499   1.966  32.433  1.00  0.00     0.075 A 
HETATM    5  C2  UNK     1      19.035   0.787  31.910  1.00  0.00     0.092 A 
HETATM    6  C1  UNK     1      19.299   0.627  30.549  1.00  0.00     0.004 A 
HETATM    7  O1  UNK     1      19.298  -0.247  32.830  1.00  0.00    -0.275 OA
HETATM    8  C3  UNK     1      19.862  -0.648  30.086  1.00  0.00    -0.043 A 
HETATM    9  C5  UNK     1      19.008   1.704  29.700  1.00  0.00     0.017 A 
HETATM   10  C8  UNK     1      20.103  -1.615  30.984  1.00  0.00     0.090 A 
HETATM   11  C9  UNK     1      20.158  -0.851  28.630  1.00  0.00     0.049 C 
HETATM   12  C11 UNK     1      19.829  -1.461  32.423  1.00  0.00     0.288 A 
HETATM   13  O3  UNK     1      20.061  -2.368  33.214  1.00  0.00    -0.260 OA
HETATM   14  C7  UNK     1      18.471   2.892  30.209  1.00  0.00     0.038 A 
ENDBRANCH   2   3
ENDBRANCH   1   2
BRANCH   1  15
HETATM   15  C12 UNK     1      19.468   5.789  31.907  1.00  0.00     0.052 C 
HETATM   16  N2  UNK     1      19.762   6.176  33.111  1.00  0.00    -0.182 NA
HETATM   17  C14 UNK     1      20.594   5.705  30.905  1.00  0.00     0.070 C 
BRANCH  16  18
HETATM   18  N1  UNK     1      18.762   6.215  34.010  1.00  0.00    -0.278 N 
HETATM   19  H13 UNK     1      18.560   5.430  34.616  1.00  0.00     0.189 HD
BRANCH  18  20
HETATM   20  C13 UNK     1      17.984   7.374  34.161  1.00  0.00     0.050 A 
HETATM   21  C15 UNK     1      16.625   7.273  34.473  1.00  0.00     0.033 A 
HETATM   22  C18 UNK     1      15.852   8.424  34.624  1.00  0.00     0.038 A 
HETATM   23  C17 UNK     1      16.434   9.682  34.464  1.00  0.00     0.103 A 
HETATM   24  C19 UNK     1      17.789   9.788  34.152  1.00  0.00     0.038 A 
HETATM   25  C16 UNK     1      18.563   8.636  34.001  1.00  0.00     0.033 A 
BRANCH  23  26
HETATM   26  N3  UNK     1      15.646  10.854  34.616  1.00  0.00    -0.116 N 
HETATM   27  O4  UNK     1      15.407  11.279  35.773  1.00  0.00    -0.532 OA
HETATM   28  O5  UNK     1      15.211  11.432  33.592  1.00  0.00    -0.532 OA
ENDBRANCH  23  26
ENDBRANCH  18  20
ENDBRANCH  16  18
ENDBRANCH   1  15
TORSDOF 6
ENDMDL
MODEL 9
REMARK VINA RESULT:      -8.8     13.937     16.013
REMARK  6 active torsions:
REMARK  status: ('A' for Active; 'I' for Inactive)
REMARK    1  A    between atoms: C10_18  and  O2_2 
REMARK    2  A    between atoms: C4_12  and  O2_2 
REMARK    3  A    between atoms: C13_21  and  N1_6 
REMARK    4  A    between atoms: N1_6  and  N2_7 
REMARK    5  A    between atoms: C17_25  and  N3_8 
REMARK    6  A    between atoms: C10_18  and  C12_20 
ROOT
HETATM    1  C10 UNK     1      34.466  -6.376  33.653  1.00  0.00     0.231 C 
ENDROOT
BRANCH   1   2
HETATM    2  O2  UNK     1      33.855  -7.662  33.752  1.00  0.00    -0.345 OA
BRANCH   2   3
HETATM    3  C4  UNK     1      32.731  -7.756  34.513  1.00  0.00     0.071 A 
HETATM    4  C6  UNK     1      32.689  -8.633  35.592  1.00  0.00     0.075 A 
HETATM    5  C2  UNK     1      31.525  -8.715  36.359  1.00  0.00     0.092 A 
HETATM    6  C1  UNK     1      30.395  -7.943  36.083  1.00  0.00     0.004 A 
HETATM    7  O1  UNK     1      31.543  -9.621  37.438  1.00  0.00    -0.275 OA
HETATM    8  C3  UNK     1      29.213  -8.093  36.943  1.00  0.00    -0.043 A 
HETATM    9  C5  UNK     1      30.458  -7.065  34.992  1.00  0.00     0.017 A 
HETATM   10  C8  UNK     1      29.260  -8.963  37.962  1.00  0.00     0.090 A 
HETATM   11  C9  UNK     1      27.983  -7.279  36.673  1.00  0.00     0.049 C 
HETATM   12  C11 UNK     1      30.444  -9.783  38.266  1.00  0.00     0.288 A 
HETATM   13  O3  UNK     1      30.449 -10.568  39.207  1.00  0.00    -0.260 OA
HETATM   14  C7  UNK     1      31.618  -6.973  34.214  1.00  0.00     0.038 A 
ENDBRANCH   2   3
ENDBRANCH   1   2
BRANCH   1  15
HETATM   15  C12 UNK     1      35.248  -6.102  34.922  1.00  0.00     0.052 C 
HETATM   16  N2  UNK     1      34.950  -5.211  35.819  1.00  0.00    -0.182 NA
HETATM   17  C14 UNK     1      36.468  -6.957  35.165  1.00  0.00     0.070 C 
BRANCH  16  18
HETATM   18  N1  UNK     1      33.842  -4.476  35.617  1.00  0.00    -0.278 N 
HETATM   19  H13 UNK     1      33.720  -3.915  34.784  1.00  0.00     0.189 HD
BRANCH  18  20
HETATM   20  C13 UNK     1      32.792  -4.496  36.550  1.00  0.00     0.050 A 
HETATM   21  C15 UNK     1      31.719  -3.610  36.420  1.00  0.00     0.033 A 
HETATM   22  C18 UNK     1      30.676  -3.630  37.347  1.00  0.00     0.038 A 
HETATM   23  C17 UNK     1      30.702  -4.536  38.407  1.00  0.00     0.103 A 
HETATM   24  C19 UNK     1      31.772  -5.421  38.541  1.00  0.00     0.038 A 
HETATM   25  C16 UNK     1      32.815  -5.402  37.615  1.00  0.00     0.033 A 
BRANCH  23  26
HETATM   26  N3  UNK     1      29.641  -4.556  39.351  1.00  0.00    -0.116 N 
HETATM   27  O4  UNK     1      29.505  -3.584  40.133  1.00  0.00    -0.532 OA
HETATM   28  O5  UNK     1      28.870  -5.544  39.377  1.00  0.00    -0.532 OA
ENDBRANCH  23  26
ENDBRANCH  18  20
ENDBRANCH  16  18
ENDBRANCH   1  15
TORSDOF 6
ENDMDL
MODEL 10
REMARK VINA RESULT:      -8.8      3.900      7.112
REMARK  6 active torsions:
REMARK  status: ('A' for Active; 'I' for Inactive)
REMARK    1  A    between atoms: C10_18  and  O2_2 
REMARK    2  A    between atoms: C4_12  and  O2_2 
REMARK    3  A    between atoms: C13_21  and  N1_6 
REMARK    4  A    between atoms: N1_6  and  N2_7 
REMARK    5  A    between atoms: C17_25  and  N3_8 
REMARK    6  A    between atoms: C10_18  and  C12_20 
ROOT
HETATM    1  C10 UNK     1      19.677  -2.847  36.956  1.00  0.00     0.231 C 
ENDROOT
BRANCH   1   2
HETATM    2  O2  UNK     1      19.448  -3.998  36.143  1.00  0.00    -0.345 OA
BRANCH   2   3
HETATM    3  C4  UNK     1      19.571  -5.213  36.741  1.00  0.00     0.071 A 
HETATM    4  C6  UNK     1      20.641  -5.469  37.592  1.00  0.00     0.075 A 
HETATM    5  C2  UNK     1      20.747  -6.725  38.194  1.00  0.00     0.092 A 
HETATM    6  C1  UNK     1      19.813  -7.739  37.975  1.00  0.00     0.004 A 
HETATM    7  O1  UNK     1      21.852  -6.924  39.046  1.00  0.00    -0.275 OA
HETATM    8  C3  UNK     1      20.003  -9.029  38.651  1.00  0.00    -0.043 A 
HETATM    9  C5  UNK     1      18.742  -7.460  37.115  1.00  0.00     0.017 A 
HETATM   10  C8  UNK     1      21.064  -9.190  39.455  1.00  0.00     0.090 A 
HETATM   11  C9  UNK     1      19.018 -10.140  38.435  1.00  0.00     0.049 C 
HETATM   12  C11 UNK     1      22.057  -8.130  39.697  1.00  0.00     0.288 A 
HETATM   13  O3  UNK     1      23.015  -8.314  40.439  1.00  0.00    -0.260 OA
HETATM   14  C7  UNK     1      18.622  -6.207  36.503  1.00  0.00     0.038 A 
ENDBRANCH   2   3
ENDBRANCH   1   2
BRANCH   1  15
HETATM   15  C12 UNK     1      18.818  -1.706  36.451  1.00  0.00     0.052 C 
HETATM   16  N2  UNK     1      18.777  -1.270  35.228  1.00  0.00    -0.182 NA
HETATM   17  C14 UNK     1      17.918  -1.036  37.461  1.00  0.00     0.070 C 
BRANCH  16  18
HETATM   18  N1  UNK     1      19.553  -1.894  34.323  1.00  0.00    -0.278 N 
HETATM   19  H13 UNK     1      20.066  -2.736  34.552  1.00  0.00     0.189 HD
BRANCH  18  20
HETATM   20  C13 UNK     1      19.645  -1.411  33.008  1.00  0.00     0.050 A 
HETATM   21  C15 UNK     1      20.360  -2.128  32.044  1.00  0.00     0.033 A 
HETATM   22  C18 UNK     1      20.450  -1.647  30.737  1.00  0.00     0.038 A 
HETATM   23  C17 UNK     1      19.828  -0.448  30.389  1.00  0.00     0.103 A 
HETATM   24  C19 UNK     1      19.114   0.270  31.348  1.00  0.00     0.038 A 
HETATM   25  C16 UNK     1      19.023  -0.210  32.655  1.00  0.00     0.033 A 
BRANCH  23  26
HETATM   26  N3  UNK     1      19.921   0.041  29.059  1.00  0.00    -0.116 N 
HETATM   27  O4  UNK     1      20.694  -0.533  28.254  1.00  0.00    -0.532 OA
HETATM   28  O5  UNK     1      19.229   1.032  28.726  1.00  0.00    -0.532 OA
ENDBRANCH  23  26
ENDBRANCH  18  20
ENDBRANCH  16  18
ENDBRANCH   1  15
TORSDOF 6
ENDMDL
