MODEL 1
REMARK VINA RESULT:     -10.0      0.000      0.000
REMARK  4 active torsions:
REMARK  status: ('A' for Active; 'I' for Inactive)
REMARK    1  A    between atoms: C19_22  and  O1_1 
REMARK    2  A    between atoms: C14_17  and  C7_10 
REMARK    3  A    between atoms: C16_19  and  C20_23 
REMARK    4  A    between atoms: C18_21  and  C20_23 
ROOT
HETATM    1  C14 UNK     1       9.348   6.299   6.911  1.00  0.00     0.015 C 
HETATM    2  C18 UNK     1      10.654   5.959   6.817  1.00  0.00     0.056 C 
ENDROOT
BRANCH   1   3
HETATM    3  C7  UNK     1       8.581   6.346   8.145  1.00  0.00    -0.035 A 
HETATM    4  C11 UNK     1       8.514   7.533   8.873  1.00  0.00     0.013 A 
HETATM    5  C6  UNK     1       7.784   7.607  10.062  1.00  0.00     0.031 A 
HETATM    6  C2  UNK     1       7.124   6.450  10.493  1.00  0.00     0.045 A 
HETATM    7  C1  UNK     1       7.172   5.247   9.786  1.00  0.00     0.004 A 
HETATM    8  N1  UNK     1       6.345   6.237  11.605  1.00  0.00    -0.350 N 
HETATM    9  C3  UNK     1       6.391   4.294  10.513  1.00  0.00     0.003 A 
HETATM   10  C5  UNK     1       7.916   5.198   8.589  1.00  0.00     0.026 A 
HETATM   11  C4  UNK     1       5.888   4.941  11.643  1.00  0.00     0.045 A 
HETATM   12  C8  UNK     1       6.065   2.936  10.314  1.00  0.00     0.014 A 
HETATM   13  C9  UNK     1       5.075   4.300  12.583  1.00  0.00     0.030 A 
HETATM   14  C13 UNK     1       4.765   2.956  12.364  1.00  0.00     0.002 A 
HETATM   15  C12 UNK     1       5.253   2.281  11.247  1.00  0.00     0.001 A 
HETATM   16  C10 UNK     1       6.046   7.244  12.604  1.00  0.00     0.156 C 
ENDBRANCH   1   3
BRANCH   2  17
HETATM   17  C20 UNK     1      11.424   5.594   8.038  1.00  0.00     0.184 C 
HETATM   18  O2  UNK     1      11.195   4.578   8.684  1.00  0.00    -0.287 OA
BRANCH  17  19
HETATM   19  C16 UNK     1      12.527   6.495   8.451  1.00  0.00     0.048 A 
HETATM   20  C19 UNK     1      13.714   5.984   8.977  1.00  0.00     0.090 A 
HETATM   21  C15 UNK     1      14.755   6.844   9.366  1.00  0.00     0.008 A 
HETATM   22  C17 UNK     1      14.588   8.242   9.218  1.00  0.00    -0.023 A 
HETATM   23  C23 UNK     1      15.956   6.348   9.897  1.00  0.00     0.015 A 
HETATM   24  C22 UNK     1      13.387   8.738   8.686  1.00  0.00     0.013 A 
HETATM   25  C24 UNK     1      15.628   9.102   9.606  1.00  0.00     0.012 A 
HETATM   26  C21 UNK     1      12.364   7.869   8.306  1.00  0.00     0.019 A 
HETATM   27  C26 UNK     1      16.815   8.591  10.133  1.00  0.00     0.001 A 
HETATM   28  C25 UNK     1      16.979   7.217  10.278  1.00  0.00     0.001 A 
BRANCH  20  29
HETATM   29  O1  UNK     1      13.849   4.629   9.107  1.00  0.00    -0.359 OA
HETATM   30  H19 UNK     1      13.082   4.244   9.558  1.00  0.00     0.217 HD
ENDBRANCH  20  29
ENDBRANCH  17  19
ENDBRANCH   2  17
TORSDOF 4
ENDMDL
MODEL 2
REMARK VINA RESULT:      -9.5     22.518     24.575
REMARK  4 active torsions:
REMARK  status: ('A' for Active; 'I' for Inactive)
REMARK    1  A    between atoms: C19_22  and  O1_1 
REMARK    2  A    between atoms: C14_17  and  C7_10 
REMARK    3  A    between atoms: C16_19  and  C20_23 
REMARK    4  A    between atoms: C18_21  and  C20_23 
ROOT
HETATM    1  C14 UNK     1      18.868   4.886  29.321  1.00  0.00     0.015 C 
HETATM    2  C18 UNK     1      18.659   3.559  29.160  1.00  0.00     0.056 C 
ENDROOT
BRANCH   1   3
HETATM    3  C7  UNK     1      18.791   5.598  30.587  1.00  0.00    -0.035 A 
HETATM    4  C11 UNK     1      19.875   5.573  31.462  1.00  0.00     0.013 A 
HETATM    5  C6  UNK     1      19.828   6.250  32.684  1.00  0.00     0.031 A 
HETATM    6  C2  UNK     1      18.656   6.951  32.994  1.00  0.00     0.045 A 
HETATM    7  C1  UNK     1      17.554   6.994  32.139  1.00  0.00     0.004 A 
HETATM    8  N1  UNK     1      18.337   7.693  34.107  1.00  0.00    -0.350 N 
HETATM    9  C3  UNK     1      16.552   7.792  32.775  1.00  0.00     0.003 A 
HETATM   10  C5  UNK     1      17.626   6.302  30.912  1.00  0.00     0.026 A 
HETATM   11  C4  UNK     1      17.070   8.215  34.000  1.00  0.00     0.045 A 
HETATM   12  C8  UNK     1      15.247   8.196  32.420  1.00  0.00     0.014 A 
HETATM   13  C9  UNK     1      16.350   9.021  34.888  1.00  0.00     0.030 A 
HETATM   14  C13 UNK     1      15.061   9.408  34.514  1.00  0.00     0.002 A 
HETATM   15  C12 UNK     1      14.516   9.003  33.299  1.00  0.00     0.001 A 
HETATM   16  C10 UNK     1      19.219   7.898  35.238  1.00  0.00     0.156 C 
ENDBRANCH   1   3
BRANCH   2  17
HETATM   17  C20 UNK     1      18.319   2.704  30.331  1.00  0.00     0.184 C 
HETATM   18  O2  UNK     1      17.518   3.051  31.191  1.00  0.00    -0.287 OA
BRANCH  17  19
HETATM   19  C16 UNK     1      18.963   1.371  30.420  1.00  0.00     0.048 A 
HETATM   20  C19 UNK     1      19.001   0.670  31.625  1.00  0.00     0.090 A 
HETATM   21  C15 UNK     1      19.613  -0.592  31.702  1.00  0.00     0.008 A 
HETATM   22  C17 UNK     1      20.196  -1.149  30.539  1.00  0.00    -0.023 A 
HETATM   23  C23 UNK     1      19.661  -1.312  32.906  1.00  0.00     0.015 A 
HETATM   24  C22 UNK     1      20.148  -0.429  29.334  1.00  0.00     0.013 A 
HETATM   25  C24 UNK     1      20.808  -2.411  30.614  1.00  0.00     0.012 A 
HETATM   26  C21 UNK     1      19.536   0.822  29.276  1.00  0.00     0.019 A 
HETATM   27  C26 UNK     1      20.845  -3.113  31.819  1.00  0.00     0.001 A 
HETATM   28  C25 UNK     1      20.273  -2.565  32.963  1.00  0.00     0.001 A 
BRANCH  20  29
HETATM   29  O1  UNK     1      18.429   1.231  32.734  1.00  0.00    -0.359 OA
HETATM   30  H19 UNK     1      17.669   0.711  33.035  1.00  0.00     0.217 HD
ENDBRANCH  20  29
ENDBRANCH  17  19
ENDBRANCH   2  17
TORSDOF 4
ENDMDL
MODEL 3
REMARK VINA RESULT:      -9.5      2.241      8.629
REMARK  4 active torsions:
REMARK  status: ('A' for Active; 'I' for Inactive)
REMARK    1  A    between atoms: C19_22  and  O1_1 
REMARK    2  A    between atoms: C14_17  and  C7_10 
REMARK    3  A    between atoms: C16_19  and  C20_23 
REMARK    4  A    between atoms: C18_21  and  C20_23 
ROOT
HETATM    1  C14 UNK     1       9.645   6.690   6.933  1.00  0.00     0.015 C 
HETATM    2  C18 UNK     1       8.462   6.873   7.563  1.00  0.00     0.056 C 
ENDROOT
BRANCH   1   3
HETATM    3  C7  UNK     1      10.917   6.446   7.593  1.00  0.00    -0.035 A 
HETATM    4  C11 UNK     1      11.251   5.155   7.997  1.00  0.00     0.013 A 
HETATM    5  C6  UNK     1      12.467   4.891   8.632  1.00  0.00     0.031 A 
HETATM    6  C2  UNK     1      13.335   5.969   8.848  1.00  0.00     0.045 A 
HETATM    7  C1  UNK     1      13.029   7.273   8.456  1.00  0.00     0.004 A 
HETATM    8  N1  UNK     1      14.575   6.002   9.439  1.00  0.00    -0.350 N 
HETATM    9  C3  UNK     1      14.133   8.101   8.831  1.00  0.00     0.003 A 
HETATM   10  C5  UNK     1      11.795   7.513   7.816  1.00  0.00     0.026 A 
HETATM   11  C4  UNK     1      15.082   7.280   9.442  1.00  0.00     0.045 A 
HETATM   12  C8  UNK     1      14.414   9.479   8.708  1.00  0.00     0.014 A 
HETATM   13  C9  UNK     1      16.298   7.765   9.935  1.00  0.00     0.030 A 
HETATM   14  C13 UNK     1      16.553   9.132   9.801  1.00  0.00     0.002 A 
HETATM   15  C12 UNK     1      15.626   9.978   9.197  1.00  0.00     0.001 A 
HETATM   16  C10 UNK     1      15.257   4.845   9.984  1.00  0.00     0.156 C 
ENDBRANCH   1   3
BRANCH   2  17
HETATM   17  C20 UNK     1       8.390   6.835   9.050  1.00  0.00     0.184 C 
HETATM   18  O2  UNK     1       8.886   7.703   9.758  1.00  0.00    -0.287 OA
BRANCH  17  19
HETATM   19  C16 UNK     1       7.655   5.707   9.673  1.00  0.00     0.048 A 
HETATM   20  C19 UNK     1       7.082   5.835  10.939  1.00  0.00     0.090 A 
HETATM   21  C15 UNK     1       6.387   4.762  11.523  1.00  0.00     0.008 A 
HETATM   22  C17 UNK     1       6.273   3.544  10.812  1.00  0.00    -0.023 A 
HETATM   23  C23 UNK     1       5.805   4.873  12.796  1.00  0.00     0.015 A 
HETATM   24  C22 UNK     1       6.856   3.434   9.540  1.00  0.00     0.013 A 
HETATM   25  C24 UNK     1       5.579   2.472  11.396  1.00  0.00     0.012 A 
HETATM   26  C21 UNK     1       7.542   4.508   8.975  1.00  0.00     0.019 A 
HETATM   27  C26 UNK     1       5.006   2.599  12.661  1.00  0.00     0.001 A 
HETATM   28  C25 UNK     1       5.118   3.797  13.360  1.00  0.00     0.001 A 
BRANCH  20  29
HETATM   29  O1  UNK     1       7.206   7.024  11.603  1.00  0.00    -0.359 OA
HETATM   30  H19 UNK     1       7.973   7.524  11.283  1.00  0.00     0.217 HD
ENDBRANCH  20  29
ENDBRANCH  17  19
ENDBRANCH   2  17
TORSDOF 4
ENDMDL
MODEL 4
REMARK VINA RESULT:      -9.4      2.872      8.169
REMARK  4 active torsions:
REMARK  status: ('A' for Active; 'I' for Inactive)
REMARK    1  A    between atoms: C19_22  and  O1_1 
REMARK    2  A    between atoms: C14_17  and  C7_10 
REMARK    3  A    between atoms: C16_19  and  C20_23 
REMARK    4  A    between atoms: C18_21  and  C20_23 
ROOT
HETATM    1  C14 UNK     1      10.227   6.538   6.413  1.00  0.00     0.015 C 
HETATM    2  C18 UNK     1       8.979   6.390   6.913  1.00  0.00     0.056 C 
ENDROOT
BRANCH   1   3
HETATM    3  C7  UNK     1      11.457   6.415   7.178  1.00  0.00    -0.035 A 
HETATM    4  C11 UNK     1      11.962   5.151   7.478  1.00  0.00     0.013 A 
HETATM    5  C6  UNK     1      13.142   5.003   8.211  1.00  0.00     0.031 A 
HETATM    6  C2  UNK     1      13.796   6.168   8.631  1.00  0.00     0.045 A 
HETATM    7  C1  UNK     1      13.316   7.447   8.347  1.00  0.00     0.004 A 
HETATM    8  N1  UNK     1      14.956   6.320   9.354  1.00  0.00    -0.350 N 
HETATM    9  C3  UNK     1      14.229   8.383   8.926  1.00  0.00     0.003 A 
HETATM   10  C5  UNK     1      12.122   7.570   7.606  1.00  0.00     0.026 A 
HETATM   11  C4  UNK     1      15.242   7.651   9.546  1.00  0.00     0.045 A 
HETATM   12  C8  UNK     1      14.288   9.793   8.979  1.00  0.00     0.014 A 
HETATM   13  C9  UNK     1      16.311   8.254  10.216  1.00  0.00     0.030 A 
HETATM   14  C13 UNK     1      16.348   9.650  10.255  1.00  0.00     0.002 A 
HETATM   15  C12 UNK     1      15.352  10.410   9.647  1.00  0.00     0.001 A 
HETATM   16  C10 UNK     1      15.767   5.224   9.845  1.00  0.00     0.156 C 
ENDBRANCH   1   3
BRANCH   2  17
HETATM   17  C20 UNK     1       8.781   6.076   8.355  1.00  0.00     0.184 C 
HETATM   18  O2  UNK     1       8.990   4.963   8.824  1.00  0.00    -0.287 OA
BRANCH  17  19
HETATM   19  C16 UNK     1       8.344   7.178   9.246  1.00  0.00     0.048 A 
HETATM   20  C19 UNK     1       7.109   7.134   9.892  1.00  0.00     0.090 A 
HETATM   21  C15 UNK     1       6.702   8.183  10.734  1.00  0.00     0.008 A 
HETATM   22  C17 UNK     1       7.561   9.291  10.922  1.00  0.00    -0.023 A 
HETATM   23  C23 UNK     1       5.462   8.155  11.393  1.00  0.00     0.015 A 
HETATM   24  C22 UNK     1       8.801   9.319  10.264  1.00  0.00     0.013 A 
HETATM   25  C24 UNK     1       7.155  10.340  11.764  1.00  0.00     0.012 A 
HETATM   26  C21 UNK     1       9.189   8.269   9.432  1.00  0.00     0.019 A 
HETATM   27  C26 UNK     1       5.920  10.296  12.411  1.00  0.00     0.001 A 
HETATM   28  C25 UNK     1       5.075   9.206  12.226  1.00  0.00     0.001 A 
BRANCH  20  29
HETATM   29  O1  UNK     1       6.299   6.050   9.694  1.00  0.00    -0.359 OA
HETATM   30  H19 UNK     1       5.626   6.236   9.021  1.00  0.00     0.217 HD
ENDBRANCH  20  29
ENDBRANCH  17  19
ENDBRANCH   2  17
TORSDOF 4
ENDMDL
MODEL 5
REMARK VINA RESULT:      -9.3     34.301     36.683
REMARK  4 active torsions:
REMARK  status: ('A' for Active; 'I' for Inactive)
REMARK    1  A    between atoms: C19_22  and  O1_1 
REMARK    2  A    between atoms: C14_17  and  C7_10 
REMARK    3  A    between atoms: C16_19  and  C20_23 
REMARK    4  A    between atoms: C18_21  and  C20_23 
ROOT
HETATM    1  C14 UNK     1      33.763  -5.833  38.054  1.00  0.00     0.015 C 
HETATM    2  C18 UNK     1      34.428  -5.897  36.877  1.00  0.00     0.056 C 
ENDROOT
BRANCH   1   3
HETATM    3  C7  UNK     1      32.317  -5.771  38.196  1.00  0.00    -0.035 A 
HETATM    4  C11 UNK     1      31.677  -4.533  38.219  1.00  0.00     0.013 A 
HETATM    5  C6  UNK     1      30.289  -4.443  38.354  1.00  0.00     0.031 A 
HETATM    6  C2  UNK     1      29.568  -5.638  38.465  1.00  0.00     0.045 A 
HETATM    7  C1  UNK     1      30.180  -6.893  38.446  1.00  0.00     0.004 A 
HETATM    8  N1  UNK     1      28.217  -5.847  38.605  1.00  0.00    -0.350 N 
HETATM    9  C3  UNK     1      29.147  -7.873  38.580  1.00  0.00     0.003 A 
HETATM   10  C5  UNK     1      31.583  -6.956  38.309  1.00  0.00     0.026 A 
HETATM   11  C4  UNK     1      27.934  -7.191  38.677  1.00  0.00     0.045 A 
HETATM   12  C8  UNK     1      29.133  -9.283  38.628  1.00  0.00     0.014 A 
HETATM   13  C9  UNK     1      26.706  -7.846  38.819  1.00  0.00     0.030 A 
HETATM   14  C13 UNK     1      26.717  -9.242  38.864  1.00  0.00     0.002 A 
HETATM   15  C12 UNK     1      27.912  -9.952  38.770  1.00  0.00     0.001 A 
HETATM   16  C10 UNK     1      27.225  -4.793  38.668  1.00  0.00     0.156 C 
ENDBRANCH   1   3
BRANCH   2  17
HETATM   17  C20 UNK     1      33.678  -5.906  35.591  1.00  0.00     0.184 C 
HETATM   18  O2  UNK     1      33.845  -5.058  34.722  1.00  0.00    -0.287 OA
BRANCH  17  19
HETATM   19  C16 UNK     1      32.720  -7.015  35.361  1.00  0.00     0.048 A 
HETATM   20  C19 UNK     1      31.382  -6.758  35.059  1.00  0.00     0.090 A 
HETATM   21  C15 UNK     1      30.480  -7.813  34.843  1.00  0.00     0.008 A 
HETATM   22  C17 UNK     1      30.943  -9.148  34.935  1.00  0.00    -0.023 A 
HETATM   23  C23 UNK     1      29.131  -7.574  34.539  1.00  0.00     0.015 A 
HETATM   24  C22 UNK     1      32.292  -9.387  35.239  1.00  0.00     0.013 A 
HETATM   25  C24 UNK     1      30.042 -10.203  34.719  1.00  0.00     0.012 A 
HETATM   26  C21 UNK     1      33.174  -8.328  35.451  1.00  0.00     0.019 A 
HETATM   27  C26 UNK     1      28.704  -9.947  34.417  1.00  0.00     0.001 A 
HETATM   28  C25 UNK     1      28.249  -8.635  34.327  1.00  0.00     0.001 A 
BRANCH  20  29
HETATM   29  O1  UNK     1      30.962  -5.459  34.975  1.00  0.00    -0.359 OA
HETATM   30  H19 UNK     1      30.249  -5.281  35.608  1.00  0.00     0.217 HD
ENDBRANCH  20  29
ENDBRANCH  17  19
ENDBRANCH   2  17
TORSDOF 4
ENDMDL
MODEL 6
REMARK VINA RESULT:      -9.3     32.642     34.700
REMARK  4 active torsions:
REMARK  status: ('A' for Active; 'I' for Inactive)
REMARK    1  A    between atoms: C19_22  and  O1_1 
REMARK    2  A    between atoms: C14_17  and  C7_10 
REMARK    3  A    between atoms: C16_19  and  C20_23 
REMARK    4  A    between atoms: C18_21  and  C20_23 
ROOT
HETATM    1  C14 UNK     1      26.930  -8.489  39.468  1.00  0.00     0.015 C 
HETATM    2  C18 UNK     1      27.824  -7.478  39.381  1.00  0.00     0.056 C 
ENDROOT
BRANCH   1   3
HETATM    3  C7  UNK     1      25.727  -8.615  38.662  1.00  0.00    -0.035 A 
HETATM    4  C11 UNK     1      25.775  -9.300  37.449  1.00  0.00     0.013 A 
HETATM    5  C6  UNK     1      24.634  -9.437  36.655  1.00  0.00     0.031 A 
HETATM    6  C2  UNK     1      23.444  -8.864  37.121  1.00  0.00     0.045 A 
HETATM    7  C1  UNK     1      23.364  -8.172  38.330  1.00  0.00     0.004 A 
HETATM    8  N1  UNK     1      22.191  -8.844  36.557  1.00  0.00    -0.350 N 
HETATM    9  C3  UNK     1      22.012  -7.731  38.480  1.00  0.00     0.003 A 
HETATM   10  C5  UNK     1      24.530  -8.047  39.114  1.00  0.00     0.026 A 
HETATM   11  C4  UNK     1      21.304  -8.166  37.359  1.00  0.00     0.045 A 
HETATM   12  C8  UNK     1      21.322  -6.999  39.470  1.00  0.00     0.014 A 
HETATM   13  C9  UNK     1      19.942  -7.907  37.177  1.00  0.00     0.030 A 
HETATM   14  C13 UNK     1      19.280  -7.181  38.171  1.00  0.00     0.002 A 
HETATM   15  C12 UNK     1      19.959  -6.733  39.301  1.00  0.00     0.001 A 
HETATM   16  C10 UNK     1      21.850  -9.458  35.289  1.00  0.00     0.156 C 
ENDBRANCH   1   3
BRANCH   2  17
HETATM   17  C20 UNK     1      27.617  -6.374  38.403  1.00  0.00     0.184 C 
HETATM   18  O2  UNK     1      26.624  -5.657  38.416  1.00  0.00    -0.287 OA
BRANCH  17  19
HETATM   19  C16 UNK     1      28.684  -6.134  37.401  1.00  0.00     0.048 A 
HETATM   20  C19 UNK     1      29.677  -5.179  37.623  1.00  0.00     0.090 A 
HETATM   21  C15 UNK     1      30.684  -4.956  36.670  1.00  0.00     0.008 A 
HETATM   22  C17 UNK     1      30.684  -5.714  35.475  1.00  0.00    -0.023 A 
HETATM   23  C23 UNK     1      31.691  -3.999  36.877  1.00  0.00     0.015 A 
HETATM   24  C22 UNK     1      29.678  -6.671  35.268  1.00  0.00     0.013 A 
HETATM   25  C24 UNK     1      31.691  -5.492  34.522  1.00  0.00     0.012 A 
HETATM   26  C21 UNK     1      28.685  -6.878  36.225  1.00  0.00     0.019 A 
HETATM   27  C26 UNK     1      32.684  -4.537  34.744  1.00  0.00     0.001 A 
HETATM   28  C25 UNK     1      32.684  -3.792  35.919  1.00  0.00     0.001 A 
BRANCH  20  29
HETATM   29  O1  UNK     1      29.653  -4.462  38.788  1.00  0.00    -0.359 OA
HETATM   30  H19 UNK     1      30.111  -4.936  39.499  1.00  0.00     0.217 HD
ENDBRANCH  20  29
ENDBRANCH  17  19
ENDBRANCH   2  17
TORSDOF 4
ENDMDL
MODEL 7
REMARK VINA RESULT:      -9.3     32.824     35.938
REMARK  4 active torsions:
REMARK  status: ('A' for Active; 'I' for Inactive)
REMARK    1  A    between atoms: C19_22  and  O1_1 
REMARK    2  A    between atoms: C14_17  and  C7_10 
REMARK    3  A    between atoms: C16_19  and  C20_23 
REMARK    4  A    between atoms: C18_21  and  C20_23 
ROOT
HETATM    1  C14 UNK     1      34.510  -6.146  37.326  1.00  0.00     0.015 C 
HETATM    2  C18 UNK     1      35.139  -5.534  36.297  1.00  0.00     0.056 C 
ENDROOT
BRANCH   1   3
HETATM    3  C7  UNK     1      33.069  -6.194  37.518  1.00  0.00    -0.035 A 
HETATM    4  C11 UNK     1      32.452  -5.265  38.354  1.00  0.00     0.013 A 
HETATM    5  C6  UNK     1      31.070  -5.286  38.556  1.00  0.00     0.031 A 
HETATM    6  C2  UNK     1      30.331  -6.273  37.891  1.00  0.00     0.045 A 
HETATM    7  C1  UNK     1      30.920  -7.217  37.049  1.00  0.00     0.004 A 
HETATM    8  N1  UNK     1      28.980  -6.526  37.904  1.00  0.00    -0.350 N 
HETATM    9  C3  UNK     1      29.873  -8.054  36.549  1.00  0.00     0.003 A 
HETATM   10  C5  UNK     1      32.317  -7.174  36.861  1.00  0.00     0.026 A 
HETATM   11  C4  UNK     1      28.675  -7.599  37.100  1.00  0.00     0.045 A 
HETATM   12  C8  UNK     1      29.835  -9.163  35.676  1.00  0.00     0.014 A 
HETATM   13  C9  UNK     1      27.440  -8.193  36.822  1.00  0.00     0.030 A 
HETATM   14  C13 UNK     1      27.428  -9.289  35.955  1.00  0.00     0.002 A 
HETATM   15  C12 UNK     1      28.607  -9.768  35.390  1.00  0.00     0.001 A 
HETATM   16  C10 UNK     1      28.008  -5.764  38.662  1.00  0.00     0.156 C 
ENDBRANCH   1   3
BRANCH   2  17
HETATM   17  C20 UNK     1      34.350  -4.834  35.244  1.00  0.00     0.184 C 
HETATM   18  O2  UNK     1      34.437  -3.628  35.046  1.00  0.00    -0.287 OA
BRANCH  17  19
HETATM   19  C16 UNK     1      33.455  -5.656  34.395  1.00  0.00     0.048 A 
HETATM   20  C19 UNK     1      32.102  -5.345  34.264  1.00  0.00     0.090 A 
HETATM   21  C15 UNK     1      31.260  -6.129  33.457  1.00  0.00     0.008 A 
HETATM   22  C17 UNK     1      31.801  -7.245  32.774  1.00  0.00    -0.023 A 
HETATM   23  C23 UNK     1      29.896  -5.831  33.314  1.00  0.00     0.015 A 
HETATM   24  C22 UNK     1      33.165  -7.543  32.917  1.00  0.00     0.013 A 
HETATM   25  C24 UNK     1      30.960  -8.029  31.967  1.00  0.00     0.012 A 
HETATM   26  C21 UNK     1      33.986  -6.754  33.722  1.00  0.00     0.019 A 
HETATM   27  C26 UNK     1      29.607  -7.718  31.836  1.00  0.00     0.001 A 
HETATM   28  C25 UNK     1      29.075  -6.621  32.508  1.00  0.00     0.001 A 
BRANCH  20  29
HETATM   29  O1  UNK     1      31.606  -4.261  34.934  1.00  0.00    -0.359 OA
HETATM   30  H19 UNK     1      30.658  -4.149  34.764  1.00  0.00     0.217 HD
ENDBRANCH  20  29
ENDBRANCH  17  19
ENDBRANCH   2  17
TORSDOF 4
ENDMDL
MODEL 8
REMARK VINA RESULT:      -9.3     32.145     35.587
REMARK  4 active torsions:
REMARK  status: ('A' for Active; 'I' for Inactive)
REMARK    1  A    between atoms: C19_22  and  O1_1 
REMARK    2  A    between atoms: C14_17  and  C7_10 
REMARK    3  A    between atoms: C16_19  and  C20_23 
REMARK    4  A    between atoms: C18_21  and  C20_23 
ROOT
HETATM    1  C14 UNK     1      32.580  -4.317  34.945  1.00  0.00     0.015 C 
HETATM    2  C18 UNK     1      32.911  -4.368  36.255  1.00  0.00     0.056 C 
ENDROOT
BRANCH   1   3
HETATM    3  C7  UNK     1      32.158  -5.454  34.142  1.00  0.00    -0.035 A 
HETATM    4  C11 UNK     1      33.029  -6.524  33.947  1.00  0.00     0.013 A 
HETATM    5  C6  UNK     1      32.650  -7.630  33.182  1.00  0.00     0.031 A 
HETATM    6  C2  UNK     1      31.367  -7.623  32.621  1.00  0.00     0.045 A 
HETATM    7  C1  UNK     1      30.473  -6.567  32.797  1.00  0.00     0.004 A 
HETATM    8  N1  UNK     1      30.739  -8.561  31.837  1.00  0.00    -0.350 N 
HETATM    9  C3  UNK     1      29.275  -6.900  32.090  1.00  0.00     0.003 A 
HETATM   10  C5  UNK     1      30.879  -5.462  33.574  1.00  0.00     0.026 A 
HETATM   11  C4  UNK     1      29.471  -8.149  31.502  1.00  0.00     0.045 A 
HETATM   12  C8  UNK     1      28.037  -6.250  31.896  1.00  0.00     0.014 A 
HETATM   13  C9  UNK     1      28.493  -8.784  30.729  1.00  0.00     0.030 A 
HETATM   14  C13 UNK     1      27.276  -8.122  30.551  1.00  0.00     0.002 A 
HETATM   15  C12 UNK     1      27.049  -6.873  31.124  1.00  0.00     0.001 A 
HETATM   16  C10 UNK     1      31.333  -9.816  31.421  1.00  0.00     0.156 C 
ENDBRANCH   1   3
BRANCH   2  17
HETATM   17  C20 UNK     1      32.861  -5.661  36.992  1.00  0.00     0.184 C 
HETATM   18  O2  UNK     1      33.840  -6.388  37.117  1.00  0.00    -0.287 OA
BRANCH  17  19
HETATM   19  C16 UNK     1      31.573  -6.047  37.619  1.00  0.00     0.048 A 
HETATM   20  C19 UNK     1      31.112  -7.362  37.563  1.00  0.00     0.090 A 
HETATM   21  C15 UNK     1      29.891  -7.720  38.158  1.00  0.00     0.008 A 
HETATM   22  C17 UNK     1      29.128  -6.728  38.819  1.00  0.00    -0.023 A 
HETATM   23  C23 UNK     1      29.411  -9.038  38.112  1.00  0.00     0.015 A 
HETATM   24  C22 UNK     1      29.608  -5.409  38.866  1.00  0.00     0.013 A 
HETATM   25  C24 UNK     1      27.907  -7.085  39.415  1.00  0.00     0.012 A 
HETATM   26  C21 UNK     1      30.822  -5.072  38.269  1.00  0.00     0.019 A 
HETATM   27  C26 UNK     1      27.445  -8.400  39.359  1.00  0.00     0.001 A 
HETATM   28  C25 UNK     1      28.196  -9.375  38.709  1.00  0.00     0.001 A 
BRANCH  20  29
HETATM   29  O1  UNK     1      31.870  -8.301  36.919  1.00  0.00    -0.359 OA
HETATM   30  H19 UNK     1      32.024  -9.073  37.485  1.00  0.00     0.217 HD
ENDBRANCH  20  29
ENDBRANCH  17  19
ENDBRANCH   2  17
TORSDOF 4
ENDMDL
MODEL 9
REMARK VINA RESULT:      -9.2      1.465      3.249
REMARK  4 active torsions:
REMARK  status: ('A' for Active; 'I' for Inactive)
REMARK    1  A    between atoms: C19_22  and  O1_1 
REMARK    2  A    between atoms: C14_17  and  C7_10 
REMARK    3  A    between atoms: C16_19  and  C20_23 
REMARK    4  A    between atoms: C18_21  and  C20_23 
ROOT
HETATM    1  C14 UNK     1       9.911   6.193   6.554  1.00  0.00     0.015 C 
HETATM    2  C18 UNK     1      11.202   5.798   6.629  1.00  0.00     0.056 C 
ENDROOT
BRANCH   1   3
HETATM    3  C7  UNK     1       9.032   6.405   7.693  1.00  0.00    -0.035 A 
HETATM    4  C11 UNK     1       8.153   5.398   8.086  1.00  0.00     0.013 A 
HETATM    5  C6  UNK     1       7.298   5.575   9.177  1.00  0.00     0.031 A 
HETATM    6  C2  UNK     1       7.358   6.797   9.859  1.00  0.00     0.045 A 
HETATM    7  C1  UNK     1       8.227   7.824   9.489  1.00  0.00     0.004 A 
HETATM    8  N1  UNK     1       6.647   7.238  10.948  1.00  0.00    -0.350 N 
HETATM    9  C3  UNK     1       8.017   8.908  10.398  1.00  0.00     0.003 A 
HETATM   10  C5  UNK     1       9.080   7.621   8.384  1.00  0.00     0.026 A 
HETATM   11  C4  UNK     1       7.026   8.513  11.297  1.00  0.00     0.045 A 
HETATM   12  C8  UNK     1       8.580  10.195  10.539  1.00  0.00     0.014 A 
HETATM   13  C9  UNK     1       6.569   9.337  12.331  1.00  0.00     0.030 A 
HETATM   14  C13 UNK     1       7.142  10.606  12.450  1.00  0.00     0.002 A 
HETATM   15  C12 UNK     1       8.132  11.031  11.568  1.00  0.00     0.001 A 
HETATM   16  C10 UNK     1       5.635   6.463  11.638  1.00  0.00     0.156 C 
ENDBRANCH   1   3
BRANCH   2  17
HETATM   17  C20 UNK     1      11.834   5.544   7.954  1.00  0.00     0.184 C 
HETATM   18  O2  UNK     1      11.530   4.589   8.658  1.00  0.00    -0.287 OA
BRANCH  17  19
HETATM   19  C16 UNK     1      12.893   6.481   8.402  1.00  0.00     0.048 A 
HETATM   20  C19 UNK     1      14.030   6.018   9.063  1.00  0.00     0.090 A 
HETATM   21  C15 UNK     1      15.029   6.912   9.485  1.00  0.00     0.008 A 
HETATM   22  C17 UNK     1      14.870   8.295   9.231  1.00  0.00    -0.023 A 
HETATM   23  C23 UNK     1      16.180   6.463  10.152  1.00  0.00     0.015 A 
HETATM   24  C22 UNK     1      13.719   8.743   8.563  1.00  0.00     0.013 A 
HETATM   25  C24 UNK     1      15.868   9.189   9.652  1.00  0.00     0.012 A 
HETATM   26  C21 UNK     1      12.738   7.842   8.152  1.00  0.00     0.019 A 
HETATM   27  C26 UNK     1      17.006   8.726  10.314  1.00  0.00     0.001 A 
HETATM   28  C25 UNK     1      17.162   7.366  10.564  1.00  0.00     0.001 A 
BRANCH  20  29
HETATM   29  O1  UNK     1      14.159   4.676   9.295  1.00  0.00    -0.359 OA
HETATM   30  H19 UNK     1      13.403   4.186   8.936  1.00  0.00     0.217 HD
ENDBRANCH  20  29
ENDBRANCH  17  19
ENDBRANCH   2  17
TORSDOF 4
ENDMDL
MODEL 10
REMARK VINA RESULT:      -9.1      3.944      9.891
REMARK  4 active torsions:
REMARK  status: ('A' for Active; 'I' for Inactive)
REMARK    1  A    between atoms: C19_22  and  O1_1 
REMARK    2  A    between atoms: C14_17  and  C7_10 
REMARK    3  A    between atoms: C16_19  and  C20_23 
REMARK    4  A    between atoms: C18_21  and  C20_23 
ROOT
HETATM    1  C14 UNK     1      15.648   7.368  10.918  1.00  0.00     0.015 C 
HETATM    2  C18 UNK     1      15.247   6.147  10.496  1.00  0.00     0.056 C 
ENDROOT
BRANCH   1   3
HETATM    3  C7  UNK     1      15.739   8.555  10.083  1.00  0.00    -0.035 A 
HETATM    4  C11 UNK     1      14.589   9.072   9.490  1.00  0.00     0.013 A 
HETATM    5  C6  UNK     1      14.647  10.212   8.684  1.00  0.00     0.031 A 
HETATM    6  C2  UNK     1      15.898  10.813   8.496  1.00  0.00     0.045 A 
HETATM    7  C1  UNK     1      17.067  10.318   9.076  1.00  0.00     0.004 A 
HETATM    8  N1  UNK     1      16.245  11.925   7.767  1.00  0.00    -0.350 N 
HETATM    9  C3  UNK     1      18.139  11.174   8.672  1.00  0.00     0.003 A 
HETATM   10  C5  UNK     1      16.982   9.166   9.885  1.00  0.00     0.026 A 
HETATM   11  C4  UNK     1      17.596  12.167   7.856  1.00  0.00     0.045 A 
HETATM   12  C8  UNK     1      19.527  11.195   8.925  1.00  0.00     0.014 A 
HETATM   13  C9  UNK     1      18.368  13.181   7.281  1.00  0.00     0.030 A 
HETATM   14  C13 UNK     1      19.740  13.182   7.546  1.00  0.00     0.002 A 
HETATM   15  C12 UNK     1      20.313  12.204   8.356  1.00  0.00     0.001 A 
HETATM   16  C10 UNK     1      15.313  12.734   7.007  1.00  0.00     0.156 C 
ENDBRANCH   1   3
BRANCH   2  17
HETATM   17  C20 UNK     1      14.853   5.935   9.075  1.00  0.00     0.184 C 
HETATM   18  O2  UNK     1      15.674   5.761   8.182  1.00  0.00    -0.287 OA
BRANCH  17  19
HETATM   19  C16 UNK     1      13.405   5.907   8.760  1.00  0.00     0.048 A 
HETATM   20  C19 UNK     1      12.934   6.291   7.504  1.00  0.00     0.090 A 
HETATM   21  C15 UNK     1      11.560   6.262   7.213  1.00  0.00     0.008 A 
HETATM   22  C17 UNK     1      10.651   5.837   8.211  1.00  0.00    -0.023 A 
HETATM   23  C23 UNK     1      11.069   6.645   5.954  1.00  0.00     0.015 A 
HETATM   24  C22 UNK     1      11.142   5.454   9.469  1.00  0.00     0.013 A 
HETATM   25  C24 UNK     1       9.278   5.807   7.920  1.00  0.00     0.012 A 
HETATM   26  C21 UNK     1      12.509   5.489   9.741  1.00  0.00     0.019 A 
HETATM   27  C26 UNK     1       8.807   6.191   6.664  1.00  0.00     0.001 A 
HETATM   28  C25 UNK     1       9.701   6.609   5.683  1.00  0.00     0.001 A 
BRANCH  20  29
HETATM   29  O1  UNK     1      13.835   6.696   6.558  1.00  0.00    -0.359 OA
HETATM   30  H19 UNK     1      13.960   7.657   6.584  1.00  0.00     0.217 HD
ENDBRANCH  20  29
ENDBRANCH  17  19
ENDBRANCH   2  17
TORSDOF 4
ENDMDL
