MODEL 1
REMARK VINA RESULT:      -9.6      0.000      0.000
REMARK  5 active torsions:
REMARK  status: ('A' for Active; 'I' for Inactive)
REMARK    1  A    between atoms: C18_27  and  O4_4 
REMARK    2  A    between atoms: C2_11  and  N1_8 
REMARK       I    between atoms: C7_16  and  N1_8 
REMARK    3  A    between atoms: C14_23  and  N2_9 
REMARK    4  A    between atoms: C3_12  and  C7_16 
REMARK    5  A    between atoms: C10_19  and  C18_27 
ROOT
HETATM    1  O2  UNK     1      17.534   3.257  32.806  1.00  0.00    -0.267 OA
HETATM    2  N1  UNK     1      18.799   4.698  31.439  1.00  0.00    -0.322 N 
HETATM    3  C7  UNK     1      18.292   3.478  31.863  1.00  0.00     0.262 C 
HETATM    4  H2  UNK     1      19.398   4.698  30.619  1.00  0.00     0.169 HD
ENDROOT
BRANCH   3   5
HETATM    5  C3  UNK     1      18.763   2.363  31.031  1.00  0.00     0.108 A 
HETATM    6  C13 UNK     1      18.760   2.432  29.552  1.00  0.00     0.304 A 
HETATM    7  O1  UNK     1      19.231   1.312  28.874  1.00  0.00    -0.274 OA
HETATM    8  O3  UNK     1      18.364   3.423  28.949  1.00  0.00    -0.259 OA
HETATM    9  C5  UNK     1      19.690   0.168  29.555  1.00  0.00     0.089 A 
HETATM   10  C1  UNK     1      19.683   0.124  30.946  1.00  0.00     0.001 A 
HETATM   11  C12 UNK     1      20.143  -0.904  28.789  1.00  0.00     0.041 A 
HETATM   12  C9  UNK     1      20.144  -1.028  31.586  1.00  0.00     0.050 A 
HETATM   13  C6  UNK     1      19.197   1.279  31.684  1.00  0.00     0.037 A 
HETATM   14  C14 UNK     1      20.602  -2.112  30.831  1.00  0.00     0.103 A 
HETATM   15  C17 UNK     1      20.601  -2.050  29.436  1.00  0.00     0.039 A 
BRANCH  14  16
HETATM   16  N2  UNK     1      21.071  -3.283  31.486  1.00  0.00    -0.116 N 
HETATM   17  O6  UNK     1      21.514  -4.230  30.793  1.00  0.00    -0.532 OA
HETATM   18  O7  UNK     1      21.031  -3.335  32.739  1.00  0.00    -0.532 OA
ENDBRANCH  14  16
ENDBRANCH   3   5
BRANCH   2  19
HETATM   19  C2  UNK     1      18.558   5.976  32.001  1.00  0.00     0.042 A 
HETATM   20  C4  UNK     1      19.552   6.618  32.721  1.00  0.00    -0.035 A 
HETATM   21  C11 UNK     1      19.297   7.876  33.265  1.00  0.00     0.010 A 
HETATM   22  C16 UNK     1      20.897   6.001  32.930  1.00  0.00     0.050 C 
HETATM   23  C15 UNK     1      18.051   8.475  33.082  1.00  0.00     0.018 A 
HETATM   24  C10 UNK     1      17.060   7.817  32.356  1.00  0.00     0.041 A 
HETATM   25  C8  UNK     1      17.315   6.558  31.811  1.00  0.00     0.047 A 
BRANCH  24  26
HETATM   26  C18 UNK     1      15.761   8.441  32.167  1.00  0.00     0.293 C 
HETATM   27  O5  UNK     1      15.472   9.584  32.545  1.00  0.00    -0.259 OA
BRANCH  26  28
HETATM   28  O4  UNK     1      14.892   7.609  31.516  1.00  0.00    -0.323 OA
HETATM   29  C19 UNK     1      13.679   7.276  32.201  1.00  0.00     0.213 C 
ENDBRANCH  26  28
ENDBRANCH  24  26
ENDBRANCH   2  19
TORSDOF 5
ENDMDL
MODEL 2
REMARK VINA RESULT:      -9.3      3.907      8.987
REMARK  5 active torsions:
REMARK  status: ('A' for Active; 'I' for Inactive)
REMARK    1  A    between atoms: C18_27  and  O4_4 
REMARK    2  A    between atoms: C2_11  and  N1_8 
REMARK       I    between atoms: C7_16  and  N1_8 
REMARK    3  A    between atoms: C14_23  and  N2_9 
REMARK    4  A    between atoms: C3_12  and  C7_16 
REMARK    5  A    between atoms: C10_19  and  C18_27 
ROOT
HETATM    1  O2  UNK     1      17.912  -0.711  32.791  1.00  0.00    -0.267 OA
HETATM    2  N1  UNK     1      18.781   0.592  34.550  1.00  0.00    -0.322 N 
HETATM    3  C7  UNK     1      18.376   0.333  33.248  1.00  0.00     0.262 C 
HETATM    4  H2  UNK     1      19.120   1.526  34.758  1.00  0.00     0.169 HD
ENDROOT
BRANCH   3   5
HETATM    5  C3  UNK     1      18.551   1.498  32.371  1.00  0.00     0.108 A 
HETATM    6  C13 UNK     1      19.098   1.374  31.002  1.00  0.00     0.304 A 
HETATM    7  O1  UNK     1      19.215   2.551  30.267  1.00  0.00    -0.274 OA
HETATM    8  O3  UNK     1      19.433   0.293  30.532  1.00  0.00    -0.259 OA
HETATM    9  C5  UNK     1      18.833   3.799  30.796  1.00  0.00     0.089 A 
HETATM   10  C1  UNK     1      18.321   3.892  32.087  1.00  0.00     0.001 A 
HETATM   11  C12 UNK     1      18.988   4.921  29.985  1.00  0.00     0.041 A 
HETATM   12  C9  UNK     1      17.954   5.148  32.577  1.00  0.00     0.050 A 
HETATM   13  C6  UNK     1      18.186   2.681  32.880  1.00  0.00     0.037 A 
HETATM   14  C14 UNK     1      18.103   6.283  31.775  1.00  0.00     0.103 A 
HETATM   15  C17 UNK     1      18.619   6.169  30.482  1.00  0.00     0.039 A 
BRANCH  14  16
HETATM   16  N2  UNK     1      17.728   7.558  32.276  1.00  0.00    -0.116 N 
HETATM   17  O6  UNK     1      16.812   8.192  31.700  1.00  0.00    -0.532 OA
HETATM   18  O7  UNK     1      18.323   8.013  33.282  1.00  0.00    -0.532 OA
ENDBRANCH  14  16
ENDBRANCH   3   5
BRANCH   2  19
HETATM   19  C2  UNK     1      18.754  -0.294  35.655  1.00  0.00     0.042 A 
HETATM   20  C4  UNK     1      18.038   0.037  36.794  1.00  0.00    -0.035 A 
HETATM   21  C11 UNK     1      18.022  -0.848  37.872  1.00  0.00     0.010 A 
HETATM   22  C16 UNK     1      17.277   1.318  36.902  1.00  0.00     0.050 C 
HETATM   23  C15 UNK     1      18.722  -2.052  37.796  1.00  0.00     0.018 A 
HETATM   24  C10 UNK     1      19.439  -2.371  36.643  1.00  0.00     0.041 A 
HETATM   25  C8  UNK     1      19.455  -1.485  35.565  1.00  0.00     0.047 A 
BRANCH  24  26
HETATM   26  C18 UNK     1      20.170  -3.625  36.565  1.00  0.00     0.293 C 
HETATM   27  O5  UNK     1      20.250  -4.327  35.548  1.00  0.00    -0.259 OA
BRANCH  26  28
HETATM   28  O4  UNK     1      20.762  -3.937  37.758  1.00  0.00    -0.323 OA
HETATM   29  C19 UNK     1      21.234  -5.280  37.915  1.00  0.00     0.213 C 
ENDBRANCH  26  28
ENDBRANCH  24  26
ENDBRANCH   2  19
TORSDOF 5
ENDMDL
MODEL 3
REMARK VINA RESULT:      -9.1     14.691     19.090
REMARK  5 active torsions:
REMARK  status: ('A' for Active; 'I' for Inactive)
REMARK    1  A    between atoms: C18_27  and  O4_4 
REMARK    2  A    between atoms: C2_11  and  N1_8 
REMARK       I    between atoms: C7_16  and  N1_8 
REMARK    3  A    between atoms: C14_23  and  N2_9 
REMARK    4  A    between atoms: C3_12  and  C7_16 
REMARK    5  A    between atoms: C10_19  and  C18_27 
ROOT
HETATM    1  O2  UNK     1      17.689  -3.558  15.572  1.00  0.00    -0.267 OA
HETATM    2  N1  UNK     1      19.705  -3.404  14.367  1.00  0.00    -0.322 N 
HETATM    3  C7  UNK     1      18.673  -2.940  15.170  1.00  0.00     0.262 C 
HETATM    4  H2  UNK     1      20.457  -2.757  14.150  1.00  0.00     0.169 HD
ENDROOT
BRANCH   3   5
HETATM    5  C3  UNK     1      18.853  -1.532  15.547  1.00  0.00     0.108 A 
HETATM    6  C13 UNK     1      19.138  -0.482  14.544  1.00  0.00     0.304 A 
HETATM    7  O1  UNK     1      19.288   0.816  15.024  1.00  0.00    -0.274 OA
HETATM    8  O3  UNK     1      19.238  -0.736  13.349  1.00  0.00    -0.259 OA
HETATM    9  C5  UNK     1      19.174   1.120  16.394  1.00  0.00     0.089 A 
HETATM   10  C1  UNK     1      18.907   0.117  17.321  1.00  0.00     0.001 A 
HETATM   11  C12 UNK     1      19.340   2.449  16.779  1.00  0.00     0.041 A 
HETATM   12  C9  UNK     1      18.802   0.457  18.671  1.00  0.00     0.050 A 
HETATM   13  C6  UNK     1      18.744  -1.250  16.851  1.00  0.00     0.037 A 
HETATM   14  C14 UNK     1      18.966   1.786  19.073  1.00  0.00     0.103 A 
HETATM   15  C17 UNK     1      19.234   2.779  18.128  1.00  0.00     0.039 A 
BRANCH  14  16
HETATM   16  N2  UNK     1      18.859   2.128  20.447  1.00  0.00    -0.116 N 
HETATM   17  O6  UNK     1      19.894   2.459  21.074  1.00  0.00    -0.532 OA
HETATM   18  O7  UNK     1      17.731   2.090  20.996  1.00  0.00    -0.532 OA
ENDBRANCH  14  16
ENDBRANCH   3   5
BRANCH   2  19
HETATM   19  C2  UNK     1      19.859  -4.702  13.821  1.00  0.00     0.042 A 
HETATM   20  C4  UNK     1      20.680  -5.626  14.447  1.00  0.00    -0.035 A 
HETATM   21  C11 UNK     1      20.818  -6.900  13.896  1.00  0.00     0.010 A 
HETATM   22  C16 UNK     1      21.422  -5.299  15.701  1.00  0.00     0.050 C 
HETATM   23  C15 UNK     1      20.134  -7.232  12.727  1.00  0.00     0.018 A 
HETATM   24  C10 UNK     1      19.312  -6.290  12.108  1.00  0.00     0.041 A 
HETATM   25  C8  UNK     1      19.174  -5.016  12.660  1.00  0.00     0.047 A 
BRANCH  24  26
HETATM   26  C18 UNK     1      18.600  -6.637  10.889  1.00  0.00     0.293 C 
HETATM   27  O5  UNK     1      19.145  -6.862   9.800  1.00  0.00    -0.259 OA
BRANCH  26  28
HETATM   28  O4  UNK     1      17.248  -6.685  11.092  1.00  0.00    -0.323 OA
HETATM   29  C19 UNK     1      16.633  -7.977  11.048  1.00  0.00     0.213 C 
ENDBRANCH  26  28
ENDBRANCH  24  26
ENDBRANCH   2  19
TORSDOF 5
ENDMDL
MODEL 4
REMARK VINA RESULT:      -8.8     14.433     18.875
REMARK  5 active torsions:
REMARK  status: ('A' for Active; 'I' for Inactive)
REMARK    1  A    between atoms: C18_27  and  O4_4 
REMARK    2  A    between atoms: C2_11  and  N1_8 
REMARK       I    between atoms: C7_16  and  N1_8 
REMARK    3  A    between atoms: C14_23  and  N2_9 
REMARK    4  A    between atoms: C3_12  and  C7_16 
REMARK    5  A    between atoms: C10_19  and  C18_27 
ROOT
HETATM    1  O2  UNK     1      20.246  -3.986  15.547  1.00  0.00    -0.267 OA
HETATM    2  N1  UNK     1      17.935  -3.831  15.122  1.00  0.00    -0.322 N 
HETATM    3  C7  UNK     1      19.194  -3.354  15.459  1.00  0.00     0.262 C 
HETATM    4  H2  UNK     1      17.177  -3.157  15.074  1.00  0.00     0.169 HD
ENDROOT
BRANCH   3   5
HETATM    5  C3  UNK     1      19.188  -1.910  15.724  1.00  0.00     0.108 A 
HETATM    6  C13 UNK     1      19.298  -0.912  14.636  1.00  0.00     0.304 A 
HETATM    7  O1  UNK     1      19.279   0.428  15.013  1.00  0.00    -0.274 OA
HETATM    8  O3  UNK     1      19.402  -1.243  13.460  1.00  0.00    -0.259 OA
HETATM    9  C5  UNK     1      19.159   0.819  16.361  1.00  0.00     0.089 A 
HETATM   10  C1  UNK     1      19.058  -0.136  17.368  1.00  0.00     0.001 A 
HETATM   11  C12 UNK     1      19.150   2.185  16.640  1.00  0.00     0.041 A 
HETATM   12  C9  UNK     1      18.941   0.292  18.692  1.00  0.00     0.050 A 
HETATM   13  C6  UNK     1      19.074  -1.544  17.006  1.00  0.00     0.037 A 
HETATM   14  C14 UNK     1      18.930   1.658  18.988  1.00  0.00     0.103 A 
HETATM   15  C17 UNK     1      19.034   2.601  17.964  1.00  0.00     0.039 A 
BRANCH  14  16
HETATM   16  N2  UNK     1      18.811   2.089  20.337  1.00  0.00    -0.116 N 
HETATM   17  O6  UNK     1      19.827   2.532  20.925  1.00  0.00    -0.532 OA
HETATM   18  O7  UNK     1      17.693   2.014  20.901  1.00  0.00    -0.532 OA
ENDBRANCH  14  16
ENDBRANCH   3   5
BRANCH   2  19
HETATM   19  C2  UNK     1      17.572  -5.163  14.804  1.00  0.00     0.042 A 
HETATM   20  C4  UNK     1      16.845  -5.920  15.708  1.00  0.00    -0.035 A 
HETATM   21  C11 UNK     1      16.495  -7.229  15.376  1.00  0.00     0.010 A 
HETATM   22  C16 UNK     1      16.421  -5.374  17.032  1.00  0.00     0.050 C 
HETATM   23  C15 UNK     1      16.877  -7.762  14.145  1.00  0.00     0.018 A 
HETATM   24  C10 UNK     1      17.609  -6.987  13.245  1.00  0.00     0.041 A 
HETATM   25  C8  UNK     1      17.958  -5.677  13.578  1.00  0.00     0.047 A 
BRANCH  24  26
HETATM   26  C18 UNK     1      18.007  -7.543  11.963  1.00  0.00     0.293 C 
HETATM   27  O5  UNK     1      18.777  -8.503  11.825  1.00  0.00    -0.259 OA
BRANCH  26  28
HETATM   28  O4  UNK     1      17.423  -6.875  10.921  1.00  0.00    -0.323 OA
HETATM   29  C19 UNK     1      16.384  -7.561  10.214  1.00  0.00     0.213 C 
ENDBRANCH  26  28
ENDBRANCH  24  26
ENDBRANCH   2  19
TORSDOF 5
ENDMDL
MODEL 5
REMARK VINA RESULT:      -8.7     14.317     16.451
REMARK  5 active torsions:
REMARK  status: ('A' for Active; 'I' for Inactive)
REMARK    1  A    between atoms: C18_27  and  O4_4 
REMARK    2  A    between atoms: C2_11  and  N1_8 
REMARK       I    between atoms: C7_16  and  N1_8 
REMARK    3  A    between atoms: C14_23  and  N2_9 
REMARK    4  A    between atoms: C3_12  and  C7_16 
REMARK    5  A    between atoms: C10_19  and  C18_27 
ROOT
HETATM    1  O2  UNK     1      26.139  -9.041  39.408  1.00  0.00    -0.267 OA
HETATM    2  N1  UNK     1      24.915  -7.628  37.977  1.00  0.00    -0.322 N 
HETATM    3  C7  UNK     1      26.008  -8.018  38.739  1.00  0.00     0.262 C 
HETATM    4  H2  UNK     1      24.988  -6.754  37.465  1.00  0.00     0.169 HD
ENDROOT
BRANCH   3   5
HETATM    5  C3  UNK     1      27.100  -7.038  38.683  1.00  0.00     0.108 A 
HETATM    6  C13 UNK     1      26.859  -5.585  38.835  1.00  0.00     0.304 A 
HETATM    7  O1  UNK     1      27.976  -4.757  38.765  1.00  0.00    -0.274 OA
HETATM    8  O3  UNK     1      25.736  -5.129  39.014  1.00  0.00    -0.259 OA
HETATM    9  C5  UNK     1      29.271  -5.270  38.561  1.00  0.00     0.089 A 
HETATM   10  C1  UNK     1      29.475  -6.639  38.420  1.00  0.00     0.001 A 
HETATM   11  C12 UNK     1      30.326  -4.361  38.505  1.00  0.00     0.041 A 
HETATM   12  C9  UNK     1      30.774  -7.110  38.218  1.00  0.00     0.050 A 
HETATM   13  C6  UNK     1      28.328  -7.532  38.489  1.00  0.00     0.037 A 
HETATM   14  C14 UNK     1      31.843  -6.211  38.159  1.00  0.00     0.103 A 
HETATM   15  C17 UNK     1      31.619  -4.840  38.303  1.00  0.00     0.039 A 
BRANCH  14  16
HETATM   16  N2  UNK     1      33.163  -6.694  37.954  1.00  0.00    -0.116 N 
HETATM   17  O6  UNK     1      33.338  -7.921  37.762  1.00  0.00    -0.532 OA
HETATM   18  O7  UNK     1      34.117  -5.879  37.971  1.00  0.00    -0.532 OA
ENDBRANCH  14  16
ENDBRANCH   3   5
BRANCH   2  19
HETATM   19  C2  UNK     1      23.693  -8.323  37.799  1.00  0.00     0.042 A 
HETATM   20  C4  UNK     1      22.632  -8.095  38.659  1.00  0.00    -0.035 A 
HETATM   21  C11 UNK     1      21.436  -8.787  38.466  1.00  0.00     0.010 A 
HETATM   22  C16 UNK     1      22.728  -7.124  39.790  1.00  0.00     0.050 C 
HETATM   23  C15 UNK     1      21.320  -9.698  37.417  1.00  0.00     0.018 A 
HETATM   24  C10 UNK     1      22.398  -9.917  36.559  1.00  0.00     0.041 A 
HETATM   25  C8  UNK     1      23.593  -9.224  36.752  1.00  0.00     0.047 A 
BRANCH  24  26
HETATM   26  C18 UNK     1      22.275 -10.868  35.466  1.00  0.00     0.293 C 
HETATM   27  O5  UNK     1      21.796 -10.600  34.356  1.00  0.00    -0.259 OA
BRANCH  26  28
HETATM   28  O4  UNK     1      22.758 -12.099  35.814  1.00  0.00    -0.323 OA
HETATM   29  C19 UNK     1      24.149 -12.341  35.574  1.00  0.00     0.213 C 
ENDBRANCH  26  28
ENDBRANCH  24  26
ENDBRANCH   2  19
TORSDOF 5
ENDMDL
MODEL 6
REMARK VINA RESULT:      -8.7     22.802     25.053
REMARK  5 active torsions:
REMARK  status: ('A' for Active; 'I' for Inactive)
REMARK    1  A    between atoms: C18_27  and  O4_4 
REMARK    2  A    between atoms: C2_11  and  N1_8 
REMARK       I    between atoms: C7_16  and  N1_8 
REMARK    3  A    between atoms: C14_23  and  N2_9 
REMARK    4  A    between atoms: C3_12  and  C7_16 
REMARK    5  A    between atoms: C10_19  and  C18_27 
ROOT
HETATM    1  O2  UNK     1      12.604   6.229  10.204  1.00  0.00    -0.267 OA
HETATM    2  N1  UNK     1      11.891   7.657   8.473  1.00  0.00    -0.322 N 
HETATM    3  C7  UNK     1      12.765   7.178   9.439  1.00  0.00     0.262 C 
HETATM    4  H2  UNK     1      12.200   8.443   7.910  1.00  0.00     0.169 HD
ENDROOT
BRANCH   3   5
HETATM    5  C3  UNK     1      14.014   7.949   9.488  1.00  0.00     0.108 A 
HETATM    6  C13 UNK     1      15.156   7.541  10.336  1.00  0.00     0.304 A 
HETATM    7  O1  UNK     1      16.285   8.354  10.297  1.00  0.00    -0.274 OA
HETATM    8  O3  UNK     1      15.115   6.538  11.041  1.00  0.00    -0.259 OA
HETATM    9  C5  UNK     1      16.343   9.507   9.491  1.00  0.00     0.089 A 
HETATM   10  C1  UNK     1      15.258   9.873   8.702  1.00  0.00     0.001 A 
HETATM   11  C12 UNK     1      17.517  10.258   9.518  1.00  0.00     0.041 A 
HETATM   12  C9  UNK     1      15.353  11.024   7.917  1.00  0.00     0.050 A 
HETATM   13  C6  UNK     1      14.063   9.044   8.720  1.00  0.00     0.037 A 
HETATM   14  C14 UNK     1      16.524  11.788   7.933  1.00  0.00     0.103 A 
HETATM   15  C17 UNK     1      17.603  11.404   8.732  1.00  0.00     0.039 A 
BRANCH  14  16
HETATM   16  N2  UNK     1      16.617  12.958   7.133  1.00  0.00    -0.116 N 
HETATM   17  O6  UNK     1      17.752  13.411   6.849  1.00  0.00    -0.532 OA
HETATM   18  O7  UNK     1      15.562  13.505   6.732  1.00  0.00    -0.532 OA
ENDBRANCH  14  16
ENDBRANCH   3   5
BRANCH   2  19
HETATM   19  C2  UNK     1      10.605   7.160   8.149  1.00  0.00     0.042 A 
HETATM   20  C4  UNK     1      10.397   6.499   6.950  1.00  0.00    -0.035 A 
HETATM   21  C11 UNK     1       9.124   6.015   6.649  1.00  0.00     0.010 A 
HETATM   22  C16 UNK     1      11.501   6.285   5.966  1.00  0.00     0.050 C 
HETATM   23  C15 UNK     1       8.076   6.200   7.551  1.00  0.00     0.018 A 
HETATM   24  C10 UNK     1       8.301   6.869   8.754  1.00  0.00     0.041 A 
HETATM   25  C8  UNK     1       9.575   7.352   9.055  1.00  0.00     0.047 A 
BRANCH  24  26
HETATM   26  C18 UNK     1       7.208   7.061   9.693  1.00  0.00     0.293 C 
HETATM   27  O5  UNK     1       6.126   7.592   9.409  1.00  0.00    -0.259 OA
BRANCH  26  28
HETATM   28  O4  UNK     1       7.522   6.583  10.935  1.00  0.00    -0.323 OA
HETATM   29  C19 UNK     1       7.148   5.231  11.222  1.00  0.00     0.213 C 
ENDBRANCH  26  28
ENDBRANCH  24  26
ENDBRANCH   2  19
TORSDOF 5
ENDMDL
MODEL 7
REMARK VINA RESULT:      -8.7      7.180     13.265
REMARK  5 active torsions:
REMARK  status: ('A' for Active; 'I' for Inactive)
REMARK    1  A    between atoms: C18_27  and  O4_4 
REMARK    2  A    between atoms: C2_11  and  N1_8 
REMARK       I    between atoms: C7_16  and  N1_8 
REMARK    3  A    between atoms: C14_23  and  N2_9 
REMARK    4  A    between atoms: C3_12  and  C7_16 
REMARK    5  A    between atoms: C10_19  and  C18_27 
ROOT
HETATM    1  O2  UNK     1      21.859  -4.908  37.540  1.00  0.00    -0.267 OA
HETATM    2  N1  UNK     1      20.125  -6.160  36.555  1.00  0.00    -0.322 N 
HETATM    3  C7  UNK     1      20.831  -5.008  36.873  1.00  0.00     0.262 C 
HETATM    4  H2  UNK     1      19.302  -6.059  35.969  1.00  0.00     0.169 HD
ENDROOT
BRANCH   3   5
HETATM    5  C3  UNK     1      20.212  -3.804  36.302  1.00  0.00     0.108 A 
HETATM    6  C13 UNK     1      20.191  -3.548  34.844  1.00  0.00     0.304 A 
HETATM    7  O1  UNK     1      19.574  -2.373  34.426  1.00  0.00    -0.274 OA
HETATM    8  O3  UNK     1      20.690  -4.329  34.041  1.00  0.00    -0.259 OA
HETATM    9  C5  UNK     1      18.997  -1.470  35.339  1.00  0.00     0.089 A 
HETATM   10  C1  UNK     1      19.029  -1.730  36.706  1.00  0.00     0.001 A 
HETATM   11  C12 UNK     1      18.402  -0.320  34.824  1.00  0.00     0.041 A 
HETATM   12  C9  UNK     1      18.447  -0.810  37.580  1.00  0.00     0.050 A 
HETATM   13  C6  UNK     1      19.666  -2.950  37.175  1.00  0.00     0.037 A 
HETATM   14  C14 UNK     1      17.846   0.349  37.079  1.00  0.00     0.103 A 
HETATM   15  C17 UNK     1      17.824   0.593  35.704  1.00  0.00     0.039 A 
BRANCH  14  16
HETATM   16  N2  UNK     1      17.254   1.282  37.972  1.00  0.00    -0.116 N 
HETATM   17  O6  UNK     1      17.811   1.507  39.073  1.00  0.00    -0.532 OA
HETATM   18  O7  UNK     1      16.192   1.856  37.633  1.00  0.00    -0.532 OA
ENDBRANCH  14  16
ENDBRANCH   3   5
BRANCH   2  19
HETATM   19  C2  UNK     1      20.430  -7.491  36.932  1.00  0.00     0.042 A 
HETATM   20  C4  UNK     1      20.188  -7.920  38.227  1.00  0.00    -0.035 A 
HETATM   21  C11 UNK     1      20.492  -9.235  38.578  1.00  0.00     0.010 A 
HETATM   22  C16 UNK     1      19.606  -7.013  39.262  1.00  0.00     0.050 C 
HETATM   23  C15 UNK     1      21.035 -10.102  37.631  1.00  0.00     0.018 A 
HETATM   24  C10 UNK     1      21.273  -9.656  36.331  1.00  0.00     0.041 A 
HETATM   25  C8  UNK     1      20.968  -8.340  35.980  1.00  0.00     0.047 A 
BRANCH  24  26
HETATM   26  C18 UNK     1      21.839 -10.561  35.344  1.00  0.00     0.293 C 
HETATM   27  O5  UNK     1      21.784 -10.385  34.120  1.00  0.00    -0.259 OA
BRANCH  26  28
HETATM   28  O4  UNK     1      22.445 -11.635  35.936  1.00  0.00    -0.323 OA
HETATM   29  C19 UNK     1      23.859 -11.766  35.749  1.00  0.00     0.213 C 
ENDBRANCH  26  28
ENDBRANCH  24  26
ENDBRANCH   2  19
TORSDOF 5
ENDMDL
MODEL 8
REMARK VINA RESULT:      -8.7      3.486      9.485
REMARK  5 active torsions:
REMARK  status: ('A' for Active; 'I' for Inactive)
REMARK    1  A    between atoms: C18_27  and  O4_4 
REMARK    2  A    between atoms: C2_11  and  N1_8 
REMARK       I    between atoms: C7_16  and  N1_8 
REMARK    3  A    between atoms: C14_23  and  N2_9 
REMARK    4  A    between atoms: C3_12  and  C7_16 
REMARK    5  A    between atoms: C10_19  and  C18_27 
ROOT
HETATM    1  O2  UNK     1      19.737   2.859  35.664  1.00  0.00    -0.267 OA
HETATM    2  N1  UNK     1      18.011   1.504  34.811  1.00  0.00    -0.322 N 
HETATM    3  C7  UNK     1      18.770   2.660  34.931  1.00  0.00     0.262 C 
HETATM    4  H2  UNK     1      17.255   1.509  34.132  1.00  0.00     0.169 HD
ENDROOT
BRANCH   3   5
HETATM    5  C3  UNK     1      18.300   3.728  34.040  1.00  0.00     0.108 A 
HETATM    6  C13 UNK     1      17.925   3.466  32.632  1.00  0.00     0.304 A 
HETATM    7  O1  UNK     1      17.493   4.560  31.887  1.00  0.00    -0.274 OA
HETATM    8  O3  UNK     1      17.989   2.345  32.141  1.00  0.00    -0.259 OA
HETATM    9  C5  UNK     1      17.414   5.852  32.441  1.00  0.00     0.089 A 
HETATM   10  C1  UNK     1      17.773   6.076  33.767  1.00  0.00     0.001 A 
HETATM   11  C12 UNK     1      16.970   6.884  31.616  1.00  0.00     0.041 A 
HETATM   12  C9  UNK     1      17.682   7.372  34.280  1.00  0.00     0.050 A 
HETATM   13  C6  UNK     1      18.228   4.953  34.572  1.00  0.00     0.037 A 
HETATM   14  C14 UNK     1      17.238   8.418  33.465  1.00  0.00     0.103 A 
HETATM   15  C17 UNK     1      16.883   8.174  32.137  1.00  0.00     0.039 A 
BRANCH  14  16
HETATM   16  N2  UNK     1      17.147   9.734  33.991  1.00  0.00    -0.116 N 
HETATM   17  O6  UNK     1      16.305   9.972  34.890  1.00  0.00    -0.532 OA
HETATM   18  O7  UNK     1      17.911  10.622  33.541  1.00  0.00    -0.532 OA
ENDBRANCH  14  16
ENDBRANCH   3   5
BRANCH   2  19
HETATM   19  C2  UNK     1      18.177   0.284  35.510  1.00  0.00     0.042 A 
HETATM   20  C4  UNK     1      17.448   0.038  36.663  1.00  0.00    -0.035 A 
HETATM   21  C11 UNK     1      17.624  -1.170  37.337  1.00  0.00     0.010 A 
HETATM   22  C16 UNK     1      16.474   1.032  37.206  1.00  0.00     0.050 C 
HETATM   23  C15 UNK     1      18.527  -2.115  36.850  1.00  0.00     0.018 A 
HETATM   24  C10 UNK     1      19.253  -1.853  35.689  1.00  0.00     0.041 A 
HETATM   25  C8  UNK     1      19.077  -0.645  35.014  1.00  0.00     0.047 A 
BRANCH  24  26
HETATM   26  C18 UNK     1      20.194  -2.839  35.182  1.00  0.00     0.293 C 
HETATM   27  O5  UNK     1      20.212  -4.030  35.522  1.00  0.00    -0.259 OA
BRANCH  26  28
HETATM   28  O4  UNK     1      21.062  -2.289  34.279  1.00  0.00    -0.323 OA
HETATM   29  C19 UNK     1      20.920  -2.696  32.914  1.00  0.00     0.213 C 
ENDBRANCH  26  28
ENDBRANCH  24  26
ENDBRANCH   2  19
TORSDOF 5
ENDMDL
MODEL 9
REMARK VINA RESULT:      -8.6     22.186     24.475
REMARK  5 active torsions:
REMARK  status: ('A' for Active; 'I' for Inactive)
REMARK    1  A    between atoms: C18_27  and  O4_4 
REMARK    2  A    between atoms: C2_11  and  N1_8 
REMARK       I    between atoms: C7_16  and  N1_8 
REMARK    3  A    between atoms: C14_23  and  N2_9 
REMARK    4  A    between atoms: C3_12  and  C7_16 
REMARK    5  A    between atoms: C10_19  and  C18_27 
ROOT
HETATM    1  O2  UNK     1       8.597   7.211   9.786  1.00  0.00    -0.267 OA
HETATM    2  N1  UNK     1       9.543   5.205   8.996  1.00  0.00    -0.322 N 
HETATM    3  C7  UNK     1       8.596   5.990   9.638  1.00  0.00     0.262 C 
HETATM    4  H2  UNK     1       9.367   4.206   8.946  1.00  0.00     0.169 HD
ENDROOT
BRANCH   3   5
HETATM    5  C3  UNK     1       7.486   5.193  10.174  1.00  0.00     0.108 A 
HETATM    6  C13 UNK     1       6.870   4.088   9.405  1.00  0.00     0.304 A 
HETATM    7  O1  UNK     1       5.825   3.405  10.022  1.00  0.00    -0.274 OA
HETATM    8  O3  UNK     1       7.256   3.785   8.282  1.00  0.00    -0.259 OA
HETATM    9  C5  UNK     1       5.374   3.743  11.312  1.00  0.00     0.089 A 
HETATM   10  C1  UNK     1       5.967   4.786  12.017  1.00  0.00     0.001 A 
HETATM   11  C12 UNK     1       4.322   3.001  11.846  1.00  0.00     0.041 A 
HETATM   12  C9  UNK     1       5.491   5.093  13.294  1.00  0.00     0.050 A 
HETATM   13  C6  UNK     1       7.061   5.519  11.401  1.00  0.00     0.037 A 
HETATM   14  C14 UNK     1       4.437   4.357  13.843  1.00  0.00     0.103 A 
HETATM   15  C17 UNK     1       3.854   3.314  13.120  1.00  0.00     0.039 A 
BRANCH  14  16
HETATM   16  N2  UNK     1       3.956   4.672  15.142  1.00  0.00    -0.116 N 
HETATM   17  O6  UNK     1       3.845   5.876  15.474  1.00  0.00    -0.532 OA
HETATM   18  O7  UNK     1       3.654   3.735  15.920  1.00  0.00    -0.532 OA
ENDBRANCH  14  16
ENDBRANCH   3   5
BRANCH   2  19
HETATM   19  C2  UNK     1      10.736   5.633   8.364  1.00  0.00     0.042 A 
HETATM   20  C4  UNK     1      10.704   6.099   7.060  1.00  0.00    -0.035 A 
HETATM   21  C11 UNK     1      11.889   6.518   6.456  1.00  0.00     0.010 A 
HETATM   22  C16 UNK     1       9.432   6.170   6.280  1.00  0.00     0.050 C 
HETATM   23  C15 UNK     1      13.089   6.465   7.163  1.00  0.00     0.018 A 
HETATM   24  C10 UNK     1      13.106   5.992   8.475  1.00  0.00     0.041 A 
HETATM   25  C8  UNK     1      11.921   5.574   9.080  1.00  0.00     0.047 A 
BRANCH  24  26
HETATM   26  C18 UNK     1      14.359   5.936   9.211  1.00  0.00     0.293 C 
HETATM   27  O5  UNK     1      15.401   5.423   8.782  1.00  0.00    -0.259 OA
BRANCH  26  28
HETATM   28  O4  UNK     1      14.245   6.523  10.442  1.00  0.00    -0.323 OA
HETATM   29  C19 UNK     1      14.643   7.895  10.544  1.00  0.00     0.213 C 
ENDBRANCH  26  28
ENDBRANCH  24  26
ENDBRANCH   2  19
TORSDOF 5
ENDMDL
MODEL 10
REMARK VINA RESULT:      -8.6      6.539     12.403
REMARK  5 active torsions:
REMARK  status: ('A' for Active; 'I' for Inactive)
REMARK    1  A    between atoms: C18_27  and  O4_4 
REMARK    2  A    between atoms: C2_11  and  N1_8 
REMARK       I    between atoms: C7_16  and  N1_8 
REMARK    3  A    between atoms: C14_23  and  N2_9 
REMARK    4  A    between atoms: C3_12  and  C7_16 
REMARK    5  A    between atoms: C10_19  and  C18_27 
ROOT
HETATM    1  O2  UNK     1      21.208  -4.187  37.101  1.00  0.00    -0.267 OA
HETATM    2  N1  UNK     1      19.864  -5.439  35.627  1.00  0.00    -0.322 N 
HETATM    3  C7  UNK     1      20.364  -4.283  36.211  1.00  0.00     0.262 C 
HETATM    4  H2  UNK     1      19.183  -5.330  34.882  1.00  0.00     0.169 HD
ENDROOT
BRANCH   3   5
HETATM    5  C3  UNK     1      19.766  -3.070  35.640  1.00  0.00     0.108 A 
HETATM    6  C13 UNK     1      20.150  -2.558  34.305  1.00  0.00     0.304 A 
HETATM    7  O1  UNK     1      19.511  -1.400  33.873  1.00  0.00    -0.274 OA
HETATM    8  O3  UNK     1      20.988  -3.123  33.611  1.00  0.00    -0.259 OA
HETATM    9  C5  UNK     1      18.547  -0.744  34.662  1.00  0.00     0.089 A 
HETATM   10  C1  UNK     1      18.201  -1.241  35.914  1.00  0.00     0.001 A 
HETATM   11  C12 UNK     1      17.962   0.410  34.143  1.00  0.00     0.041 A 
HETATM   12  C9  UNK     1      17.241  -0.562  36.668  1.00  0.00     0.050 A 
HETATM   13  C6  UNK     1      18.850  -2.451  36.394  1.00  0.00     0.037 A 
HETATM   14  C14 UNK     1      16.645   0.597  36.161  1.00  0.00     0.103 A 
HETATM   15  C17 UNK     1      17.005   1.081  34.902  1.00  0.00     0.039 A 
BRANCH  14  16
HETATM   16  N2  UNK     1      15.669   1.284  36.930  1.00  0.00    -0.116 N 
HETATM   17  O6  UNK     1      14.454   1.096  36.679  1.00  0.00    -0.532 OA
HETATM   18  O7  UNK     1      16.048   2.060  37.840  1.00  0.00    -0.532 OA
ENDBRANCH  14  16
ENDBRANCH   3   5
BRANCH   2  19
HETATM   19  C2  UNK     1      20.213  -6.779  35.926  1.00  0.00     0.042 A 
HETATM   20  C4  UNK     1      20.672  -7.618  34.924  1.00  0.00    -0.035 A 
HETATM   21  C11 UNK     1      21.011  -8.934  35.238  1.00  0.00     0.010 A 
HETATM   22  C16 UNK     1      20.816  -7.153  33.511  1.00  0.00     0.050 C 
HETATM   23  C15 UNK     1      20.887  -9.392  36.549  1.00  0.00     0.018 A 
HETATM   24  C10 UNK     1      20.423  -8.535  37.547  1.00  0.00     0.041 A 
HETATM   25  C8  UNK     1      20.083  -7.219  37.233  1.00  0.00     0.047 A 
BRANCH  24  26
HETATM   26  C18 UNK     1      20.293  -9.014  38.914  1.00  0.00     0.293 C 
HETATM   27  O5  UNK     1      19.683 -10.040  39.241  1.00  0.00    -0.259 OA
BRANCH  26  28
HETATM   28  O4  UNK     1      20.931  -8.188  39.799  1.00  0.00    -0.323 OA
HETATM   29  C19 UNK     1      22.362  -8.229  39.806  1.00  0.00     0.213 C 
ENDBRANCH  26  28
ENDBRANCH  24  26
ENDBRANCH   2  19
TORSDOF 5
ENDMDL
