MODEL 1
REMARK VINA RESULT:      -8.5      0.000      0.000
REMARK  4 active torsions:
REMARK  status: ('A' for Active; 'I' for Inactive)
REMARK    1  A    between atoms: C5_10  and  O2_2 
REMARK    2  A    between atoms: C11_16  and  O4_4 
REMARK    3  A    between atoms: C15_20  and  O5_5 
REMARK    4  A    between atoms: C1_6  and  C3_8 
ROOT
HETATM    1  O1  UNK     1      18.733   0.247  32.430  1.00  0.00    -0.306 OA
HETATM    2  O3  UNK     1      20.890  -3.207  32.575  1.00  0.00    -0.284 OA
HETATM    3  C1  UNK     1      18.819  -0.504  33.592  1.00  0.00     0.123 A 
HETATM    4  C2  UNK     1      20.164  -1.357  31.304  1.00  0.00     0.051 A 
HETATM    5  C4  UNK     1      19.407  -0.188  31.319  1.00  0.00     0.090 A 
HETATM    6  C5  UNK     1      19.506  -1.654  33.708  1.00  0.00     0.152 A 
HETATM    7  C6  UNK     1      20.246  -2.167  32.529  1.00  0.00     0.220 A 
HETATM    8  C8  UNK     1      20.830  -1.752  30.141  1.00  0.00     0.018 A 
HETATM    9  C10 UNK     1      19.311   0.596  30.169  1.00  0.00     0.038 A 
HETATM   10  C12 UNK     1      20.733  -0.965  28.992  1.00  0.00     0.001 A 
HETATM   11  C13 UNK     1      19.975   0.206  29.006  1.00  0.00     0.003 A 
ENDROOT
BRANCH   3  12
HETATM   12  C3  UNK     1      18.051   0.075  34.709  1.00  0.00     0.004 A 
HETATM   13  C7  UNK     1      18.689   0.892  35.644  1.00  0.00     0.053 A 
HETATM   14  C11 UNK     1      17.963   1.440  36.700  1.00  0.00     0.099 A 
HETATM   15  C15 UNK     1      16.599   1.172  36.823  1.00  0.00     0.098 A 
HETATM   16  C14 UNK     1      15.962   0.356  35.890  1.00  0.00     0.040 A 
HETATM   17  C9  UNK     1      16.688  -0.193  34.833  1.00  0.00     0.017 A 
BRANCH  14  18
HETATM   18  O4  UNK     1      18.596   2.236  37.607  1.00  0.00    -0.358 OA
HETATM   19  H9  UNK     1      18.988   3.001  37.154  1.00  0.00     0.217 HD
ENDBRANCH  14  18
BRANCH  15  20
HETATM   20  O5  UNK     1      15.880   1.702  37.852  1.00  0.00    -0.358 OA
HETATM   21  H10 UNK     1      15.765   2.656  37.714  1.00  0.00     0.217 HD
ENDBRANCH  15  20
ENDBRANCH   3  12
BRANCH   6  22
HETATM   22  O2  UNK     1      19.545  -2.394  34.870  1.00  0.00    -0.355 OA
HETATM   23  H8  UNK     1      19.314  -1.832  35.626  1.00  0.00     0.218 HD
ENDBRANCH   6  22
TORSDOF 4
ENDMDL
MODEL 2
REMARK VINA RESULT:      -8.5      1.463      2.852
REMARK  4 active torsions:
REMARK  status: ('A' for Active; 'I' for Inactive)
REMARK    1  A    between atoms: C5_10  and  O2_2 
REMARK    2  A    between atoms: C11_16  and  O4_4 
REMARK    3  A    between atoms: C15_20  and  O5_5 
REMARK    4  A    between atoms: C1_6  and  C3_8 
ROOT
HETATM    1  O1  UNK     1      19.070  -0.166  32.584  1.00  0.00    -0.306 OA
HETATM    2  O3  UNK     1      18.722   2.783  29.794  1.00  0.00    -0.284 OA
HETATM    3  C1  UNK     1      18.490   1.055  32.890  1.00  0.00     0.123 A 
HETATM    4  C2  UNK     1      19.426   0.591  30.305  1.00  0.00     0.051 A 
HETATM    5  C4  UNK     1      19.518  -0.375  31.305  1.00  0.00     0.090 A 
HETATM    6  C5  UNK     1      18.349   2.072  32.022  1.00  0.00     0.152 A 
HETATM    7  C6  UNK     1      18.825   1.894  30.628  1.00  0.00     0.220 A 
HETATM    8  C8  UNK     1      19.900   0.323  29.019  1.00  0.00     0.018 A 
HETATM    9  C10 UNK     1      20.087  -1.618  31.025  1.00  0.00     0.038 A 
HETATM   10  C12 UNK     1      20.468  -0.922  28.741  1.00  0.00     0.001 A 
HETATM   11  C13 UNK     1      20.561  -1.889  29.742  1.00  0.00     0.003 A 
ENDROOT
BRANCH   3  12
HETATM   12  C3  UNK     1      18.051   1.147  34.294  1.00  0.00     0.004 A 
HETATM   13  C7  UNK     1      18.822   1.849  35.221  1.00  0.00     0.053 A 
HETATM   14  C11 UNK     1      18.407   1.936  36.549  1.00  0.00     0.099 A 
HETATM   15  C15 UNK     1      17.219   1.323  36.951  1.00  0.00     0.098 A 
HETATM   16  C14 UNK     1      16.448   0.622  36.025  1.00  0.00     0.040 A 
HETATM   17  C9  UNK     1      16.864   0.534  34.696  1.00  0.00     0.017 A 
BRANCH  14  18
HETATM   18  O4  UNK     1      19.168   2.623  37.446  1.00  0.00    -0.358 OA
HETATM   19  H9  UNK     1      18.953   3.569  37.402  1.00  0.00     0.217 HD
ENDBRANCH  14  18
BRANCH  15  20
HETATM   20  O5  UNK     1      16.804   1.402  38.246  1.00  0.00    -0.358 OA
HETATM   21  H10 UNK     1      16.572   0.516  38.569  1.00  0.00     0.217 HD
ENDBRANCH  15  20
ENDBRANCH   3  12
BRANCH   6  22
HETATM   22  O2  UNK     1      17.796   3.286  32.368  1.00  0.00    -0.355 OA
HETATM   23  H8  UNK     1      17.119   3.537  31.719  1.00  0.00     0.218 HD
ENDBRANCH   6  22
TORSDOF 4
ENDMDL
MODEL 3
REMARK VINA RESULT:      -8.1     24.807     27.054
REMARK  4 active torsions:
REMARK  status: ('A' for Active; 'I' for Inactive)
REMARK    1  A    between atoms: C5_10  and  O2_2 
REMARK    2  A    between atoms: C11_16  and  O4_4 
REMARK    3  A    between atoms: C15_20  and  O5_5 
REMARK    4  A    between atoms: C1_6  and  C3_8 
ROOT
HETATM    1  O1  UNK     1      13.407   7.714   8.780  1.00  0.00    -0.306 OA
HETATM    2  O3  UNK     1      15.315   4.225   9.669  1.00  0.00    -0.284 OA
HETATM    3  C1  UNK     1      12.779   6.488   8.630  1.00  0.00     0.123 A 
HETATM    4  C2  UNK     1      15.399   6.580   9.578  1.00  0.00     0.051 A 
HETATM    5  C4  UNK     1      14.693   7.737   9.253  1.00  0.00     0.090 A 
HETATM    6  C5  UNK     1      13.350   5.300   8.898  1.00  0.00     0.152 A 
HETATM    7  C6  UNK     1      14.743   5.275   9.407  1.00  0.00     0.220 A 
HETATM    8  C8  UNK     1      16.709   6.664  10.056  1.00  0.00     0.018 A 
HETATM    9  C10 UNK     1      15.294   8.987   9.405  1.00  0.00     0.038 A 
HETATM   10  C12 UNK     1      17.308   7.916  10.207  1.00  0.00     0.001 A 
HETATM   11  C13 UNK     1      16.602   9.074   9.881  1.00  0.00     0.003 A 
ENDROOT
BRANCH   3  12
HETATM   12  C3  UNK     1      11.402   6.605   8.117  1.00  0.00     0.004 A 
HETATM   13  C7  UNK     1      11.156   6.487   6.749  1.00  0.00     0.053 A 
HETATM   14  C11 UNK     1       9.854   6.598   6.263  1.00  0.00     0.099 A 
HETATM   15  C15 UNK     1       8.797   6.826   7.145  1.00  0.00     0.098 A 
HETATM   16  C14 UNK     1       9.042   6.945   8.512  1.00  0.00     0.040 A 
HETATM   17  C9  UNK     1      10.345   6.834   8.998  1.00  0.00     0.017 A 
BRANCH  14  18
HETATM   18  O4  UNK     1       9.625   6.482   4.925  1.00  0.00    -0.358 OA
HETATM   19  H9  UNK     1      10.155   5.752   4.564  1.00  0.00     0.217 HD
ENDBRANCH  14  18
BRANCH  15  20
HETATM   20  O5  UNK     1       7.521   6.937   6.681  1.00  0.00    -0.358 OA
HETATM   21  H10 UNK     1       7.079   6.074   6.729  1.00  0.00     0.217 HD
ENDBRANCH  15  20
ENDBRANCH   3  12
BRANCH   6  22
HETATM   22  O2  UNK     1      12.707   4.095   8.707  1.00  0.00    -0.355 OA
HETATM   23  H8  UNK     1      12.346   4.054   7.808  1.00  0.00     0.218 HD
ENDBRANCH   6  22
TORSDOF 4
ENDMDL
MODEL 4
REMARK VINA RESULT:      -8.0     24.854     26.884
REMARK  4 active torsions:
REMARK  status: ('A' for Active; 'I' for Inactive)
REMARK    1  A    between atoms: C5_10  and  O2_2 
REMARK    2  A    between atoms: C11_16  and  O4_4 
REMARK    3  A    between atoms: C15_20  and  O5_5 
REMARK    4  A    between atoms: C1_6  and  C3_8 
ROOT
HETATM    1  O1  UNK     1      13.328   7.703   8.743  1.00  0.00    -0.306 OA
HETATM    2  O3  UNK     1      15.234   4.213   9.635  1.00  0.00    -0.284 OA
HETATM    3  C1  UNK     1      12.697   6.477   8.600  1.00  0.00     0.123 A 
HETATM    4  C2  UNK     1      15.322   6.568   9.536  1.00  0.00     0.051 A 
HETATM    5  C4  UNK     1      14.617   7.724   9.211  1.00  0.00     0.090 A 
HETATM    6  C5  UNK     1      13.268   5.289   8.869  1.00  0.00     0.152 A 
HETATM    7  C6  UNK     1      14.663   5.263   9.372  1.00  0.00     0.220 A 
HETATM    8  C8  UNK     1      16.634   6.651  10.008  1.00  0.00     0.018 A 
HETATM    9  C10 UNK     1      15.221   8.974   9.355  1.00  0.00     0.038 A 
HETATM   10  C12 UNK     1      17.236   7.902  10.152  1.00  0.00     0.001 A 
HETATM   11  C13 UNK     1      16.531   9.061   9.826  1.00  0.00     0.003 A 
ENDROOT
BRANCH   3  12
HETATM   12  C3  UNK     1      11.319   6.595   8.092  1.00  0.00     0.004 A 
HETATM   13  C7  UNK     1      10.295   7.011   8.945  1.00  0.00     0.053 A 
HETATM   14  C11 UNK     1       8.991   7.124   8.465  1.00  0.00     0.099 A 
HETATM   15  C15 UNK     1       8.709   6.822   7.132  1.00  0.00     0.098 A 
HETATM   16  C14 UNK     1       9.732   6.407   6.280  1.00  0.00     0.040 A 
HETATM   17  C9  UNK     1      11.037   6.294   6.760  1.00  0.00     0.017 A 
BRANCH  14  18
HETATM   18  O4  UNK     1       7.999   7.529   9.307  1.00  0.00    -0.358 OA
HETATM   19  H9  UNK     1       7.827   6.837   9.966  1.00  0.00     0.217 HD
ENDBRANCH  14  18
BRANCH  15  20
HETATM   20  O5  UNK     1       7.439   6.929   6.652  1.00  0.00    -0.358 OA
HETATM   21  H10 UNK     1       7.239   6.167   6.085  1.00  0.00     0.217 HD
ENDBRANCH  15  20
ENDBRANCH   3  12
BRANCH   6  22
HETATM   22  O2  UNK     1      12.622   4.085   8.685  1.00  0.00    -0.355 OA
HETATM   23  H8  UNK     1      11.713   4.145   9.019  1.00  0.00     0.218 HD
ENDBRANCH   6  22
TORSDOF 4
ENDMDL
MODEL 5
REMARK VINA RESULT:      -8.0     14.453     18.124
REMARK  4 active torsions:
REMARK  status: ('A' for Active; 'I' for Inactive)
REMARK    1  A    between atoms: C5_10  and  O2_2 
REMARK    2  A    between atoms: C11_16  and  O4_4 
REMARK    3  A    between atoms: C15_20  and  O5_5 
REMARK    4  A    between atoms: C1_6  and  C3_8 
ROOT
HETATM    1  O1  UNK     1      18.876  -1.039  17.710  1.00  0.00    -0.306 OA
HETATM    2  O3  UNK     1      19.367   2.334  15.479  1.00  0.00    -0.284 OA
HETATM    3  C1  UNK     1      19.083  -1.102  16.341  1.00  0.00     0.123 A 
HETATM    4  C2  UNK     1      19.018   1.381  17.607  1.00  0.00     0.051 A 
HETATM    5  C4  UNK     1      18.854   0.192  18.313  1.00  0.00     0.090 A 
HETATM    6  C5  UNK     1      19.246  -0.030  15.545  1.00  0.00     0.152 A 
HETATM    7  C6  UNK     1      19.223   1.323  16.152  1.00  0.00     0.220 A 
HETATM    8  C8  UNK     1      18.986   2.608  18.275  1.00  0.00     0.018 A 
HETATM    9  C10 UNK     1      18.656   0.220  19.694  1.00  0.00     0.038 A 
HETATM   10  C12 UNK     1      18.788   2.634  19.657  1.00  0.00     0.001 A 
HETATM   11  C13 UNK     1      18.623   1.443  20.364  1.00  0.00     0.003 A 
ENDROOT
BRANCH   3  12
HETATM   12  C3  UNK     1      19.086  -2.481  15.822  1.00  0.00     0.004 A 
HETATM   13  C7  UNK     1      20.291  -3.174  15.691  1.00  0.00     0.053 A 
HETATM   14  C11 UNK     1      20.294  -4.479  15.200  1.00  0.00     0.099 A 
HETATM   15  C15 UNK     1      19.093  -5.093  14.841  1.00  0.00     0.098 A 
HETATM   16  C14 UNK     1      17.890  -4.401  14.972  1.00  0.00     0.040 A 
HETATM   17  C9  UNK     1      17.887  -3.095  15.463  1.00  0.00     0.017 A 
BRANCH  14  18
HETATM   18  O4  UNK     1      21.476  -5.145  15.076  1.00  0.00    -0.358 OA
HETATM   19  H9  UNK     1      22.208  -4.565  15.340  1.00  0.00     0.217 HD
ENDBRANCH  14  18
BRANCH  15  20
HETATM   20  O5  UNK     1      19.085  -6.367  14.361  1.00  0.00    -0.358 OA
HETATM   21  H10 UNK     1      19.401  -6.373  13.443  1.00  0.00     0.217 HD
ENDBRANCH  15  20
ENDBRANCH   3  12
BRANCH   6  22
HETATM   22  O2  UNK     1      19.418  -0.126  14.180  1.00  0.00    -0.355 OA
HETATM   23  H8  UNK     1      19.203  -1.024  13.884  1.00  0.00     0.218 HD
ENDBRANCH   6  22
TORSDOF 4
ENDMDL
MODEL 6
REMARK VINA RESULT:      -7.9      3.904      5.424
REMARK  4 active torsions:
REMARK  status: ('A' for Active; 'I' for Inactive)
REMARK    1  A    between atoms: C5_10  and  O2_2 
REMARK    2  A    between atoms: C11_16  and  O4_4 
REMARK    3  A    between atoms: C15_20  and  O5_5 
REMARK    4  A    between atoms: C1_6  and  C3_8 
ROOT
HETATM    1  O1  UNK     1      19.626   1.059  31.322  1.00  0.00    -0.306 OA
HETATM    2  O3  UNK     1      19.018  -0.345  27.546  1.00  0.00    -0.284 OA
HETATM    3  C1  UNK     1      19.050   1.850  30.340  1.00  0.00     0.123 A 
HETATM    4  C2  UNK     1      19.795  -0.767  29.732  1.00  0.00     0.051 A 
HETATM    5  C4  UNK     1      19.979  -0.226  31.003  1.00  0.00     0.090 A 
HETATM    6  C5  UNK     1      18.827   1.454  29.075  1.00  0.00     0.152 A 
HETATM    7  C6  UNK     1      19.198   0.073  28.682  1.00  0.00     0.220 A 
HETATM    8  C8  UNK     1      20.174  -2.084  29.464  1.00  0.00     0.018 A 
HETATM    9  C10 UNK     1      20.545  -1.001  32.016  1.00  0.00     0.038 A 
HETATM   10  C12 UNK     1      20.740  -2.858  30.479  1.00  0.00     0.001 A 
HETATM   11  C13 UNK     1      20.925  -2.317  31.752  1.00  0.00     0.003 A 
ENDROOT
BRANCH   3  12
HETATM   12  C3  UNK     1      18.718   3.205  30.815  1.00  0.00     0.004 A 
HETATM   13  C7  UNK     1      18.973   4.311  30.002  1.00  0.00     0.053 A 
HETATM   14  C11 UNK     1      18.658   5.593  30.451  1.00  0.00     0.099 A 
HETATM   15  C15 UNK     1      18.087   5.771  31.712  1.00  0.00     0.098 A 
HETATM   16  C14 UNK     1      17.831   4.666  32.524  1.00  0.00     0.040 A 
HETATM   17  C9  UNK     1      18.146   3.384  32.075  1.00  0.00     0.017 A 
BRANCH  14  18
HETATM   18  O4  UNK     1      18.913   6.665  29.650  1.00  0.00    -0.358 OA
HETATM   19  H9  UNK     1      19.546   6.413  28.958  1.00  0.00     0.217 HD
ENDBRANCH  14  18
BRANCH  15  20
HETATM   20  O5  UNK     1      17.775   7.019  32.160  1.00  0.00    -0.358 OA
HETATM   21  H10 UNK     1      18.408   7.662  31.802  1.00  0.00     0.217 HD
ENDBRANCH  15  20
ENDBRANCH   3  12
BRANCH   6  22
HETATM   22  O2  UNK     1      18.281   2.277  28.113  1.00  0.00    -0.355 OA
HETATM   23  H8  UNK     1      18.174   3.173  28.469  1.00  0.00     0.218 HD
ENDBRANCH   6  22
TORSDOF 4
ENDMDL
MODEL 7
REMARK VINA RESULT:      -7.8     26.257     27.813
REMARK  4 active torsions:
REMARK  status: ('A' for Active; 'I' for Inactive)
REMARK    1  A    between atoms: C5_10  and  O2_2 
REMARK    2  A    between atoms: C11_16  and  O4_4 
REMARK    3  A    between atoms: C15_20  and  O5_5 
REMARK    4  A    between atoms: C1_6  and  C3_8 
ROOT
HETATM    1  O1  UNK     1       7.624   4.312   9.199  1.00  0.00    -0.306 OA
HETATM    2  O3  UNK     1       6.459   7.163  11.867  1.00  0.00    -0.284 OA
HETATM    3  C1  UNK     1       8.227   5.560   9.233  1.00  0.00     0.123 A 
HETATM    4  C2  UNK     1       6.185   4.973  11.038  1.00  0.00     0.051 A 
HETATM    5  C4  UNK     1       6.626   4.042  10.100  1.00  0.00     0.090 A 
HETATM    6  C5  UNK     1       7.889   6.547  10.081  1.00  0.00     0.152 A 
HETATM    7  C6  UNK     1       6.810   6.303  11.069  1.00  0.00     0.220 A 
HETATM    8  C8  UNK     1       5.163   4.642  11.932  1.00  0.00     0.018 A 
HETATM    9  C10 UNK     1       6.048   2.774  10.048  1.00  0.00     0.038 A 
HETATM   10  C12 UNK     1       4.586   3.372  11.878  1.00  0.00     0.001 A 
HETATM   11  C13 UNK     1       5.027   2.440  10.938  1.00  0.00     0.003 A 
ENDROOT
BRANCH   3  12
HETATM   12  C3  UNK     1       9.282   5.717   8.217  1.00  0.00     0.004 A 
HETATM   13  C7  UNK     1      10.599   5.367   8.519  1.00  0.00     0.053 A 
HETATM   14  C11 UNK     1      11.598   5.515   7.557  1.00  0.00     0.099 A 
HETATM   15  C15 UNK     1      11.281   6.012   6.293  1.00  0.00     0.098 A 
HETATM   16  C14 UNK     1       9.965   6.361   5.990  1.00  0.00     0.040 A 
HETATM   17  C9  UNK     1       8.966   6.213   6.953  1.00  0.00     0.017 A 
BRANCH  14  18
HETATM   18  O4  UNK     1      12.880   5.172   7.864  1.00  0.00    -0.358 OA
HETATM   19  H9  UNK     1      13.214   4.536   7.210  1.00  0.00     0.217 HD
ENDBRANCH  14  18
BRANCH  15  20
HETATM   20  O5  UNK     1      12.248   6.161   5.346  1.00  0.00    -0.358 OA
HETATM   21  H10 UNK     1      11.959   6.806   4.680  1.00  0.00     0.217 HD
ENDBRANCH  15  20
ENDBRANCH   3  12
BRANCH   6  22
HETATM   22  O2  UNK     1       8.487   7.789  10.067  1.00  0.00    -0.355 OA
HETATM   23  H8  UNK     1       7.993   8.399  10.639  1.00  0.00     0.218 HD
ENDBRANCH   6  22
TORSDOF 4
ENDMDL
MODEL 8
REMARK VINA RESULT:      -7.8      5.139      6.407
REMARK  4 active torsions:
REMARK  status: ('A' for Active; 'I' for Inactive)
REMARK    1  A    between atoms: C5_10  and  O2_2 
REMARK    2  A    between atoms: C11_16  and  O4_4 
REMARK    3  A    between atoms: C15_20  and  O5_5 
REMARK    4  A    between atoms: C1_6  and  C3_8 
ROOT
HETATM    1  O1  UNK     1      18.062   3.454  33.209  1.00  0.00    -0.306 OA
HETATM    2  O3  UNK     1      19.245   1.894  29.636  1.00  0.00    -0.284 OA
HETATM    3  C1  UNK     1      18.258   4.259  32.098  1.00  0.00     0.123 A 
HETATM    4  C2  UNK     1      18.662   1.508  31.888  1.00  0.00     0.051 A 
HETATM    5  C4  UNK     1      18.261   2.104  33.082  1.00  0.00     0.090 A 
HETATM    6  C5  UNK     1      18.653   3.812  30.893  1.00  0.00     0.152 A 
HETATM    7  C6  UNK     1      18.886   2.359  30.710  1.00  0.00     0.220 A 
HETATM    8  C8  UNK     1      18.850   0.126  31.818  1.00  0.00     0.018 A 
HETATM    9  C10 UNK     1      18.044   1.319  34.216  1.00  0.00     0.038 A 
HETATM   10  C12 UNK     1      18.632  -0.657  32.953  1.00  0.00     0.001 A 
HETATM   11  C13 UNK     1      18.231  -0.062  34.149  1.00  0.00     0.003 A 
ENDROOT
BRANCH   3  12
HETATM   12  C3  UNK     1      18.009   5.686  32.370  1.00  0.00     0.004 A 
HETATM   13  C7  UNK     1      17.075   6.389  31.607  1.00  0.00     0.053 A 
HETATM   14  C11 UNK     1      16.839   7.738  31.865  1.00  0.00     0.099 A 
HETATM   15  C15 UNK     1      17.536   8.386  32.886  1.00  0.00     0.098 A 
HETATM   16  C14 UNK     1      18.468   7.684  33.648  1.00  0.00     0.040 A 
HETATM   17  C9  UNK     1      18.704   6.334  33.390  1.00  0.00     0.017 A 
BRANCH  14  18
HETATM   18  O4  UNK     1      15.927   8.415  31.113  1.00  0.00    -0.358 OA
HETATM   19  H9  UNK     1      15.439   9.040  31.674  1.00  0.00     0.217 HD
ENDBRANCH  14  18
BRANCH  15  20
HETATM   20  O5  UNK     1      17.313   9.705  33.146  1.00  0.00    -0.358 OA
HETATM   21  H10 UNK     1      16.390   9.834  33.418  1.00  0.00     0.217 HD
ENDBRANCH  15  20
ENDBRANCH   3  12
BRANCH   6  22
HETATM   22  O2  UNK     1      18.870   4.645  29.815  1.00  0.00    -0.355 OA
HETATM   23  H8  UNK     1      18.696   4.166  28.989  1.00  0.00     0.218 HD
ENDBRANCH   6  22
TORSDOF 4
ENDMDL
MODEL 9
REMARK VINA RESULT:      -7.8     13.445     16.932
REMARK  4 active torsions:
REMARK  status: ('A' for Active; 'I' for Inactive)
REMARK    1  A    between atoms: C5_10  and  O2_2 
REMARK    2  A    between atoms: C11_16  and  O4_4 
REMARK    3  A    between atoms: C15_20  and  O5_5 
REMARK    4  A    between atoms: C1_6  and  C3_8 
ROOT
HETATM    1  O1  UNK     1      18.601  -1.741  16.873  1.00  0.00    -0.306 OA
HETATM    2  O3  UNK     1      19.669  -0.308  13.211  1.00  0.00    -0.284 OA
HETATM    3  C1  UNK     1      19.028  -0.433  16.704  1.00  0.00     0.123 A 
HETATM    4  C2  UNK     1      18.875  -2.123  14.492  1.00  0.00     0.051 A 
HETATM    5  C4  UNK     1      18.528  -2.553  15.771  1.00  0.00     0.090 A 
HETATM    6  C5  UNK     1      19.400   0.102  15.528  1.00  0.00     0.152 A 
HETATM    7  C6  UNK     1      19.344  -0.741  14.309  1.00  0.00     0.220 A 
HETATM    8  C8  UNK     1      18.781  -2.995  13.405  1.00  0.00     0.018 A 
HETATM    9  C10 UNK     1      18.083  -3.860  15.971  1.00  0.00     0.038 A 
HETATM   10  C12 UNK     1      18.336  -4.302  13.608  1.00  0.00     0.001 A 
HETATM   11  C13 UNK     1      17.988  -4.734  14.888  1.00  0.00     0.003 A 
ENDROOT
BRANCH   3  12
HETATM   12  C3  UNK     1      19.058   0.330  17.965  1.00  0.00     0.004 A 
HETATM   13  C7  UNK     1      19.353  -0.319  19.165  1.00  0.00     0.053 A 
HETATM   14  C11 UNK     1      19.382   0.402  20.358  1.00  0.00     0.099 A 
HETATM   15  C15 UNK     1      19.118   1.772  20.352  1.00  0.00     0.098 A 
HETATM   16  C14 UNK     1      18.823   2.421  19.153  1.00  0.00     0.040 A 
HETATM   17  C9  UNK     1      18.794   1.699  17.960  1.00  0.00     0.017 A 
BRANCH  14  18
HETATM   18  O4  UNK     1      19.669  -0.242  21.524  1.00  0.00    -0.358 OA
HETATM   19  H9  UNK     1      19.050   0.042  22.216  1.00  0.00     0.217 HD
ENDBRANCH  14  18
BRANCH  15  20
HETATM   20  O5  UNK     1      19.143   2.486  21.512  1.00  0.00    -0.358 OA
HETATM   21  H10 UNK     1      18.510   2.107  22.143  1.00  0.00     0.217 HD
ENDBRANCH  15  20
ENDBRANCH   3  12
BRANCH   6  22
HETATM   22  O2  UNK     1      19.851   1.399  15.400  1.00  0.00    -0.355 OA
HETATM   23  H8  UNK     1      20.789   1.446  15.643  1.00  0.00     0.218 HD
ENDBRANCH   6  22
TORSDOF 4
ENDMDL
MODEL 10
REMARK VINA RESULT:      -7.8      1.967      6.197
REMARK  4 active torsions:
REMARK  status: ('A' for Active; 'I' for Inactive)
REMARK    1  A    between atoms: C5_10  and  O2_2 
REMARK    2  A    between atoms: C11_16  and  O4_4 
REMARK    3  A    between atoms: C15_20  and  O5_5 
REMARK    4  A    between atoms: C1_6  and  C3_8 
ROOT
HETATM    1  O1  UNK     1      18.599  -0.582  33.892  1.00  0.00    -0.306 OA
HETATM    2  O3  UNK     1      20.574  -3.417  36.053  1.00  0.00    -0.284 OA
HETATM    3  C1  UNK     1      19.514  -1.438  33.298  1.00  0.00     0.123 A 
HETATM    4  C2  UNK     1      18.994  -1.667  36.027  1.00  0.00     0.051 A 
HETATM    5  C4  UNK     1      18.354  -0.716  35.234  1.00  0.00     0.090 A 
HETATM    6  C5  UNK     1      20.204  -2.389  33.951  1.00  0.00     0.152 A 
HETATM    7  C6  UNK     1      19.976  -2.567  35.406  1.00  0.00     0.220 A 
HETATM    8  C8  UNK     1      18.704  -1.758  37.391  1.00  0.00     0.018 A 
HETATM    9  C10 UNK     1      17.420   0.151  35.800  1.00  0.00     0.038 A 
HETATM   10  C12 UNK     1      17.768  -0.889  37.955  1.00  0.00     0.001 A 
HETATM   11  C13 UNK     1      17.128   0.064  37.162  1.00  0.00     0.003 A 
ENDROOT
BRANCH   3  12
HETATM   12  C3  UNK     1      19.682  -1.188  31.855  1.00  0.00     0.004 A 
HETATM   13  C7  UNK     1      19.514   0.101  31.346  1.00  0.00     0.053 A 
HETATM   14  C11 UNK     1      19.673   0.337  29.982  1.00  0.00     0.099 A 
HETATM   15  C15 UNK     1      20.001  -0.714  29.124  1.00  0.00     0.098 A 
HETATM   16  C14 UNK     1      20.169  -2.002  29.633  1.00  0.00     0.040 A 
HETATM   17  C9  UNK     1      20.010  -2.238  30.998  1.00  0.00     0.017 A 
BRANCH  14  18
HETATM   18  O4  UNK     1      19.505   1.599  29.496  1.00  0.00    -0.358 OA
HETATM   19  H9  UNK     1      18.778   1.608  28.852  1.00  0.00     0.217 HD
ENDBRANCH  14  18
BRANCH  15  20
HETATM   20  O5  UNK     1      20.158  -0.494  27.789  1.00  0.00    -0.358 OA
HETATM   21  H10 UNK     1      20.044   0.450  27.597  1.00  0.00     0.217 HD
ENDBRANCH  15  20
ENDBRANCH   3  12
BRANCH   6  22
HETATM   22  O2  UNK     1      21.132  -3.203  33.335  1.00  0.00    -0.355 OA
HETATM   23  H8  UNK     1      21.445  -2.785  32.518  1.00  0.00     0.218 HD
ENDBRANCH   6  22
TORSDOF 4
ENDMDL
