MODEL 1
REMARK VINA RESULT:      -7.0      0.000      0.000
REMARK  2 active torsions:
REMARK  status: ('A' for Active; 'I' for Inactive)
REMARK    1  A    between atoms: N1_5  and  O3_4 
REMARK    2  A    between atoms: C3_8  and  C8_13 
ROOT
HETATM    1 Br1  UNK     1      16.987  10.300  10.197  1.00  0.00    -0.051 Br
HETATM    2  O1  UNK     1      13.988   5.129   9.161  1.00  0.00    -0.274 OA
HETATM    3  O2  UNK     1      12.251   4.002   8.196  1.00  0.00    -0.259 OA
HETATM    4  C1  UNK     1      14.192   7.529   8.831  1.00  0.00     0.000 A 
HETATM    5  C2  UNK     1      14.664   6.344   9.386  1.00  0.00     0.089 A 
HETATM    6  C3  UNK     1      12.350   6.337   7.805  1.00  0.00     0.067 A 
HETATM    7  C4  UNK     1      12.988   7.494   8.015  1.00  0.00     0.034 A 
HETATM    8  C5  UNK     1      14.891   8.713   9.077  1.00  0.00     0.033 A 
HETATM    9  C6  UNK     1      12.833   5.064   8.385  1.00  0.00     0.300 A 
HETATM   10  C7  UNK     1      15.812   6.309  10.175  1.00  0.00     0.039 A 
HETATM   11  C9  UNK     1      16.044   8.694   9.867  1.00  0.00     0.011 A 
HETATM   12  C10 UNK     1      16.503   7.495  10.415  1.00  0.00     0.022 A 
ENDROOT
BRANCH   6  13
HETATM   13  C8  UNK     1      11.145   6.403   6.970  1.00  0.00     0.074 C 
HETATM   14  C11 UNK     1       9.804   6.377   7.674  1.00  0.00     0.074 C 
HETATM   15  N1  UNK     1      11.267   6.481   5.673  1.00  0.00    -0.140 NA
BRANCH  15  16
HETATM   16  O3  UNK     1      10.020   6.535   5.044  1.00  0.00    -0.266 OA
HETATM   17  H8  UNK     1       9.427   6.263   5.764  1.00  0.00     0.247 HD
ENDBRANCH  15  16
ENDBRANCH   6  13
TORSDOF 2
ENDMDL
MODEL 2
REMARK VINA RESULT:      -6.9     26.077     27.667
REMARK  2 active torsions:
REMARK  status: ('A' for Active; 'I' for Inactive)
REMARK    1  A    between atoms: N1_5  and  O3_4 
REMARK    2  A    between atoms: C3_8  and  C8_13 
ROOT
HETATM    1 Br1  UNK     1      20.411  -0.760  29.433  1.00  0.00    -0.051 Br
HETATM    2  O1  UNK     1      19.353  -2.113  35.252  1.00  0.00    -0.274 OA
HETATM    3  O2  UNK     1      18.221  -1.741  37.201  1.00  0.00    -0.259 OA
HETATM    4  C1  UNK     1      18.856  -0.754  33.298  1.00  0.00     0.000 A 
HETATM    5  C2  UNK     1      19.578  -1.778  33.902  1.00  0.00     0.089 A 
HETATM    6  C3  UNK     1      17.653  -0.359  35.363  1.00  0.00     0.067 A 
HETATM    7  C4  UNK     1      17.863  -0.036  34.082  1.00  0.00     0.034 A 
HETATM    8  C5  UNK     1      19.108  -0.452  31.957  1.00  0.00     0.033 A 
HETATM    9  C6  UNK     1      18.410  -1.443  36.027  1.00  0.00     0.300 A 
HETATM   10  C7  UNK     1      20.542  -2.506  33.207  1.00  0.00     0.039 A 
HETATM   11  C9  UNK     1      20.072  -1.173  31.247  1.00  0.00     0.011 A 
HETATM   12  C10 UNK     1      20.788  -2.197  31.871  1.00  0.00     0.022 A 
ENDROOT
BRANCH   6  13
HETATM   13  C8  UNK     1      16.632   0.424  36.070  1.00  0.00     0.074 C 
HETATM   14  C11 UNK     1      17.108   1.401  37.125  1.00  0.00     0.074 C 
HETATM   15  N1  UNK     1      15.373   0.254  35.772  1.00  0.00    -0.140 NA
BRANCH  15  16
HETATM   16  O3  UNK     1      14.549   1.078  36.542  1.00  0.00    -0.266 OA
HETATM   17  H8  UNK     1      14.764   1.957  36.186  1.00  0.00     0.247 HD
ENDBRANCH  15  16
ENDBRANCH   6  13
TORSDOF 2
ENDMDL
MODEL 3
REMARK VINA RESULT:      -6.8      3.578      6.085
REMARK  2 active torsions:
REMARK  status: ('A' for Active; 'I' for Inactive)
REMARK    1  A    between atoms: N1_5  and  O3_4 
REMARK    2  A    between atoms: C3_8  and  C8_13 
ROOT
HETATM    1 Br1  UNK     1       6.854   4.774  10.044  1.00  0.00    -0.051 Br
HETATM    2  O1  UNK     1      11.558   6.670   6.715  1.00  0.00    -0.274 OA
HETATM    3  O2  UNK     1      13.801   7.035   6.476  1.00  0.00    -0.259 OA
HETATM    4  C1  UNK     1      10.709   5.737   8.793  1.00  0.00     0.000 A 
HETATM    5  C2  UNK     1      10.484   6.224   7.510  1.00  0.00     0.089 A 
HETATM    6  C3  UNK     1      13.088   6.121   8.542  1.00  0.00     0.067 A 
HETATM    7  C4  UNK     1      12.071   5.695   9.301  1.00  0.00     0.034 A 
HETATM    8  C5  UNK     1       9.618   5.303   9.550  1.00  0.00     0.033 A 
HETATM    9  C6  UNK     1      12.872   6.643   7.175  1.00  0.00     0.300 A 
HETATM   10  C7  UNK     1       9.204   6.289   6.963  1.00  0.00     0.039 A 
HETATM   11  C9  UNK     1       8.328   5.362   9.015  1.00  0.00     0.011 A 
HETATM   12  C10 UNK     1       8.122   5.854   7.725  1.00  0.00     0.022 A 
ENDROOT
BRANCH   6  13
HETATM   13  C8  UNK     1      14.424   6.040   9.143  1.00  0.00     0.074 C 
HETATM   14  C11 UNK     1      14.838   7.156  10.080  1.00  0.00     0.074 C 
HETATM   15  N1  UNK     1      15.197   5.029   8.855  1.00  0.00    -0.140 NA
BRANCH  15  16
HETATM   16  O3  UNK     1      16.425   5.119   9.515  1.00  0.00    -0.266 OA
HETATM   17  H8  UNK     1      16.400   4.330  10.083  1.00  0.00     0.247 HD
ENDBRANCH  15  16
ENDBRANCH   6  13
TORSDOF 2
ENDMDL
MODEL 4
REMARK VINA RESULT:      -6.8     23.534     25.071
REMARK  2 active torsions:
REMARK  status: ('A' for Active; 'I' for Inactive)
REMARK    1  A    between atoms: N1_5  and  O3_4 
REMARK    2  A    between atoms: C3_8  and  C8_13 
ROOT
HETATM    1 Br1  UNK     1      13.833  10.728  33.424  1.00  0.00    -0.051 Br
HETATM    2  O1  UNK     1      19.226   7.950  33.447  1.00  0.00    -0.274 OA
HETATM    3  O2  UNK     1      20.525   6.133  32.964  1.00  0.00    -0.259 OA
HETATM    4  C1  UNK     1      16.857   7.912  32.901  1.00  0.00     0.000 A 
HETATM    5  C2  UNK     1      17.962   8.572  33.429  1.00  0.00     0.089 A 
HETATM    6  C3  UNK     1      18.232   5.984  32.386  1.00  0.00     0.067 A 
HETATM    7  C4  UNK     1      17.029   6.570  32.367  1.00  0.00     0.034 A 
HETATM    8  C5  UNK     1      15.621   8.562  32.901  1.00  0.00     0.033 A 
HETATM    9  C6  UNK     1      19.421   6.667  32.944  1.00  0.00     0.300 A 
HETATM   10  C7  UNK     1      17.867   9.859  33.955  1.00  0.00     0.039 A 
HETATM   11  C9  UNK     1      15.509   9.852  33.425  1.00  0.00     0.011 A 
HETATM   12  C10 UNK     1      16.629  10.499  33.951  1.00  0.00     0.022 A 
ENDROOT
BRANCH   6  13
HETATM   13  C8  UNK     1      18.303   4.630  31.826  1.00  0.00     0.074 C 
HETATM   14  C11 UNK     1      18.972   4.466  30.476  1.00  0.00     0.074 C 
HETATM   15  N1  UNK     1      17.797   3.631  32.496  1.00  0.00    -0.140 NA
BRANCH  15  16
HETATM   16  O3  UNK     1      17.955   2.423  31.811  1.00  0.00    -0.266 OA
HETATM   17  H8  UNK     1      17.897   1.779  32.536  1.00  0.00     0.247 HD
ENDBRANCH  15  16
ENDBRANCH   6  13
TORSDOF 2
ENDMDL
MODEL 5
REMARK VINA RESULT:      -6.8     24.736     26.458
REMARK  2 active torsions:
REMARK  status: ('A' for Active; 'I' for Inactive)
REMARK    1  A    between atoms: N1_5  and  O3_4 
REMARK    2  A    between atoms: C3_8  and  C8_13 
ROOT
HETATM    1 Br1  UNK     1      18.730   6.133  30.369  1.00  0.00    -0.051 Br
HETATM    2  O1  UNK     1      18.467   0.505  32.618  1.00  0.00    -0.274 OA
HETATM    3  O2  UNK     1      18.128  -0.916  34.375  1.00  0.00    -0.259 OA
HETATM    4  C1  UNK     1      18.280   2.904  32.962  1.00  0.00     0.000 A 
HETATM    5  C2  UNK     1      18.522   1.822  32.122  1.00  0.00     0.089 A 
HETATM    6  C3  UNK     1      17.919   1.400  34.827  1.00  0.00     0.067 A 
HETATM    7  C4  UNK     1      17.969   2.654  34.361  1.00  0.00     0.034 A 
HETATM    8  C5  UNK     1      18.343   4.195  32.433  1.00  0.00     0.033 A 
HETATM    9  C6  UNK     1      18.173   0.234  33.952  1.00  0.00     0.300 A 
HETATM   10  C7  UNK     1      18.823   1.993  30.772  1.00  0.00     0.039 A 
HETATM   11  C9  UNK     1      18.645   4.383  31.081  1.00  0.00     0.011 A 
HETATM   12  C10 UNK     1      18.885   3.285  30.253  1.00  0.00     0.022 A 
ENDROOT
BRANCH   6  13
HETATM   13  C8  UNK     1      17.599   1.250  36.251  1.00  0.00     0.074 C 
HETATM   14  C11 UNK     1      16.227   0.714  36.606  1.00  0.00     0.074 C 
HETATM   15  N1  UNK     1      18.490   1.577  37.147  1.00  0.00    -0.140 NA
BRANCH  15  16
HETATM   16  O3  UNK     1      18.012   1.369  38.443  1.00  0.00    -0.266 OA
HETATM   17  H8  UNK     1      17.783   0.424  38.417  1.00  0.00     0.247 HD
ENDBRANCH  15  16
ENDBRANCH   6  13
TORSDOF 2
ENDMDL
MODEL 6
REMARK VINA RESULT:      -6.7      1.758      1.868
REMARK  2 active torsions:
REMARK  status: ('A' for Active; 'I' for Inactive)
REMARK    1  A    between atoms: N1_5  and  O3_4 
REMARK    2  A    between atoms: C3_8  and  C8_13 
ROOT
HETATM    1 Br1  UNK     1      16.248  10.267   9.185  1.00  0.00    -0.051 Br
HETATM    2  O1  UNK     1      12.551   5.479   9.645  1.00  0.00    -0.274 OA
HETATM    3  O2  UNK     1      10.573   4.445   9.155  1.00  0.00    -0.259 OA
HETATM    4  C1  UNK     1      12.982   7.712   8.785  1.00  0.00     0.000 A 
HETATM    5  C2  UNK     1      13.389   6.604   9.522  1.00  0.00     0.089 A 
HETATM    6  C3  UNK     1      10.885   6.618   8.263  1.00  0.00     0.067 A 
HETATM    7  C4  UNK     1      11.677   7.689   8.143  1.00  0.00     0.034 A 
HETATM    8  C5  UNK     1      13.842   8.808   8.686  1.00  0.00     0.033 A 
HETATM    9  C6  UNK     1      11.296   5.429   9.042  1.00  0.00     0.300 A 
HETATM   10  C7  UNK     1      14.627   6.561  10.160  1.00  0.00     0.039 A 
HETATM   11  C9  UNK     1      15.087   8.780   9.321  1.00  0.00     0.011 A 
HETATM   12  C10 UNK     1      15.479   7.660  10.056  1.00  0.00     0.022 A 
ENDROOT
BRANCH   6  13
HETATM   13  C8  UNK     1       9.587   6.690   7.581  1.00  0.00     0.074 C 
HETATM   14  C11 UNK     1       9.520   6.190   6.153  1.00  0.00     0.074 C 
HETATM   15  N1  UNK     1       8.555   7.175   8.215  1.00  0.00    -0.140 NA
BRANCH  15  16
HETATM   16  O3  UNK     1       7.412   7.167   7.413  1.00  0.00    -0.266 OA
HETATM   17  H8  UNK     1       7.170   8.109   7.409  1.00  0.00     0.247 HD
ENDBRANCH  15  16
ENDBRANCH   6  13
TORSDOF 2
ENDMDL
MODEL 7
REMARK VINA RESULT:      -6.7     22.309     23.926
REMARK  2 active torsions:
REMARK  status: ('A' for Active; 'I' for Inactive)
REMARK    1  A    between atoms: N1_5  and  O3_4 
REMARK    2  A    between atoms: C3_8  and  C8_13 
ROOT
HETATM    1 Br1  UNK     1      21.271  -3.288  32.272  1.00  0.00    -0.051 Br
HETATM    2  O1  UNK     1      18.971   0.954  28.595  1.00  0.00    -0.274 OA
HETATM    3  O2  UNK     1      18.127   3.052  28.269  1.00  0.00    -0.259 OA
HETATM    4  C1  UNK     1      19.663   0.271  30.823  1.00  0.00     0.000 A 
HETATM    5  C2  UNK     1      19.502  -0.012  29.471  1.00  0.00     0.089 A 
HETATM    6  C3  UNK     1      18.770   2.497  30.481  1.00  0.00     0.067 A 
HETATM    7  C4  UNK     1      19.274   1.583  31.318  1.00  0.00     0.034 A 
HETATM    8  C5  UNK     1      20.194  -0.714  31.660  1.00  0.00     0.033 A 
HETATM    9  C6  UNK     1      18.589   2.217  29.039  1.00  0.00     0.300 A 
HETATM   10  C7  UNK     1      19.857  -1.248  28.933  1.00  0.00     0.039 A 
HETATM   11  C9  UNK     1      20.553  -1.958  31.135  1.00  0.00     0.011 A 
HETATM   12  C10 UNK     1      20.385  -2.225  29.775  1.00  0.00     0.022 A 
ENDROOT
BRANCH   6  13
HETATM   13  C8  UNK     1      18.406   3.789  31.075  1.00  0.00     0.074 C 
HETATM   14  C11 UNK     1      19.115   5.022  30.553  1.00  0.00     0.074 C 
HETATM   15  N1  UNK     1      17.502   3.832  32.014  1.00  0.00    -0.140 NA
BRANCH  15  16
HETATM   16  O3  UNK     1      17.286   5.138  32.459  1.00  0.00    -0.266 OA
HETATM   17  H8  UNK     1      17.835   5.648  31.839  1.00  0.00     0.247 HD
ENDBRANCH  15  16
ENDBRANCH   6  13
TORSDOF 2
ENDMDL
MODEL 8
REMARK VINA RESULT:      -6.7     23.385     25.090
REMARK  2 active torsions:
REMARK  status: ('A' for Active; 'I' for Inactive)
REMARK    1  A    between atoms: N1_5  and  O3_4 
REMARK    2  A    between atoms: C3_8  and  C8_13 
ROOT
HETATM    1 Br1  UNK     1      19.013  -2.198  36.357  1.00  0.00    -0.051 Br
HETATM    2  O1  UNK     1      20.808  -1.517  30.602  1.00  0.00    -0.274 OA
HETATM    3  O2  UNK     1      20.699  -0.407  28.607  1.00  0.00    -0.259 OA
HETATM    4  C1  UNK     1      19.427  -0.780  32.462  1.00  0.00     0.000 A 
HETATM    5  C2  UNK     1      20.373  -1.652  31.935  1.00  0.00     0.089 A 
HETATM    6  C3  UNK     1      19.310   0.399  30.349  1.00  0.00     0.067 A 
HETATM    7  C4  UNK     1      18.893   0.275  31.615  1.00  0.00     0.034 A 
HETATM    8  C5  UNK     1      19.022  -0.947  33.789  1.00  0.00     0.033 A 
HETATM    9  C6  UNK     1      20.315  -0.517  29.767  1.00  0.00     0.300 A 
HETATM   10  C7  UNK     1      20.925  -2.683  32.693  1.00  0.00     0.039 A 
HETATM   11  C9  UNK     1      19.566  -1.976  34.562  1.00  0.00     0.011 A 
HETATM   12  C10 UNK     1      20.514  -2.842  34.016  1.00  0.00     0.022 A 
ENDROOT
BRANCH   6  13
HETATM   13  C8  UNK     1      18.713   1.493  29.574  1.00  0.00     0.074 C 
HETATM   14  C11 UNK     1      18.805   2.891  30.152  1.00  0.00     0.074 C 
HETATM   15  N1  UNK     1      18.133   1.230  28.435  1.00  0.00    -0.140 NA
BRANCH  15  16
HETATM   16  O3  UNK     1      17.623   2.388  27.841  1.00  0.00    -0.266 OA
HETATM   17  H8  UNK     1      17.607   2.134  26.902  1.00  0.00     0.247 HD
ENDBRANCH  15  16
ENDBRANCH   6  13
TORSDOF 2
ENDMDL
MODEL 9
REMARK VINA RESULT:      -6.6     33.374     35.816
REMARK  2 active torsions:
REMARK  status: ('A' for Active; 'I' for Inactive)
REMARK    1  A    between atoms: N1_5  and  O3_4 
REMARK    2  A    between atoms: C3_8  and  C8_13 
ROOT
HETATM    1 Br1  UNK     1      51.357   7.957  15.236  1.00  0.00    -0.051 Br
HETATM    2  O1  UNK     1      48.768   4.108  19.146  1.00  0.00    -0.274 OA
HETATM    3  O2  UNK     1      47.025   2.754  19.738  1.00  0.00    -0.259 OA
HETATM    4  C1  UNK     1      48.678   5.330  17.046  1.00  0.00     0.000 A 
HETATM    5  C2  UNK     1      49.346   4.999  18.220  1.00  0.00     0.089 A 
HETATM    6  C3  UNK     1      46.829   3.894  17.671  1.00  0.00     0.067 A 
HETATM    7  C4  UNK     1      47.374   4.740  16.788  1.00  0.00     0.034 A 
HETATM    8  C5  UNK     1      49.285   6.217  16.153  1.00  0.00     0.033 A 
HETATM    9  C6  UNK     1      47.521   3.528  18.927  1.00  0.00     0.300 A 
HETATM   10  C7  UNK     1      50.599   5.527  18.527  1.00  0.00     0.039 A 
HETATM   11  C9  UNK     1      50.541   6.756  16.447  1.00  0.00     0.011 A 
HETATM   12  C10 UNK     1      51.196   6.412  17.631  1.00  0.00     0.022 A 
ENDROOT
BRANCH   6  13
HETATM   13  C8  UNK     1      45.511   3.353  17.322  1.00  0.00     0.074 C 
HETATM   14  C11 UNK     1      44.535   4.282  16.629  1.00  0.00     0.074 C 
HETATM   15  N1  UNK     1      45.228   2.114  17.616  1.00  0.00    -0.140 NA
BRANCH  15  16
HETATM   16  O3  UNK     1      43.934   1.774  17.211  1.00  0.00    -0.266 OA
HETATM   17  H8  UNK     1      43.396   2.208  17.895  1.00  0.00     0.247 HD
ENDBRANCH  15  16
ENDBRANCH   6  13
TORSDOF 2
ENDMDL
MODEL 10
REMARK VINA RESULT:      -6.6     24.443     25.347
REMARK  2 active torsions:
REMARK  status: ('A' for Active; 'I' for Inactive)
REMARK    1  A    between atoms: N1_5  and  O3_4 
REMARK    2  A    between atoms: C3_8  and  C8_13 
ROOT
HETATM    1 Br1  UNK     1      15.567  12.189  35.292  1.00  0.00    -0.051 Br
HETATM    2  O1  UNK     1      15.948   6.559  33.064  1.00  0.00    -0.274 OA
HETATM    3  O2  UNK     1      17.169   4.883  32.106  1.00  0.00    -0.259 OA
HETATM    4  C1  UNK     1      17.019   8.680  33.581  1.00  0.00     0.000 A 
HETATM    5  C2  UNK     1      15.887   7.870  33.575  1.00  0.00     0.089 A 
HETATM    6  C3  UNK     1      18.317   6.903  32.567  1.00  0.00     0.067 A 
HETATM    7  C4  UNK     1      18.266   8.150  33.051  1.00  0.00     0.034 A 
HETATM    8  C5  UNK     1      16.919   9.974  34.097  1.00  0.00     0.033 A 
HETATM    9  C6  UNK     1      17.126   6.025  32.549  1.00  0.00     0.300 A 
HETATM   10  C7  UNK     1      14.663   8.316  34.069  1.00  0.00     0.039 A 
HETATM   11  C9  UNK     1      15.698  10.436  34.596  1.00  0.00     0.011 A 
HETATM   12  C10 UNK     1      14.573   9.609  34.581  1.00  0.00     0.022 A 
ENDROOT
BRANCH   6  13
HETATM   13  C8  UNK     1      19.619   6.460  32.054  1.00  0.00     0.074 C 
HETATM   14  C11 UNK     1      20.788   6.464  33.018  1.00  0.00     0.074 C 
HETATM   15  N1  UNK     1      19.724   6.085  30.808  1.00  0.00    -0.140 NA
BRANCH  15  16
HETATM   16  O3  UNK     1      21.030   5.698  30.499  1.00  0.00    -0.266 OA
HETATM   17  H8  UNK     1      21.115   4.874  31.007  1.00  0.00     0.247 HD
ENDBRANCH  15  16
ENDBRANCH   6  13
TORSDOF 2
ENDMDL
