MODEL 1
REMARK VINA RESULT:      -7.6      0.000      0.000
REMARK  4 active torsions:
REMARK  status: ('A' for Active; 'I' for Inactive)
REMARK    1  A    between atoms: C5_7  and  O1_1 
REMARK    2  A    between atoms: C6_8  and  O2_2 
REMARK    3  A    between atoms: C1_3  and  C3_5 
REMARK    4  A    between atoms: C2_4  and  C4_6 
ROOT
HETATM    1  C3  UNK     1      18.372  -0.852  33.570  1.00  0.00     0.015 C 
HETATM    2  C4  UNK     1      18.852   0.023  32.658  1.00  0.00     0.015 C 
ENDROOT
BRANCH   1   3
HETATM    3  C1  UNK     1      17.815  -0.492  34.867  1.00  0.00    -0.003 A 
HETATM    4  C5  UNK     1      18.486  -0.800  36.050  1.00  0.00     0.078 A 
HETATM    5  C9  UNK     1      17.932  -0.444  37.279  1.00  0.00     0.037 A 
HETATM    6  C13 UNK     1      16.707   0.222  37.326  1.00  0.00     0.003 A 
HETATM    7  C11 UNK     1      16.036   0.531  36.142  1.00  0.00     0.001 A 
HETATM    8  C7  UNK     1      16.590   0.174  34.913  1.00  0.00     0.014 A 
BRANCH   4   9
HETATM    9  O1  UNK     1      19.684  -1.451  36.033  1.00  0.00    -0.355 OA
HETATM   10  C15 UNK     1      19.772  -2.664  36.775  1.00  0.00     0.210 C 
ENDBRANCH   4   9
ENDBRANCH   1   3
BRANCH   2  11
HETATM   11  C2  UNK     1      19.434  -0.343  31.355  1.00  0.00    -0.003 A 
HETATM   12  C6  UNK     1      19.473   0.577  30.319  1.00  0.00     0.078 A 
HETATM   13  C10 UNK     1      20.029   0.206  29.094  1.00  0.00     0.037 A 
HETATM   14  C14 UNK     1      20.539  -1.081  28.921  1.00  0.00     0.003 A 
HETATM   15  C12 UNK     1      20.493  -1.997  29.972  1.00  0.00     0.001 A 
HETATM   16  C8  UNK     1      19.937  -1.626  31.196  1.00  0.00     0.014 A 
BRANCH  12  17
HETATM   17  O2  UNK     1      18.981   1.841  30.462  1.00  0.00    -0.355 OA
HETATM   18  C16 UNK     1      18.269   2.386  29.354  1.00  0.00     0.210 C 
ENDBRANCH  12  17
ENDBRANCH   2  11
TORSDOF 4
ENDMDL
MODEL 2
REMARK VINA RESULT:      -7.6      0.064      6.909
REMARK  4 active torsions:
REMARK  status: ('A' for Active; 'I' for Inactive)
REMARK    1  A    between atoms: C5_7  and  O1_1 
REMARK    2  A    between atoms: C6_8  and  O2_2 
REMARK    3  A    between atoms: C1_3  and  C3_5 
REMARK    4  A    between atoms: C2_4  and  C4_6 
ROOT
HETATM    1  C3  UNK     1      18.859   0.022  32.682  1.00  0.00     0.015 C 
HETATM    2  C4  UNK     1      18.355  -0.854  33.581  1.00  0.00     0.015 C 
ENDROOT
BRANCH   1   3
HETATM    3  C1  UNK     1      19.413  -0.334  31.383  1.00  0.00    -0.003 A 
HETATM    4  C5  UNK     1      19.407   0.574  30.325  1.00  0.00     0.078 A 
HETATM    5  C9  UNK     1      19.944   0.210  29.090  1.00  0.00     0.037 A 
HETATM    6  C13 UNK     1      20.487  -1.063  28.913  1.00  0.00     0.003 A 
HETATM    7  C11 UNK     1      20.493  -1.971  29.972  1.00  0.00     0.001 A 
HETATM    8  C7  UNK     1      19.957  -1.607  31.207  1.00  0.00     0.014 A 
BRANCH   4   9
HETATM    9  O1  UNK     1      18.882   1.825  30.470  1.00  0.00    -0.355 OA
HETATM   10  C15 UNK     1      18.303   2.421  29.312  1.00  0.00     0.210 C 
ENDBRANCH   4   9
ENDBRANCH   1   3
BRANCH   2  11
HETATM   11  C2  UNK     1      17.813  -0.495  34.903  1.00  0.00    -0.003 A 
HETATM   12  C6  UNK     1      18.499  -0.830  36.059  1.00  0.00     0.078 A 
HETATM   13  C10 UNK     1      17.965  -0.479  37.300  1.00  0.00     0.037 A 
HETATM   14  C14 UNK     1      16.750   0.204  37.368  1.00  0.00     0.003 A 
HETATM   15  C12 UNK     1      16.070   0.536  36.196  1.00  0.00     0.001 A 
HETATM   16  C8  UNK     1      16.604   0.184  34.957  1.00  0.00     0.014 A 
BRANCH  12  17
HETATM   17  O2  UNK     1      19.688  -1.498  36.021  1.00  0.00    -0.355 OA
HETATM   18  C16 UNK     1      19.737  -2.767  36.668  1.00  0.00     0.210 C 
ENDBRANCH  12  17
ENDBRANCH   2  11
TORSDOF 4
ENDMDL
MODEL 3
REMARK VINA RESULT:      -7.3      2.931      6.755
REMARK  4 active torsions:
REMARK  status: ('A' for Active; 'I' for Inactive)
REMARK    1  A    between atoms: C5_7  and  O1_1 
REMARK    2  A    between atoms: C6_8  and  O2_2 
REMARK    3  A    between atoms: C1_3  and  C3_5 
REMARK    4  A    between atoms: C2_4  and  C4_6 
ROOT
HETATM    1  C3  UNK     1      18.030   3.028  34.105  1.00  0.00     0.015 C 
HETATM    2  C4  UNK     1      18.846   2.462  35.023  1.00  0.00     0.015 C 
ENDROOT
BRANCH   1   3
HETATM    3  C1  UNK     1      18.398   4.121  33.215  1.00  0.00    -0.003 A 
HETATM    4  C5  UNK     1      18.224   4.015  31.835  1.00  0.00     0.078 A 
HETATM    5  C9  UNK     1      18.584   5.076  31.004  1.00  0.00     0.037 A 
HETATM    6  C13 UNK     1      19.117   6.243  31.552  1.00  0.00     0.003 A 
HETATM    7  C11 UNK     1      19.290   6.348  32.932  1.00  0.00     0.001 A 
HETATM    8  C7  UNK     1      18.931   5.288  33.764  1.00  0.00     0.014 A 
BRANCH   4   9
HETATM    9  O1  UNK     1      17.705   2.886  31.273  1.00  0.00    -0.355 OA
HETATM   10  C15 UNK     1      18.260   2.470  30.029  1.00  0.00     0.210 C 
ENDBRANCH   4   9
ENDBRANCH   1   3
BRANCH   2  11
HETATM   11  C2  UNK     1      18.467   1.369  35.936  1.00  0.00    -0.003 A 
HETATM   12  C6  UNK     1      18.666   0.047  35.570  1.00  0.00     0.078 A 
HETATM   13  C10 UNK     1      18.299  -0.970  36.452  1.00  0.00     0.037 A 
HETATM   14  C14 UNK     1      17.737  -0.651  37.689  1.00  0.00     0.003 A 
HETATM   15  C12 UNK     1      17.543   0.684  38.044  1.00  0.00     0.001 A 
HETATM   16  C8  UNK     1      17.909   1.700  37.162  1.00  0.00     0.014 A 
BRANCH  12  17
HETATM   17  O2  UNK     1      19.212  -0.291  34.368  1.00  0.00    -0.355 OA
HETATM   18  C16 UNK     1      18.355  -0.933  33.426  1.00  0.00     0.210 C 
ENDBRANCH  12  17
ENDBRANCH   2  11
TORSDOF 4
ENDMDL
MODEL 4
REMARK VINA RESULT:      -7.3      2.937      4.359
REMARK  4 active torsions:
REMARK  status: ('A' for Active; 'I' for Inactive)
REMARK    1  A    between atoms: C5_7  and  O1_1 
REMARK    2  A    between atoms: C6_8  and  O2_2 
REMARK    3  A    between atoms: C1_3  and  C3_5 
REMARK    4  A    between atoms: C2_4  and  C4_6 
ROOT
HETATM    1  C3  UNK     1      18.864   2.441  34.994  1.00  0.00     0.015 C 
HETATM    2  C4  UNK     1      18.019   3.081  34.153  1.00  0.00     0.015 C 
ENDROOT
BRANCH   1   3
HETATM    3  C1  UNK     1      18.485   1.383  35.920  1.00  0.00    -0.003 A 
HETATM    4  C5  UNK     1      18.682   0.040  35.598  1.00  0.00     0.078 A 
HETATM    5  C9  UNK     1      18.312  -0.955  36.502  1.00  0.00     0.037 A 
HETATM    6  C13 UNK     1      17.745  -0.609  37.729  1.00  0.00     0.003 A 
HETATM    7  C11 UNK     1      17.548   0.735  38.051  1.00  0.00     0.001 A 
HETATM    8  C7  UNK     1      17.918   1.730  37.147  1.00  0.00     0.014 A 
BRANCH   4   9
HETATM    9  O1  UNK     1      19.233  -0.327  34.406  1.00  0.00    -0.355 OA
HETATM   10  C15 UNK     1      18.361  -0.911  33.443  1.00  0.00     0.210 C 
ENDBRANCH   4   9
ENDBRANCH   1   3
BRANCH   2  11
HETATM   11  C2  UNK     1      18.399   4.164  33.230  1.00  0.00    -0.003 A 
HETATM   12  C6  UNK     1      18.242   4.009  31.862  1.00  0.00     0.078 A 
HETATM   13  C10 UNK     1      18.610   5.050  31.008  1.00  0.00     0.037 A 
HETATM   14  C14 UNK     1      19.129   6.233  31.534  1.00  0.00     0.003 A 
HETATM   15  C12 UNK     1      19.281   6.376  32.913  1.00  0.00     0.001 A 
HETATM   16  C8  UNK     1      18.914   5.335  33.766  1.00  0.00     0.014 A 
BRANCH  12  17
HETATM   17  O2  UNK     1      17.737   2.863  31.322  1.00  0.00    -0.355 OA
HETATM   18  C16 UNK     1      18.227   2.483  30.038  1.00  0.00     0.210 C 
ENDBRANCH  12  17
ENDBRANCH   2  11
TORSDOF 4
ENDMDL
MODEL 5
REMARK VINA RESULT:      -7.2     24.102     26.598
REMARK  4 active torsions:
REMARK  status: ('A' for Active; 'I' for Inactive)
REMARK    1  A    between atoms: C5_7  and  O1_1 
REMARK    2  A    between atoms: C6_8  and  O2_2 
REMARK    3  A    between atoms: C1_3  and  C3_5 
REMARK    4  A    between atoms: C2_4  and  C4_6 
ROOT
HETATM    1  C3  UNK     1      13.170   7.198   8.920  1.00  0.00     0.015 C 
HETATM    2  C4  UNK     1      12.322   7.824   8.072  1.00  0.00     0.015 C 
ENDROOT
BRANCH   1   3
HETATM    3  C1  UNK     1      14.436   7.740   9.392  1.00  0.00    -0.003 A 
HETATM    4  C5  UNK     1      15.263   7.004  10.241  1.00  0.00     0.078 A 
HETATM    5  C9  UNK     1      16.471   7.544  10.679  1.00  0.00     0.037 A 
HETATM    6  C13 UNK     1      16.855   8.821  10.267  1.00  0.00     0.003 A 
HETATM    7  C11 UNK     1      16.029   9.557   9.417  1.00  0.00     0.001 A 
HETATM    8  C7  UNK     1      14.820   9.017   8.980  1.00  0.00     0.014 A 
BRANCH   4   9
HETATM    9  O1  UNK     1      14.911   5.754  10.659  1.00  0.00    -0.355 OA
HETATM   10  C15 UNK     1      15.430   4.655   9.916  1.00  0.00     0.210 C 
ENDBRANCH   4   9
ENDBRANCH   1   3
BRANCH   2  11
HETATM   11  C2  UNK     1      11.050   7.267   7.580  1.00  0.00    -0.003 A 
HETATM   12  C6  UNK     1       9.907   7.330   8.361  1.00  0.00     0.078 A 
HETATM   13  C10 UNK     1       8.713   6.796   7.873  1.00  0.00     0.037 A 
HETATM   14  C14 UNK     1       8.679   6.206   6.609  1.00  0.00     0.003 A 
HETATM   15  C12 UNK     1       9.837   6.150   5.833  1.00  0.00     0.001 A 
HETATM   16  C8  UNK     1      11.029   6.684   6.322  1.00  0.00     0.014 A 
BRANCH  12  17
HETATM   17  O2  UNK     1       9.913   7.900   9.600  1.00  0.00    -0.355 OA
HETATM   18  C16 UNK     1       8.921   8.890   9.861  1.00  0.00     0.210 C 
ENDBRANCH  12  17
ENDBRANCH   2  11
TORSDOF 4
ENDMDL
MODEL 6
REMARK VINA RESULT:      -7.2     24.110     26.773
REMARK  4 active torsions:
REMARK  status: ('A' for Active; 'I' for Inactive)
REMARK    1  A    between atoms: C5_7  and  O1_1 
REMARK    2  A    between atoms: C6_8  and  O2_2 
REMARK    3  A    between atoms: C1_3  and  C3_5 
REMARK    4  A    between atoms: C2_4  and  C4_6 
ROOT
HETATM    1  C3  UNK     1      12.222   7.871   8.203  1.00  0.00     0.015 C 
HETATM    2  C4  UNK     1      13.258   7.181   8.732  1.00  0.00     0.015 C 
ENDROOT
BRANCH   1   3
HETATM    3  C1  UNK     1      11.018   7.276   7.639  1.00  0.00    -0.003 A 
HETATM    4  C5  UNK     1       9.830   7.227   8.367  1.00  0.00     0.078 A 
HETATM    5  C9  UNK     1       8.690   6.654   7.805  1.00  0.00     0.037 A 
HETATM    6  C13 UNK     1       8.737   6.129   6.513  1.00  0.00     0.003 A 
HETATM    7  C11 UNK     1       9.926   6.178   5.784  1.00  0.00     0.001 A 
HETATM    8  C7  UNK     1      11.065   6.752   6.346  1.00  0.00     0.014 A 
BRANCH   4   9
HETATM    9  O1  UNK     1       9.756   7.732   9.632  1.00  0.00    -0.355 OA
HETATM   10  C15 UNK     1       8.936   8.883   9.822  1.00  0.00     0.210 C 
ENDBRANCH   4   9
ENDBRANCH   1   3
BRANCH   2  11
HETATM   11  C2  UNK     1      14.483   7.782   9.285  1.00  0.00    -0.003 A 
HETATM   12  C6  UNK     1      15.243   7.096  10.219  1.00  0.00     0.078 A 
HETATM   13  C10 UNK     1      16.400   7.687  10.728  1.00  0.00     0.037 A 
HETATM   14  C14 UNK     1      16.783   8.957  10.297  1.00  0.00     0.003 A 
HETATM   15  C12 UNK     1      16.009   9.636   9.356  1.00  0.00     0.001 A 
HETATM   16  C8  UNK     1      14.852   9.046   8.847  1.00  0.00     0.014 A 
BRANCH  12  17
HETATM   17  O2  UNK     1      14.892   5.853  10.658  1.00  0.00    -0.355 OA
HETATM   18  C16 UNK     1      15.406   4.741   9.930  1.00  0.00     0.210 C 
ENDBRANCH  12  17
ENDBRANCH   2  11
TORSDOF 4
ENDMDL
MODEL 7
REMARK VINA RESULT:      -7.1      3.471      6.989
REMARK  4 active torsions:
REMARK  status: ('A' for Active; 'I' for Inactive)
REMARK    1  A    between atoms: C5_7  and  O1_1 
REMARK    2  A    between atoms: C6_8  and  O2_2 
REMARK    3  A    between atoms: C1_3  and  C3_5 
REMARK    4  A    between atoms: C2_4  and  C4_6 
ROOT
HETATM    1  C3  UNK     1      18.188   3.545  33.778  1.00  0.00     0.015 C 
HETATM    2  C4  UNK     1      18.213   2.193  33.802  1.00  0.00     0.015 C 
ENDROOT
BRANCH   1   3
HETATM    3  C1  UNK     1      18.561   4.371  32.638  1.00  0.00    -0.003 A 
HETATM    4  C5  UNK     1      18.963   5.696  32.811  1.00  0.00     0.078 A 
HETATM    5  C9  UNK     1      19.315   6.467  31.704  1.00  0.00     0.037 A 
HETATM    6  C13 UNK     1      19.267   5.914  30.424  1.00  0.00     0.003 A 
HETATM    7  C11 UNK     1      18.866   4.589  30.252  1.00  0.00     0.001 A 
HETATM    8  C7  UNK     1      18.513   3.818  31.359  1.00  0.00     0.014 A 
BRANCH   4   9
HETATM    9  O1  UNK     1      19.018   6.261  34.050  1.00  0.00    -0.355 OA
HETATM   10  C15 UNK     1      19.412   7.629  34.120  1.00  0.00     0.210 C 
ENDBRANCH   4   9
ENDBRANCH   1   3
BRANCH   2  11
HETATM   11  C2  UNK     1      17.854   1.357  34.961  1.00  0.00    -0.003 A 
HETATM   12  C6  UNK     1      17.520   0.023  34.789  1.00  0.00     0.078 A 
HETATM   13  C10 UNK     1      17.184  -0.747  35.903  1.00  0.00     0.037 A 
HETATM   14  C14 UNK     1      17.187  -0.173  37.175  1.00  0.00     0.003 A 
HETATM   15  C12 UNK     1      17.526   1.170  37.333  1.00  0.00     0.001 A 
HETATM   16  C8  UNK     1      17.862   1.940  36.220  1.00  0.00     0.014 A 
BRANCH  12  17
HETATM   17  O2  UNK     1      17.509  -0.562  33.558  1.00  0.00    -0.355 OA
HETATM   18  C16 UNK     1      18.711  -1.200  33.134  1.00  0.00     0.210 C 
ENDBRANCH  12  17
ENDBRANCH   2  11
TORSDOF 4
ENDMDL
MODEL 8
REMARK VINA RESULT:      -7.0      3.464      4.656
REMARK  4 active torsions:
REMARK  status: ('A' for Active; 'I' for Inactive)
REMARK    1  A    between atoms: C5_7  and  O1_1 
REMARK    2  A    between atoms: C6_8  and  O2_2 
REMARK    3  A    between atoms: C1_3  and  C3_5 
REMARK    4  A    between atoms: C2_4  and  C4_6 
ROOT
HETATM    1  C3  UNK     1      18.221   2.207  33.809  1.00  0.00     0.015 C 
HETATM    2  C4  UNK     1      18.166   3.558  33.785  1.00  0.00     0.015 C 
ENDROOT
BRANCH   1   3
HETATM    3  C1  UNK     1      17.872   1.372  34.951  1.00  0.00    -0.003 A 
HETATM    4  C5  UNK     1      17.554   0.024  34.787  1.00  0.00     0.078 A 
HETATM    5  C9  UNK     1      17.224  -0.754  35.896  1.00  0.00     0.037 A 
HETATM    6  C13 UNK     1      17.213  -0.186  37.170  1.00  0.00     0.003 A 
HETATM    7  C11 UNK     1      17.532   1.163  37.334  1.00  0.00     0.001 A 
HETATM    8  C7  UNK     1      17.862   1.941  36.225  1.00  0.00     0.014 A 
BRANCH   4   9
HETATM    9  O1  UNK     1      17.557  -0.557  33.553  1.00  0.00    -0.355 OA
HETATM   10  C15 UNK     1      18.742  -1.247  33.166  1.00  0.00     0.210 C 
ENDBRANCH   4   9
ENDBRANCH   1   3
BRANCH   2  11
HETATM   11  C2  UNK     1      18.537   4.402  32.637  1.00  0.00    -0.003 A 
HETATM   12  C6  UNK     1      18.889   5.729  32.825  1.00  0.00     0.078 A 
HETATM   13  C10 UNK     1      19.237   6.509  31.720  1.00  0.00     0.037 A 
HETATM   14  C14 UNK     1      19.228   5.950  30.442  1.00  0.00     0.003 A 
HETATM   15  C12 UNK     1      18.872   4.613  30.267  1.00  0.00     0.001 A 
HETATM   16  C8  UNK     1      18.524   3.834  31.371  1.00  0.00     0.014 A 
BRANCH  12  17
HETATM   17  O2  UNK     1      18.906   6.300  34.063  1.00  0.00    -0.355 OA
HETATM   18  C16 UNK     1      17.922   7.297  34.328  1.00  0.00     0.210 C 
ENDBRANCH  12  17
ENDBRANCH   2  11
TORSDOF 4
ENDMDL
MODEL 9
REMARK VINA RESULT:      -6.9     12.734     16.595
REMARK  4 active torsions:
REMARK  status: ('A' for Active; 'I' for Inactive)
REMARK    1  A    between atoms: C5_7  and  O1_1 
REMARK    2  A    between atoms: C6_8  and  O2_2 
REMARK    3  A    between atoms: C1_3  and  C3_5 
REMARK    4  A    between atoms: C2_4  and  C4_6 
ROOT
HETATM    1  C3  UNK     1      18.909  -0.974  17.261  1.00  0.00     0.015 C 
HETATM    2  C4  UNK     1      19.121  -1.520  16.041  1.00  0.00     0.015 C 
ENDROOT
BRANCH   1   3
HETATM    3  C1  UNK     1      18.973   0.448  17.567  1.00  0.00    -0.003 A 
HETATM    4  C5  UNK     1      18.800   0.913  18.870  1.00  0.00     0.078 A 
HETATM    5  C9  UNK     1      18.866   2.280  19.138  1.00  0.00     0.037 A 
HETATM    6  C13 UNK     1      19.107   3.183  18.103  1.00  0.00     0.003 A 
HETATM    7  C11 UNK     1      19.280   2.718  16.799  1.00  0.00     0.001 A 
HETATM    8  C7  UNK     1      19.214   1.351  16.531  1.00  0.00     0.014 A 
BRANCH   4   9
HETATM    9  O1  UNK     1      18.563   0.052  19.901  1.00  0.00    -0.355 OA
HETATM   10  C15 UNK     1      19.411   0.161  21.042  1.00  0.00     0.210 C 
ENDBRANCH   4   9
ENDBRANCH   1   3
BRANCH   2  11
HETATM   11  C2  UNK     1      19.074  -2.960  15.736  1.00  0.00    -0.003 A 
HETATM   12  C6  UNK     1      20.235  -3.717  15.743  1.00  0.00     0.078 A 
HETATM   13  C10 UNK     1      20.166  -5.080  15.451  1.00  0.00     0.037 A 
HETATM   14  C14 UNK     1      18.935  -5.668  15.157  1.00  0.00     0.003 A 
HETATM   15  C12 UNK     1      17.775  -4.895  15.154  1.00  0.00     0.001 A 
HETATM   16  C8  UNK     1      17.845  -3.532  15.445  1.00  0.00     0.014 A 
BRANCH  12  17
HETATM   17  O2  UNK     1      21.450  -3.167  16.027  1.00  0.00    -0.355 OA
HETATM   18  C16 UNK     1      22.055  -3.540  17.263  1.00  0.00     0.210 C 
ENDBRANCH  12  17
ENDBRANCH   2  11
TORSDOF 4
ENDMDL
MODEL 10
REMARK VINA RESULT:      -6.9      1.228      2.213
REMARK  4 active torsions:
REMARK  status: ('A' for Active; 'I' for Inactive)
REMARK    1  A    between atoms: C5_7  and  O1_1 
REMARK    2  A    between atoms: C6_8  and  O2_2 
REMARK    3  A    between atoms: C1_3  and  C3_5 
REMARK    4  A    between atoms: C2_4  and  C4_6 
ROOT
HETATM    1  C3  UNK     1      18.199  -0.522  33.406  1.00  0.00     0.015 C 
HETATM    2  C4  UNK     1      18.905   0.340  32.639  1.00  0.00     0.015 C 
ENDROOT
BRANCH   1   3
HETATM    3  C1  UNK     1      17.721  -0.248  34.754  1.00  0.00    -0.003 A 
HETATM    4  C5  UNK     1      18.543  -0.446  35.863  1.00  0.00     0.078 A 
HETATM    5  C9  UNK     1      18.062  -0.175  37.144  1.00  0.00     0.037 A 
HETATM    6  C13 UNK     1      16.760   0.294  37.317  1.00  0.00     0.003 A 
HETATM    7  C11 UNK     1      15.938   0.493  36.206  1.00  0.00     0.001 A 
HETATM    8  C7  UNK     1      16.419   0.222  34.925  1.00  0.00     0.014 A 
BRANCH   4   9
HETATM    9  O1  UNK     1      19.820  -0.904  35.723  1.00  0.00    -0.355 OA
HETATM   10  C15 UNK     1      20.066  -2.256  36.098  1.00  0.00     0.210 C 
ENDBRANCH   4   9
ENDBRANCH   1   3
BRANCH   2  11
HETATM   11  C2  UNK     1      19.405   0.055  31.283  1.00  0.00    -0.003 A 
HETATM   12  C6  UNK     1      20.345  -0.941  31.075  1.00  0.00     0.078 A 
HETATM   13  C10 UNK     1      20.803  -1.192  29.781  1.00  0.00     0.037 A 
HETATM   14  C14 UNK     1      20.314  -0.443  28.711  1.00  0.00     0.003 A 
HETATM   15  C12 UNK     1      19.367   0.556  28.933  1.00  0.00     0.001 A 
HETATM   16  C8  UNK     1      18.910   0.807  30.227  1.00  0.00     0.014 A 
BRANCH  12  17
HETATM   17  O2  UNK     1      20.841  -1.688  32.103  1.00  0.00    -0.355 OA
HETATM   18  C16 UNK     1      20.960  -3.091  31.884  1.00  0.00     0.210 C 
ENDBRANCH  12  17
ENDBRANCH   2  11
TORSDOF 4
ENDMDL
