MODEL 1
REMARK VINA RESULT:      -7.9      0.000      0.000
REMARK  4 active torsions:
REMARK  status: ('A' for Active; 'I' for Inactive)
REMARK    1  A    between atoms: C5_14  and  N1_6 
REMARK       I    between atoms: C6_15  and  N2_7 
REMARK    2  A    between atoms: C10_19  and  N3_8 
REMARK       I    between atoms: C6_15  and  N3_8 
REMARK    3  A    between atoms: C9_18  and  N3_8 
REMARK    4  A    between atoms: C8_17  and  N4_9 
ROOT
HETATM    1  O1  UNK     1      18.128   0.108  33.103  1.00  0.00    -0.273 OA
HETATM    2  O3  UNK     1      16.975   0.770  34.956  1.00  0.00    -0.257 OA
HETATM    3  C5  UNK     1      19.383  -1.914  34.702  1.00  0.00     0.083 A 
HETATM    4  C7  UNK     1      19.711  -1.759  33.261  1.00  0.00     0.027 A 
HETATM    5  C8  UNK     1      18.476  -1.051  35.189  1.00  0.00     0.205 A 
HETATM    6  C11 UNK     1      19.073  -0.758  32.518  1.00  0.00     0.092 A 
HETATM    7  C12 UNK     1      20.639  -2.560  32.573  1.00  0.00     0.017 A 
HETATM    8  C13 UNK     1      17.790   0.014  34.443  1.00  0.00     0.324 A 
HETATM    9  C14 UNK     1      19.326  -0.549  31.159  1.00  0.00     0.038 A 
HETATM   10  C17 UNK     1      20.903  -2.360  31.211  1.00  0.00     0.001 A 
HETATM   11  C18 UNK     1      20.248  -1.356  30.505  1.00  0.00     0.003 A 
ENDROOT
BRANCH   3  12
HETATM   12  N1  UNK     1      20.014  -2.901  35.401  1.00  0.00    -0.375 N 
HETATM   13  C1  UNK     1      19.770  -4.322  35.145  1.00  0.00     0.143 C 
HETATM   14  C3  UNK     1      19.501  -5.060  36.460  1.00  0.00     0.147 C 
HETATM   15  N2  UNK     1      20.560  -4.772  37.439  1.00  0.00    -0.331 N 
HETATM   16  C4  UNK     1      20.787  -3.343  37.673  1.00  0.00     0.147 C 
HETATM   17  C6  UNK     1      21.490  -5.710  37.903  1.00  0.00     0.320 C 
HETATM   18  C2  UNK     1      21.082  -2.619  36.363  1.00  0.00     0.143 C 
HETATM   19  O2  UNK     1      22.627  -5.371  38.255  1.00  0.00    -0.247 OA
HETATM   20  N3  UNK     1      21.077  -7.049  37.962  1.00  0.00    -0.335 N 
BRANCH  20  21
HETATM   21  C10 UNK     1      19.773  -7.485  38.459  1.00  0.00     0.123 C 
HETATM   22  C16 UNK     1      19.908  -8.626  39.446  1.00  0.00     0.026 C 
ENDBRANCH  20  21
BRANCH  20  23
HETATM   23  C9  UNK     1      22.067  -8.104  37.793  1.00  0.00     0.123 C 
HETATM   24  C15 UNK     1      22.045  -8.664  36.384  1.00  0.00     0.026 C 
ENDBRANCH  20  23
ENDBRANCH   3  12
BRANCH   5  25
HETATM   25  N4  UNK     1      18.135  -1.169  36.571  1.00  0.00    -0.107 N 
HETATM   26  O4  UNK     1      17.403  -2.111  36.890  1.00  0.00    -0.531 OA
HETATM   27  O5  UNK     1      18.601  -0.318  37.338  1.00  0.00    -0.531 OA
ENDBRANCH   5  25
TORSDOF 4
ENDMDL
MODEL 2
REMARK VINA RESULT:      -7.8      9.382     12.457
REMARK  4 active torsions:
REMARK  status: ('A' for Active; 'I' for Inactive)
REMARK    1  A    between atoms: C5_14  and  N1_6 
REMARK       I    between atoms: C6_15  and  N2_7 
REMARK    2  A    between atoms: C10_19  and  N3_8 
REMARK       I    between atoms: C6_15  and  N3_8 
REMARK    3  A    between atoms: C9_18  and  N3_8 
REMARK    4  A    between atoms: C8_17  and  N4_9 
ROOT
HETATM    1  O1  UNK     1      26.271  -6.554  38.254  1.00  0.00    -0.273 OA
HETATM    2  O3  UNK     1      26.522  -4.473  39.153  1.00  0.00    -0.257 OA
HETATM    3  C5  UNK     1      29.068  -6.533  37.622  1.00  0.00     0.083 A 
HETATM    4  C7  UNK     1      28.210  -7.694  37.273  1.00  0.00     0.027 A 
HETATM    5  C8  UNK     1      28.447  -5.513  38.238  1.00  0.00     0.205 A 
HETATM    6  C11 UNK     1      26.849  -7.662  37.602  1.00  0.00     0.092 A 
HETATM    7  C12 UNK     1      28.673  -8.849  36.621  1.00  0.00     0.017 A 
HETATM    8  C13 UNK     1      27.022  -5.441  38.594  1.00  0.00     0.324 A 
HETATM    9  C14 UNK     1      25.976  -8.715  37.310  1.00  0.00     0.038 A 
HETATM   10  C17 UNK     1      27.809  -9.912  36.320  1.00  0.00     0.001 A 
HETATM   11  C18 UNK     1      26.463  -9.844  36.664  1.00  0.00     0.003 A 
ENDROOT
BRANCH   3  12
HETATM   12  N1  UNK     1      30.391  -6.593  37.297  1.00  0.00    -0.375 N 
HETATM   13  C1  UNK     1      30.889  -6.235  35.966  1.00  0.00     0.143 C 
HETATM   14  C3  UNK     1      31.825  -7.326  35.438  1.00  0.00     0.147 C 
HETATM   15  N2  UNK     1      32.863  -7.640  36.432  1.00  0.00    -0.331 N 
HETATM   16  C4  UNK     1      32.339  -7.990  37.755  1.00  0.00     0.147 C 
HETATM   17  C6  UNK     1      34.226  -7.358  36.275  1.00  0.00     0.320 C 
HETATM   18  C2  UNK     1      31.429  -6.887  38.288  1.00  0.00     0.143 C 
HETATM   19  O2  UNK     1      34.951  -7.120  37.249  1.00  0.00    -0.247 OA
HETATM   20  N3  UNK     1      34.737  -7.366  34.969  1.00  0.00    -0.335 N 
BRANCH  20  21
HETATM   21  C10 UNK     1      34.409  -8.376  33.965  1.00  0.00     0.123 C 
HETATM   22  C16 UNK     1      34.138  -7.749  32.614  1.00  0.00     0.026 C 
ENDBRANCH  20  21
BRANCH  20  23
HETATM   23  C9  UNK     1      35.866  -6.504  34.645  1.00  0.00     0.123 C 
HETATM   24  C15 UNK     1      37.163  -7.286  34.596  1.00  0.00     0.026 C 
ENDBRANCH  20  23
ENDBRANCH   3  12
BRANCH   5  25
HETATM   25  N4  UNK     1      29.240  -4.378  38.588  1.00  0.00    -0.107 N 
HETATM   26  O4  UNK     1      29.674  -3.689  37.660  1.00  0.00    -0.531 OA
HETATM   27  O5  UNK     1      29.428  -4.176  39.794  1.00  0.00    -0.531 OA
ENDBRANCH   5  25
TORSDOF 4
ENDMDL
MODEL 3
REMARK VINA RESULT:      -7.8     12.882     15.090
REMARK  4 active torsions:
REMARK  status: ('A' for Active; 'I' for Inactive)
REMARK    1  A    between atoms: C5_14  and  N1_6 
REMARK       I    between atoms: C6_15  and  N2_7 
REMARK    2  A    between atoms: C10_19  and  N3_8 
REMARK       I    between atoms: C6_15  and  N3_8 
REMARK    3  A    between atoms: C9_18  and  N3_8 
REMARK    4  A    between atoms: C8_17  and  N4_9 
ROOT
HETATM    1  O1  UNK     1      27.756  -8.053  29.970  1.00  0.00    -0.273 OA
HETATM    2  O3  UNK     1      27.513  -9.800  28.524  1.00  0.00    -0.257 OA
HETATM    3  C5  UNK     1      30.565  -8.624  30.065  1.00  0.00     0.083 A 
HETATM    4  C7  UNK     1      29.979  -7.510  30.855  1.00  0.00     0.027 A 
HETATM    5  C8  UNK     1      29.696  -9.331  29.323  1.00  0.00     0.205 A 
HETATM    6  C11 UNK     1      28.602  -7.266  30.778  1.00  0.00     0.092 A 
HETATM    7  C12 UNK     1      30.722  -6.664  31.696  1.00  0.00     0.017 A 
HETATM    8  C13 UNK     1      28.247  -9.109  29.220  1.00  0.00     0.324 A 
HETATM    9  C14 UNK     1      27.976  -6.238  31.488  1.00  0.00     0.038 A 
HETATM   10  C17 UNK     1      30.107  -5.630  32.415  1.00  0.00     0.001 A 
HETATM   11  C18 UNK     1      28.736  -5.418  32.312  1.00  0.00     0.003 A 
ENDROOT
BRANCH   3  12
HETATM   12  N1  UNK     1      31.909  -8.835  30.154  1.00  0.00    -0.375 N 
HETATM   13  C1  UNK     1      32.495  -9.762  31.124  1.00  0.00     0.143 C 
HETATM   14  C3  UNK     1      33.650  -9.090  31.872  1.00  0.00     0.147 C 
HETATM   15  N2  UNK     1      34.600  -8.492  30.922  1.00  0.00    -0.331 N 
HETATM   16  C4  UNK     1      33.989  -7.572  29.960  1.00  0.00     0.147 C 
HETATM   17  C6  UNK     1      35.910  -8.946  30.716  1.00  0.00     0.320 C 
HETATM   18  C2  UNK     1      32.857  -8.257  29.198  1.00  0.00     0.143 C 
HETATM   19  O2  UNK     1      36.468  -8.824  29.618  1.00  0.00    -0.247 OA
HETATM   20  N3  UNK     1      36.565  -9.535  31.807  1.00  0.00    -0.335 N 
BRANCH  20  21
HETATM   21  C10 UNK     1      36.523  -9.009  33.171  1.00  0.00     0.123 C 
HETATM   22  C16 UNK     1      36.758  -7.513  33.196  1.00  0.00     0.026 C 
ENDBRANCH  20  21
BRANCH  20  23
HETATM   23  C9  UNK     1      37.571 -10.559  31.562  1.00  0.00     0.123 C 
HETATM   24  C15 UNK     1      38.733 -10.437  32.527  1.00  0.00     0.026 C 
ENDBRANCH  20  23
ENDBRANCH   3  12
BRANCH   5  25
HETATM   25  N4  UNK     1      30.222 -10.410  28.549  1.00  0.00    -0.107 N 
HETATM   26  O4  UNK     1      30.598 -10.148  27.402  1.00  0.00    -0.531 OA
HETATM   27  O5  UNK     1      30.260 -11.522  29.090  1.00  0.00    -0.531 OA
ENDBRANCH   5  25
TORSDOF 4
ENDMDL
MODEL 4
REMARK VINA RESULT:      -7.7      1.588      3.279
REMARK  4 active torsions:
REMARK  status: ('A' for Active; 'I' for Inactive)
REMARK    1  A    between atoms: C5_14  and  N1_6 
REMARK       I    between atoms: C6_15  and  N2_7 
REMARK    2  A    between atoms: C10_19  and  N3_8 
REMARK       I    between atoms: C6_15  and  N3_8 
REMARK    3  A    between atoms: C9_18  and  N3_8 
REMARK    4  A    between atoms: C8_17  and  N4_9 
ROOT
HETATM    1  O1  UNK     1      18.127   0.081  33.191  1.00  0.00    -0.273 OA
HETATM    2  O3  UNK     1      19.466  -0.361  31.398  1.00  0.00    -0.257 OA
HETATM    3  C5  UNK     1      19.489  -1.997  34.622  1.00  0.00     0.083 A 
HETATM    4  C7  UNK     1      18.386  -1.225  35.251  1.00  0.00     0.027 A 
HETATM    5  C8  UNK     1      19.789  -1.659  33.356  1.00  0.00     0.205 A 
HETATM    6  C11 UNK     1      17.749  -0.218  34.515  1.00  0.00     0.092 A 
HETATM    7  C12 UNK     1      17.922  -1.437  36.561  1.00  0.00     0.017 A 
HETATM    8  C13 UNK     1      19.141  -0.613  32.552  1.00  0.00     0.324 A 
HETATM    9  C14 UNK     1      16.706   0.553  35.036  1.00  0.00     0.038 A 
HETATM   10  C17 UNK     1      16.877  -0.673  37.095  1.00  0.00     0.001 A 
HETATM   11  C18 UNK     1      16.269   0.321  36.334  1.00  0.00     0.003 A 
ENDROOT
BRANCH   3  12
HETATM   12  N1  UNK     1      20.096  -2.968  35.363  1.00  0.00    -0.375 N 
HETATM   13  C1  UNK     1      19.885  -4.395  35.110  1.00  0.00     0.143 C 
HETATM   14  C3  UNK     1      19.557  -5.124  36.416  1.00  0.00     0.147 C 
HETATM   15  N2  UNK     1      20.560  -4.811  37.446  1.00  0.00    -0.331 N 
HETATM   16  C4  UNK     1      20.755  -3.377  37.677  1.00  0.00     0.147 C 
HETATM   17  C6  UNK     1      21.477  -5.731  37.969  1.00  0.00     0.320 C 
HETATM   18  C2  UNK     1      21.108  -2.662  36.376  1.00  0.00     0.143 C 
HETATM   19  O2  UNK     1      22.589  -5.372  38.375  1.00  0.00    -0.247 OA
HETATM   20  N3  UNK     1      21.080  -7.075  38.020  1.00  0.00    -0.335 N 
BRANCH  20  21
HETATM   21  C10 UNK     1      19.758  -7.525  38.452  1.00  0.00     0.123 C 
HETATM   22  C16 UNK     1      19.855  -8.709  39.392  1.00  0.00     0.026 C 
ENDBRANCH  20  21
BRANCH  20  23
HETATM   23  C9  UNK     1      22.092  -8.118  37.913  1.00  0.00     0.123 C 
HETATM   24  C15 UNK     1      22.191  -8.652  36.498  1.00  0.00     0.026 C 
ENDBRANCH  20  23
ENDBRANCH   3  12
BRANCH   5  25
HETATM   25  N4  UNK     1      20.843  -2.380  32.718  1.00  0.00    -0.107 N 
HETATM   26  O4  UNK     1      20.517  -3.230  31.884  1.00  0.00    -0.531 OA
HETATM   27  O5  UNK     1      22.000  -2.094  33.050  1.00  0.00    -0.531 OA
ENDBRANCH   5  25
TORSDOF 4
ENDMDL
MODEL 5
REMARK VINA RESULT:      -7.6     10.062     13.084
REMARK  4 active torsions:
REMARK  status: ('A' for Active; 'I' for Inactive)
REMARK    1  A    between atoms: C5_14  and  N1_6 
REMARK       I    between atoms: C6_15  and  N2_7 
REMARK    2  A    between atoms: C10_19  and  N3_8 
REMARK       I    between atoms: C6_15  and  N3_8 
REMARK    3  A    between atoms: C9_18  and  N3_8 
REMARK    4  A    between atoms: C8_17  and  N4_9 
ROOT
HETATM    1  O1  UNK     1      27.929  -5.744  39.179  1.00  0.00    -0.273 OA
HETATM    2  O3  UNK     1      29.162  -3.940  39.833  1.00  0.00    -0.257 OA
HETATM    3  C5  UNK     1      29.910  -6.272  37.174  1.00  0.00     0.083 A 
HETATM    4  C7  UNK     1      28.710  -7.137  37.317  1.00  0.00     0.027 A 
HETATM    5  C8  UNK     1      29.992  -5.243  38.035  1.00  0.00     0.205 A 
HETATM    6  C11 UNK     1      27.768  -6.842  38.311  1.00  0.00     0.092 A 
HETATM    7  C12 UNK     1      28.442  -8.254  36.507  1.00  0.00     0.017 A 
HETATM    8  C13 UNK     1      29.023  -4.900  39.085  1.00  0.00     0.324 A 
HETATM    9  C14 UNK     1      26.615  -7.607  38.509  1.00  0.00     0.038 A 
HETATM   10  C17 UNK     1      27.290  -9.029  36.694  1.00  0.00     0.001 A 
HETATM   11  C18 UNK     1      26.377  -8.706  37.694  1.00  0.00     0.003 A 
ENDROOT
BRANCH   3  12
HETATM   12  N1  UNK     1      30.815  -6.586  36.203  1.00  0.00    -0.375 N 
HETATM   13  C1  UNK     1      31.936  -7.498  36.440  1.00  0.00     0.143 C 
HETATM   14  C3  UNK     1      33.242  -6.877  35.935  1.00  0.00     0.147 C 
HETATM   15  N2  UNK     1      33.090  -6.416  34.547  1.00  0.00    -0.331 N 
HETATM   16  C4  UNK     1      31.960  -5.508  34.336  1.00  0.00     0.147 C 
HETATM   17  C6  UNK     1      33.741  -6.985  33.445  1.00  0.00     0.320 C 
HETATM   18  C2  UNK     1      30.658  -6.144  34.815  1.00  0.00     0.143 C 
HETATM   19  O2  UNK     1      33.229  -6.975  32.318  1.00  0.00    -0.247 OA
HETATM   20  N3  UNK     1      35.001  -7.559  33.669  1.00  0.00    -0.335 N 
BRANCH  20  21
HETATM   21  C10 UNK     1      36.045  -6.951  34.492  1.00  0.00     0.123 C 
HETATM   22  C16 UNK     1      37.404  -7.552  34.198  1.00  0.00     0.026 C 
ENDBRANCH  20  21
BRANCH  20  23
HETATM   23  C9  UNK     1      35.431  -8.673  32.836  1.00  0.00     0.123 C 
HETATM   24  C15 UNK     1      34.762  -9.968  33.254  1.00  0.00     0.026 C 
ENDBRANCH  20  23
ENDBRANCH   3  12
BRANCH   5  25
HETATM   25  N4  UNK     1      31.132  -4.389  37.928  1.00  0.00    -0.107 N 
HETATM   26  O4  UNK     1      31.028  -3.404  37.191  1.00  0.00    -0.531 OA
HETATM   27  O5  UNK     1      32.132  -4.705  38.583  1.00  0.00    -0.531 OA
ENDBRANCH   5  25
TORSDOF 4
ENDMDL
MODEL 6
REMARK VINA RESULT:      -7.6     12.096     14.525
REMARK  4 active torsions:
REMARK  status: ('A' for Active; 'I' for Inactive)
REMARK    1  A    between atoms: C5_14  and  N1_6 
REMARK       I    between atoms: C6_15  and  N2_7 
REMARK    2  A    between atoms: C10_19  and  N3_8 
REMARK       I    between atoms: C6_15  and  N3_8 
REMARK    3  A    between atoms: C9_18  and  N3_8 
REMARK    4  A    between atoms: C8_17  and  N4_9 
ROOT
HETATM    1  O1  UNK     1      28.960  -9.089  28.526  1.00  0.00    -0.273 OA
HETATM    2  O3  UNK     1      30.636 -10.238  27.489  1.00  0.00    -0.257 OA
HETATM    3  C5  UNK     1      30.762  -8.575  30.697  1.00  0.00     0.083 A 
HETATM    4  C7  UNK     1      29.363  -8.075  30.724  1.00  0.00     0.027 A 
HETATM    5  C8  UNK     1      31.110  -9.276  29.604  1.00  0.00     0.205 A 
HETATM    6  C11 UNK     1      28.518  -8.348  29.641  1.00  0.00     0.092 A 
HETATM    7  C12 UNK     1      28.812  -7.332  31.781  1.00  0.00     0.017 A 
HETATM    8  C13 UNK     1      30.251  -9.587  28.453  1.00  0.00     0.324 A 
HETATM    9  C14 UNK     1      27.191  -7.912  29.590  1.00  0.00     0.038 A 
HETATM   10  C17 UNK     1      27.482  -6.889  31.744  1.00  0.00     0.001 A 
HETATM   11  C18 UNK     1      26.673  -7.179  30.650  1.00  0.00     0.003 A 
ENDROOT
BRANCH   3  12
HETATM   12  N1  UNK     1      31.566  -8.289  31.761  1.00  0.00    -0.375 N 
HETATM   13  C1  UNK     1      32.407  -7.091  31.809  1.00  0.00     0.143 C 
HETATM   14  C3  UNK     1      33.836  -7.460  32.217  1.00  0.00     0.147 C 
HETATM   15  N2  UNK     1      33.828  -8.271  33.444  1.00  0.00    -0.331 N 
HETATM   16  C4  UNK     1      32.977  -9.461  33.371  1.00  0.00     0.147 C 
HETATM   17  C6  UNK     1      34.322  -7.843  34.683  1.00  0.00     0.320 C 
HETATM   18  C2  UNK     1      31.548  -9.083  32.992  1.00  0.00     0.143 C 
HETATM   19  O2  UNK     1      33.845  -8.260  35.746  1.00  0.00    -0.247 OA
HETATM   20  N3  UNK     1      35.386  -6.929  34.669  1.00  0.00    -0.335 N 
BRANCH  20  21
HETATM   21  C10 UNK     1      36.541  -7.027  33.780  1.00  0.00     0.123 C 
HETATM   22  C16 UNK     1      37.295  -8.324  33.991  1.00  0.00     0.026 C 
ENDBRANCH  20  21
BRANCH  20  23
HETATM   23  C9  UNK     1      35.520  -5.981  35.767  1.00  0.00     0.123 C 
HETATM   24  C15 UNK     1      34.615  -4.780  35.576  1.00  0.00     0.026 C 
ENDBRANCH  20  23
ENDBRANCH   3  12
BRANCH   5  25
HETATM   25  N4  UNK     1      32.447  -9.773  29.543  1.00  0.00    -0.107 N 
HETATM   26  O4  UNK     1      32.666 -10.863  30.081  1.00  0.00    -0.531 OA
HETATM   27  O5  UNK     1      33.280  -9.073  28.956  1.00  0.00    -0.531 OA
ENDBRANCH   5  25
TORSDOF 4
ENDMDL
MODEL 7
REMARK VINA RESULT:      -7.5     11.929     14.306
REMARK  4 active torsions:
REMARK  status: ('A' for Active; 'I' for Inactive)
REMARK    1  A    between atoms: C5_14  and  N1_6 
REMARK       I    between atoms: C6_15  and  N2_7 
REMARK    2  A    between atoms: C10_19  and  N3_8 
REMARK       I    between atoms: C6_15  and  N3_8 
REMARK    3  A    between atoms: C9_18  and  N3_8 
REMARK    4  A    between atoms: C8_17  and  N4_9 
ROOT
HETATM    1  O1  UNK     1      31.233 -11.079  29.062  1.00  0.00    -0.273 OA
HETATM    2  O3  UNK     1      33.328 -11.822  29.576  1.00  0.00    -0.257 OA
HETATM    3  C5  UNK     1      31.264  -9.554  31.490  1.00  0.00     0.083 A 
HETATM    4  C7  UNK     1      30.084  -9.538  30.586  1.00  0.00     0.027 A 
HETATM    5  C8  UNK     1      32.291 -10.324  31.094  1.00  0.00     0.205 A 
HETATM    6  C11 UNK     1      30.113 -10.298  29.410  1.00  0.00     0.092 A 
HETATM    7  C12 UNK     1      28.913  -8.802  30.832  1.00  0.00     0.017 A 
HETATM    8  C13 UNK     1      32.356 -11.138  29.872  1.00  0.00     0.324 A 
HETATM    9  C14 UNK     1      29.046 -10.335  28.508  1.00  0.00     0.038 A 
HETATM   10  C17 UNK     1      27.834  -8.831  29.937  1.00  0.00     0.001 A 
HETATM   11  C18 UNK     1      27.901  -9.597  28.777  1.00  0.00     0.003 A 
ENDROOT
BRANCH   3  12
HETATM   12  N1  UNK     1      31.211  -8.800  32.625  1.00  0.00    -0.375 N 
HETATM   13  C1  UNK     1      31.646  -7.402  32.659  1.00  0.00     0.143 C 
HETATM   14  C3  UNK     1      32.584  -7.165  33.846  1.00  0.00     0.147 C 
HETATM   15  N2  UNK     1      31.979  -7.664  35.089  1.00  0.00    -0.331 N 
HETATM   16  C4  UNK     1      31.549  -9.063  35.028  1.00  0.00     0.147 C 
HETATM   17  C6  UNK     1      31.556  -6.852  36.150  1.00  0.00     0.320 C 
HETATM   18  C2  UNK     1      30.592  -9.286  33.861  1.00  0.00     0.143 C 
HETATM   19  O2  UNK     1      30.614  -7.185  36.881  1.00  0.00    -0.247 OA
HETATM   20  N3  UNK     1      32.248  -5.649  36.353  1.00  0.00    -0.335 N 
BRANCH  20  21
HETATM   21  C10 UNK     1      33.703  -5.520  36.294  1.00  0.00     0.123 C 
HETATM   22  C16 UNK     1      34.373  -6.258  37.434  1.00  0.00     0.026 C 
ENDBRANCH  20  21
BRANCH  20  23
HETATM   23  C9  UNK     1      31.542  -4.513  36.929  1.00  0.00     0.123 C 
HETATM   24  C15 UNK     1      32.127  -3.198  36.455  1.00  0.00     0.026 C 
ENDBRANCH  20  23
ENDBRANCH   3  12
BRANCH   5  25
HETATM   25  N4  UNK     1      33.443 -10.365  31.938  1.00  0.00    -0.107 N 
HETATM   26  O4  UNK     1      33.455 -11.218  32.830  1.00  0.00    -0.531 OA
HETATM   27  O5  UNK     1      34.336  -9.542  31.706  1.00  0.00    -0.531 OA
ENDBRANCH   5  25
TORSDOF 4
ENDMDL
MODEL 8
REMARK VINA RESULT:      -7.5      9.881     12.528
REMARK  4 active torsions:
REMARK  status: ('A' for Active; 'I' for Inactive)
REMARK    1  A    between atoms: C5_14  and  N1_6 
REMARK       I    between atoms: C6_15  and  N2_7 
REMARK    2  A    between atoms: C10_19  and  N3_8 
REMARK       I    between atoms: C6_15  and  N3_8 
REMARK    3  A    between atoms: C9_18  and  N3_8 
REMARK    4  A    between atoms: C8_17  and  N4_9 
ROOT
HETATM    1  O1  UNK     1      28.077  -5.615  39.308  1.00  0.00    -0.273 OA
HETATM    2  O3  UNK     1      29.524  -3.940  39.859  1.00  0.00    -0.257 OA
HETATM    3  C5  UNK     1      29.828  -6.312  37.147  1.00  0.00     0.083 A 
HETATM    4  C7  UNK     1      28.567  -7.060  37.388  1.00  0.00     0.027 A 
HETATM    5  C8  UNK     1      30.077  -5.302  37.997  1.00  0.00     0.205 A 
HETATM    6  C11 UNK     1      27.743  -6.687  38.456  1.00  0.00     0.092 A 
HETATM    7  C12 UNK     1      28.130  -8.141  36.602  1.00  0.00     0.017 A 
HETATM    8  C13 UNK     1      29.235  -4.877  39.125  1.00  0.00     0.324 A 
HETATM    9  C14 UNK     1      26.543  -7.342  38.749  1.00  0.00     0.038 A 
HETATM   10  C17 UNK     1      26.928  -8.806  36.884  1.00  0.00     0.001 A 
HETATM   11  C18 UNK     1      26.136  -8.406  37.956  1.00  0.00     0.003 A 
ENDROOT
BRANCH   3  12
HETATM   12  N1  UNK     1      30.615  -6.701  36.103  1.00  0.00    -0.375 N 
HETATM   13  C1  UNK     1      30.479  -6.129  34.762  1.00  0.00     0.143 C 
HETATM   14  C3  UNK     1      30.415  -7.243  33.713  1.00  0.00     0.147 C 
HETATM   15  N2  UNK     1      31.536  -8.178  33.886  1.00  0.00    -0.331 N 
HETATM   16  C4  UNK     1      31.653  -8.733  35.237  1.00  0.00     0.147 C 
HETATM   17  C6  UNK     1      32.592  -8.330  32.977  1.00  0.00     0.320 C 
HETATM   18  C2  UNK     1      31.745  -7.617  36.274  1.00  0.00     0.143 C 
HETATM   19  O2  UNK     1      33.722  -8.664  33.354  1.00  0.00    -0.247 OA
HETATM   20  N3  UNK     1      32.313  -8.095  31.623  1.00  0.00    -0.335 N 
BRANCH  20  21
HETATM   21  C10 UNK     1      31.113  -8.570  30.938  1.00  0.00     0.123 C 
HETATM   22  C16 UNK     1      31.095 -10.081  30.834  1.00  0.00     0.026 C 
ENDBRANCH  20  21
BRANCH  20  23
HETATM   23  C9  UNK     1      33.374  -7.600  30.757  1.00  0.00     0.123 C 
HETATM   24  C15 UNK     1      32.817  -7.043  29.462  1.00  0.00     0.026 C 
ENDBRANCH  20  23
ENDBRANCH   3  12
BRANCH   5  25
HETATM   25  N4  UNK     1      31.280  -4.558  37.797  1.00  0.00    -0.107 N 
HETATM   26  O4  UNK     1      31.219  -3.587  37.037  1.00  0.00    -0.531 OA
HETATM   27  O5  UNK     1      32.286  -4.946  38.401  1.00  0.00    -0.531 OA
ENDBRANCH   5  25
TORSDOF 4
ENDMDL
MODEL 9
REMARK VINA RESULT:      -7.4      9.660     12.243
REMARK  4 active torsions:
REMARK  status: ('A' for Active; 'I' for Inactive)
REMARK    1  A    between atoms: C5_14  and  N1_6 
REMARK       I    between atoms: C6_15  and  N2_7 
REMARK    2  A    between atoms: C10_19  and  N3_8 
REMARK       I    between atoms: C6_15  and  N3_8 
REMARK    3  A    between atoms: C9_18  and  N3_8 
REMARK    4  A    between atoms: C8_17  and  N4_9 
ROOT
HETATM    1  O1  UNK     1      30.734  -5.899  38.129  1.00  0.00    -0.273 OA
HETATM    2  O3  UNK     1      29.043  -7.074  39.111  1.00  0.00    -0.257 OA
HETATM    3  C5  UNK     1      29.685  -6.674  35.576  1.00  0.00     0.083 A 
HETATM    4  C7  UNK     1      30.902  -5.829  35.683  1.00  0.00     0.027 A 
HETATM    5  C8  UNK     1      29.128  -7.044  36.742  1.00  0.00     0.205 A 
HETATM    6  C11 UNK     1      31.379  -5.474  36.951  1.00  0.00     0.092 A 
HETATM    7  C12 UNK     1      31.629  -5.351  34.580  1.00  0.00     0.017 A 
HETATM    8  C13 UNK     1      29.602  -6.695  38.089  1.00  0.00     0.324 A 
HETATM    9  C14 UNK     1      32.516  -4.681  37.135  1.00  0.00     0.038 A 
HETATM   10  C17 UNK     1      32.772  -4.557  34.750  1.00  0.00     0.001 A 
HETATM   11  C18 UNK     1      33.215  -4.223  36.026  1.00  0.00     0.003 A 
ENDROOT
BRANCH   3  12
HETATM   12  N1  UNK     1      29.238  -7.000  34.329  1.00  0.00    -0.375 N 
HETATM   13  C1  UNK     1      29.590  -8.262  33.675  1.00  0.00     0.143 C 
HETATM   14  C3  UNK     1      30.079  -8.002  32.247  1.00  0.00     0.147 C 
HETATM   15  N2  UNK     1      29.116  -7.164  31.517  1.00  0.00    -0.331 N 
HETATM   16  C4  UNK     1      28.778  -5.910  32.194  1.00  0.00     0.147 C 
HETATM   17  C6  UNK     1      28.342  -7.602  30.434  1.00  0.00     0.320 C 
HETATM   18  C2  UNK     1      28.264  -6.178  33.606  1.00  0.00     0.143 C 
HETATM   19  O2  UNK     1      27.225  -7.122  30.205  1.00  0.00    -0.247 OA
HETATM   20  N3  UNK     1      28.889  -8.601  29.616  1.00  0.00    -0.335 N 
BRANCH  20  21
HETATM   21  C10 UNK     1      30.277  -8.619  29.160  1.00  0.00     0.123 C 
HETATM   22  C16 UNK     1      30.693  -7.278  28.593  1.00  0.00     0.026 C 
ENDBRANCH  20  21
BRANCH  20  23
HETATM   23  C9  UNK     1      27.995  -9.530  28.938  1.00  0.00     0.123 C 
HETATM   24  C15 UNK     1      28.768 -10.604  28.200  1.00  0.00     0.026 C 
ENDBRANCH  20  23
ENDBRANCH   3  12
BRANCH   5  25
HETATM   25  N4  UNK     1      27.955  -7.857  36.679  1.00  0.00    -0.107 N 
HETATM   26  O4  UNK     1      28.122  -9.081  36.657  1.00  0.00    -0.531 OA
HETATM   27  O5  UNK     1      26.867  -7.271  36.651  1.00  0.00    -0.531 OA
ENDBRANCH   5  25
TORSDOF 4
ENDMDL
MODEL 10
REMARK VINA RESULT:      -7.4     10.025     12.482
REMARK  4 active torsions:
REMARK  status: ('A' for Active; 'I' for Inactive)
REMARK    1  A    between atoms: C5_14  and  N1_6 
REMARK       I    between atoms: C6_15  and  N2_7 
REMARK    2  A    between atoms: C10_19  and  N3_8 
REMARK       I    between atoms: C6_15  and  N3_8 
REMARK    3  A    between atoms: C9_18  and  N3_8 
REMARK    4  A    between atoms: C8_17  and  N4_9 
ROOT
HETATM    1  O1  UNK     1      30.078  -5.873  39.044  1.00  0.00    -0.273 OA
HETATM    2  O3  UNK     1      32.049  -4.779  38.693  1.00  0.00    -0.257 OA
HETATM    3  C5  UNK     1      30.211  -6.817  36.339  1.00  0.00     0.083 A 
HETATM    4  C7  UNK     1      29.074  -7.176  37.225  1.00  0.00     0.027 A 
HETATM    5  C8  UNK     1      31.151  -6.028  36.889  1.00  0.00     0.205 A 
HETATM    6  C11 UNK     1      29.050  -6.694  38.539  1.00  0.00     0.092 A 
HETATM    7  C12 UNK     1      27.992  -7.983  36.830  1.00  0.00     0.017 A 
HETATM    8  C13 UNK     1      31.158  -5.499  38.260  1.00  0.00     0.324 A 
HETATM    9  C14 UNK     1      28.017  -6.988  39.433  1.00  0.00     0.038 A 
HETATM   10  C17 UNK     1      26.949  -8.285  37.716  1.00  0.00     0.001 A 
HETATM   11  C18 UNK     1      26.961  -7.788  39.015  1.00  0.00     0.003 A 
ENDROOT
BRANCH   3  12
HETATM   12  N1  UNK     1      30.213  -7.306  35.066  1.00  0.00    -0.375 N 
HETATM   13  C1  UNK     1      29.636  -6.566  33.941  1.00  0.00     0.143 C 
HETATM   14  C3  UNK     1      28.707  -7.473  33.129  1.00  0.00     0.147 C 
HETATM   15  N2  UNK     1      29.392  -8.724  32.771  1.00  0.00    -0.331 N 
HETATM   16  C4  UNK     1      29.963  -9.443  33.913  1.00  0.00     0.147 C 
HETATM   17  C6  UNK     1      29.754  -9.088  31.468  1.00  0.00     0.320 C 
HETATM   18  C2  UNK     1      30.910  -8.542  34.702  1.00  0.00     0.143 C 
HETATM   19  O2  UNK     1      30.742  -9.800  31.249  1.00  0.00    -0.247 OA
HETATM   20  N3  UNK     1      28.945  -8.620  30.422  1.00  0.00    -0.335 N 
BRANCH  20  21
HETATM   21  C10 UNK     1      27.484  -8.614  30.455  1.00  0.00     0.123 C 
HETATM   22  C16 UNK     1      26.928  -7.234  30.173  1.00  0.00     0.026 C 
ENDBRANCH  20  21
BRANCH  20  23
HETATM   23  C9  UNK     1      29.543  -8.381  29.116  1.00  0.00     0.123 C 
HETATM   24  C15 UNK     1      29.317  -9.552  28.180  1.00  0.00     0.026 C 
ENDBRANCH  20  23
ENDBRANCH   3  12
BRANCH   5  25
HETATM   25  N4  UNK     1      32.260  -5.661  36.068  1.00  0.00    -0.107 N 
HETATM   26  O4  UNK     1      33.253  -6.394  36.105  1.00  0.00    -0.531 OA
HETATM   27  O5  UNK     1      32.138  -4.638  35.385  1.00  0.00    -0.531 OA
ENDBRANCH   5  25
TORSDOF 4
ENDMDL
