MODEL 1
REMARK VINA RESULT:     -10.2      0.000      0.000
REMARK  3 active torsions:
REMARK  status: ('A' for Active; 'I' for Inactive)
REMARK    1  A    between atoms: C9_16  and  O2_2 
REMARK       I    between atoms: C10_17  and  N1_5 
REMARK    2  A    between atoms: C4_11  and  N1_5 
REMARK    3  A    between atoms: C10_17  and  C5_12 
ROOT
HETATM    1  O3  UNK     1      21.580  -4.568  37.127  1.00  0.00    -0.267 OA
HETATM    2  N1  UNK     1      19.353  -5.310  37.317  1.00  0.00    -0.323 N 
HETATM    3  C10 UNK     1      20.366  -4.410  37.014  1.00  0.00     0.262 C 
HETATM    4  H3  UNK     1      18.393  -5.013  37.157  1.00  0.00     0.169 HD
ENDROOT
BRANCH   3   5
HETATM    5  C5  UNK     1      19.839  -3.139  36.501  1.00  0.00     0.108 A 
HETATM    6  C14 UNK     1      20.048  -2.710  35.100  1.00  0.00     0.304 A 
HETATM    7  O1  UNK     1      19.500  -1.485  34.733  1.00  0.00    -0.271 OA
HETATM    8  O4  UNK     1      20.673  -3.396  34.298  1.00  0.00    -0.259 OA
HETATM    9  C2  UNK     1      18.781  -0.688  35.646  1.00  0.00     0.123 A 
HETATM   10  C1  UNK     1      18.596  -1.111  36.959  1.00  0.00     0.002 A 
HETATM   11  C9  UNK     1      18.269   0.523  35.186  1.00  0.00     0.102 A 
HETATM   12  C7  UNK     1      19.156  -2.387  37.373  1.00  0.00     0.037 A 
HETATM   13  C13 UNK     1      17.878  -0.293  37.835  1.00  0.00     0.014 A 
HETATM   14  C17 UNK     1      17.358   0.925  37.388  1.00  0.00     0.004 A 
HETATM   15  C16 UNK     1      17.554   1.332  36.067  1.00  0.00     0.040 A 
BRANCH  11  16
HETATM   16  O2  UNK     1      18.456   0.923  33.900  1.00  0.00    -0.353 OA
HETATM   17  C18 UNK     1      18.143   2.280  33.588  1.00  0.00     0.210 C 
ENDBRANCH  11  16
ENDBRANCH   3   5
BRANCH   2  18
HETATM   18  C4  UNK     1      19.491  -6.624  37.828  1.00  0.00     0.035 A 
HETATM   19  C11 UNK     1      19.898  -6.810  39.151  1.00  0.00     0.032 A 
HETATM   20  C12 UNK     1      20.044  -8.091  39.690  1.00  0.00     0.034 A 
HETATM   21  C6  UNK     1      19.765  -9.169  38.847  1.00  0.00     0.062 A 
HETATM   22  C3  UNK     1      19.359  -9.013  37.527  1.00  0.00     0.013 A 
HETATM   23  N2  UNK     1      19.807 -10.522  39.053  1.00  0.00    -0.278 N 
HETATM   24  C15 UNK     1      19.191 -10.333  37.054  1.00  0.00     0.152 A 
HETATM   25  C8  UNK     1      19.216  -7.719  36.999  1.00  0.00     0.044 A 
HETATM   26  N3  UNK     1      19.463 -11.254  37.981  1.00  0.00    -0.186 NA
HETATM   27  H10 UNK     1      20.063 -11.010  39.904  1.00  0.00     0.189 HD
ENDBRANCH   2  18
TORSDOF 3
ENDMDL
MODEL 2
REMARK VINA RESULT:      -9.9      8.734     11.114
REMARK  3 active torsions:
REMARK  status: ('A' for Active; 'I' for Inactive)
REMARK    1  A    between atoms: C9_16  and  O2_2 
REMARK       I    between atoms: C10_17  and  N1_5 
REMARK    2  A    between atoms: C4_11  and  N1_5 
REMARK    3  A    between atoms: C10_17  and  C5_12 
ROOT
HETATM    1  O3  UNK     1      17.928   3.331  33.102  1.00  0.00    -0.267 OA
HETATM    2  N1  UNK     1      18.490   4.017  30.921  1.00  0.00    -0.323 N 
HETATM    3  C10 UNK     1      18.150   4.194  32.255  1.00  0.00     0.262 C 
HETATM    4  H3  UNK     1      18.643   4.850  30.357  1.00  0.00     0.169 HD
ENDROOT
BRANCH   3   5
HETATM    5  C5  UNK     1      18.064   5.613  32.619  1.00  0.00     0.108 A 
HETATM    6  C14 UNK     1      16.828   6.403  32.420  1.00  0.00     0.304 A 
HETATM    7  O1  UNK     1      16.872   7.739  32.806  1.00  0.00    -0.271 OA
HETATM    8  O4  UNK     1      15.814   5.909  31.938  1.00  0.00    -0.259 OA
HETATM    9  C2  UNK     1      18.031   8.317  33.360  1.00  0.00     0.123 A 
HETATM   10  C1  UNK     1      19.182   7.556  33.539  1.00  0.00     0.002 A 
HETATM   11  C9  UNK     1      17.978   9.662  33.716  1.00  0.00     0.102 A 
HETATM   12  C7  UNK     1      19.169   6.156  33.146  1.00  0.00     0.037 A 
HETATM   13  C13 UNK     1      20.313   8.164  34.090  1.00  0.00     0.014 A 
HETATM   14  C17 UNK     1      20.274   9.514  34.453  1.00  0.00     0.004 A 
HETATM   15  C16 UNK     1      19.110  10.261  34.266  1.00  0.00     0.040 A 
BRANCH  11  16
HETATM   16  O2  UNK     1      16.846  10.394  33.537  1.00  0.00    -0.353 OA
HETATM   17  C18 UNK     1      16.702  11.575  34.325  1.00  0.00     0.210 C 
ENDBRANCH  11  16
ENDBRANCH   3   5
BRANCH   2  18
HETATM   18  C4  UNK     1      18.662   2.793  30.229  1.00  0.00     0.035 A 
HETATM   19  C11 UNK     1      17.957   2.565  29.045  1.00  0.00     0.032 A 
HETATM   20  C12 UNK     1      18.101   1.370  28.334  1.00  0.00     0.034 A 
HETATM   21  C6  UNK     1      18.978   0.420  28.863  1.00  0.00     0.062 A 
HETATM   22  C3  UNK     1      19.692   0.621  30.039  1.00  0.00     0.013 A 
HETATM   23  N2  UNK     1      19.342  -0.826  28.428  1.00  0.00    -0.278 N 
HETATM   24  C15 UNK     1      20.440  -0.566  30.200  1.00  0.00     0.152 A 
HETATM   25  C8  UNK     1      19.537   1.827  30.742  1.00  0.00     0.044 A 
HETATM   26  N3  UNK     1      20.229  -1.449  29.222  1.00  0.00    -0.186 NA
HETATM   27  H10 UNK     1      19.021  -1.308  27.598  1.00  0.00     0.189 HD
ENDBRANCH   2  18
TORSDOF 3
ENDMDL
MODEL 3
REMARK VINA RESULT:      -9.8      8.782     11.039
REMARK  3 active torsions:
REMARK  status: ('A' for Active; 'I' for Inactive)
REMARK    1  A    between atoms: C9_16  and  O2_2 
REMARK       I    between atoms: C10_17  and  N1_5 
REMARK    2  A    between atoms: C4_11  and  N1_5 
REMARK    3  A    between atoms: C10_17  and  C5_12 
ROOT
HETATM    1  O3  UNK     1      17.904   3.270  33.066  1.00  0.00    -0.267 OA
HETATM    2  N1  UNK     1      18.469   3.981  30.893  1.00  0.00    -0.323 N 
HETATM    3  C10 UNK     1      18.121   4.143  32.227  1.00  0.00     0.262 C 
HETATM    4  H3  UNK     1      18.615   4.821  30.337  1.00  0.00     0.169 HD
ENDROOT
BRANCH   3   5
HETATM    5  C5  UNK     1      18.020   5.558  32.603  1.00  0.00     0.108 A 
HETATM    6  C14 UNK     1      19.187   6.468  32.561  1.00  0.00     0.304 A 
HETATM    7  O1  UNK     1      18.964   7.788  32.941  1.00  0.00    -0.271 OA
HETATM    8  O4  UNK     1      20.297   6.082  32.211  1.00  0.00    -0.259 OA
HETATM    9  C2  UNK     1      17.694   8.241  33.346  1.00  0.00     0.123 A 
HETATM   10  C1  UNK     1      16.610   7.370  33.378  1.00  0.00     0.002 A 
HETATM   11  C9  UNK     1      17.569   9.581  33.709  1.00  0.00     0.102 A 
HETATM   12  C7  UNK     1      16.810   5.983  32.986  1.00  0.00     0.037 A 
HETATM   13  C13 UNK     1      15.366   7.856  33.787  1.00  0.00     0.014 A 
HETATM   14  C17 UNK     1      15.225   9.198  34.153  1.00  0.00     0.004 A 
HETATM   15  C16 UNK     1      16.324  10.057  34.115  1.00  0.00     0.040 A 
BRANCH  11  16
HETATM   16  O2  UNK     1      18.637  10.422  33.672  1.00  0.00    -0.353 OA
HETATM   17  C18 UNK     1      18.409  11.780  34.050  1.00  0.00     0.210 C 
ENDBRANCH  11  16
ENDBRANCH   3   5
BRANCH   2  18
HETATM   18  C4  UNK     1      18.655   2.765  30.191  1.00  0.00     0.035 A 
HETATM   19  C11 UNK     1      17.935   2.529  29.017  1.00  0.00     0.032 A 
HETATM   20  C12 UNK     1      18.093   1.341  28.297  1.00  0.00     0.034 A 
HETATM   21  C6  UNK     1      18.999   0.407  28.806  1.00  0.00     0.062 A 
HETATM   22  C3  UNK     1      19.727   0.616  29.971  1.00  0.00     0.013 A 
HETATM   23  N2  UNK     1      19.382  -0.828  28.358  1.00  0.00    -0.278 N 
HETATM   24  C15 UNK     1      20.503  -0.556  30.114  1.00  0.00     0.152 A 
HETATM   25  C8  UNK     1      19.559   1.815  30.684  1.00  0.00     0.044 A 
HETATM   26  N3  UNK     1      20.294  -1.437  29.133  1.00  0.00    -0.186 NA
HETATM   27  H10 UNK     1      19.057  -1.313  27.530  1.00  0.00     0.189 HD
ENDBRANCH   2  18
TORSDOF 3
ENDMDL
MODEL 4
REMARK VINA RESULT:      -9.6      7.312     12.655
REMARK  3 active torsions:
REMARK  status: ('A' for Active; 'I' for Inactive)
REMARK    1  A    between atoms: C9_16  and  O2_2 
REMARK       I    between atoms: C10_17  and  N1_5 
REMARK    2  A    between atoms: C4_11  and  N1_5 
REMARK    3  A    between atoms: C10_17  and  C5_12 
ROOT
HETATM    1  O3  UNK     1      18.605   4.913  30.201  1.00  0.00    -0.267 OA
HETATM    2  N1  UNK     1      17.613   4.783  32.333  1.00  0.00    -0.323 N 
HETATM    3  C10 UNK     1      18.282   4.300  31.216  1.00  0.00     0.262 C 
HETATM    4  H3  UNK     1      17.428   4.131  33.092  1.00  0.00     0.169 HD
ENDROOT
BRANCH   3   5
HETATM    5  C5  UNK     1      18.609   2.874  31.343  1.00  0.00     0.108 A 
HETATM    6  C14 UNK     1      18.400   2.129  32.604  1.00  0.00     0.304 A 
HETATM    7  O1  UNK     1      18.748   0.781  32.598  1.00  0.00    -0.271 OA
HETATM    8  O4  UNK     1      17.945   2.667  33.608  1.00  0.00    -0.259 OA
HETATM    9  C2  UNK     1      19.272   0.153  31.452  1.00  0.00     0.123 A 
HETATM   10  C1  UNK     1      19.459   0.872  30.276  1.00  0.00     0.002 A 
HETATM   11  C9  UNK     1      19.590  -1.201  31.542  1.00  0.00     0.102 A 
HETATM   12  C7  UNK     1      19.105   2.282  30.249  1.00  0.00     0.037 A 
HETATM   13  C13 UNK     1      19.982   0.215  29.160  1.00  0.00     0.014 A 
HETATM   14  C17 UNK     1      20.306  -1.144  29.235  1.00  0.00     0.004 A 
HETATM   15  C16 UNK     1      20.111  -1.849  30.424  1.00  0.00     0.040 A 
BRANCH  11  16
HETATM   16  O2  UNK     1      19.400  -1.892  32.698  1.00  0.00    -0.353 OA
HETATM   17  C18 UNK     1      20.542  -2.528  33.271  1.00  0.00     0.210 C 
ENDBRANCH  11  16
ENDBRANCH   3   5
BRANCH   2  18
HETATM   18  C4  UNK     1      17.148   6.102  32.556  1.00  0.00     0.035 A 
HETATM   19  C11 UNK     1      15.831   6.433  32.232  1.00  0.00     0.032 A 
HETATM   20  C12 UNK     1      15.336   7.724  32.440  1.00  0.00     0.034 A 
HETATM   21  C6  UNK     1      16.219   8.661  32.982  1.00  0.00     0.062 A 
HETATM   22  C3  UNK     1      17.535   8.359  33.313  1.00  0.00     0.013 A 
HETATM   23  N2  UNK     1      16.061   9.982  33.304  1.00  0.00    -0.278 N 
HETATM   24  C15 UNK     1      18.055   9.570  33.819  1.00  0.00     0.152 A 
HETATM   25  C8  UNK     1      18.017   7.057  33.100  1.00  0.00     0.044 A 
HETATM   26  N3  UNK     1      17.161  10.560  33.814  1.00  0.00    -0.186 NA
HETATM   27  H10 UNK     1      15.227  10.548  33.200  1.00  0.00     0.189 HD
ENDBRANCH   2  18
TORSDOF 3
ENDMDL
MODEL 5
REMARK VINA RESULT:      -9.2      2.879      8.517
REMARK  3 active torsions:
REMARK  status: ('A' for Active; 'I' for Inactive)
REMARK    1  A    between atoms: C9_16  and  O2_2 
REMARK       I    between atoms: C10_17  and  N1_5 
REMARK    2  A    between atoms: C4_11  and  N1_5 
REMARK    3  A    between atoms: C10_17  and  C5_12 
ROOT
HETATM    1  O3  UNK     1      21.303  -3.322  36.472  1.00  0.00    -0.267 OA
HETATM    2  N1  UNK     1      18.969  -3.329  36.779  1.00  0.00    -0.323 N 
HETATM    3  C10 UNK     1      20.231  -3.894  36.657  1.00  0.00     0.262 C 
HETATM    4  H3  UNK     1      18.183  -3.956  36.936  1.00  0.00     0.169 HD
ENDROOT
BRANCH   3   5
HETATM    5  C5  UNK     1      20.195  -5.357  36.777  1.00  0.00     0.108 A 
HETATM    6  C14 UNK     1      20.240  -6.244  35.593  1.00  0.00     0.304 A 
HETATM    7  O1  UNK     1      20.200  -7.613  35.837  1.00  0.00    -0.271 OA
HETATM    8  O4  UNK     1      20.307  -5.799  34.452  1.00  0.00    -0.259 OA
HETATM    9  C2  UNK     1      20.122  -8.135  37.143  1.00  0.00     0.123 A 
HETATM   10  C1  UNK     1      20.082  -7.283  38.242  1.00  0.00     0.002 A 
HETATM   11  C9  UNK     1      20.088  -9.520  37.287  1.00  0.00     0.102 A 
HETATM   12  C7  UNK     1      20.122  -5.846  38.021  1.00  0.00     0.037 A 
HETATM   13  C13 UNK     1      20.003  -7.838  39.522  1.00  0.00     0.014 A 
HETATM   14  C17 UNK     1      19.968  -9.226  39.682  1.00  0.00     0.004 A 
HETATM   15  C16 UNK     1      20.010 -10.065  38.567  1.00  0.00     0.040 A 
BRANCH  11  16
HETATM   16  O2  UNK     1      20.129 -10.341  36.203  1.00  0.00    -0.353 OA
HETATM   17  C18 UNK     1      21.397 -10.900  35.858  1.00  0.00     0.210 C 
ENDBRANCH  11  16
ENDBRANCH   3   5
BRANCH   2  18
HETATM   18  C4  UNK     1      18.628  -1.956  36.717  1.00  0.00     0.035 A 
HETATM   19  C11 UNK     1      18.121  -1.319  37.851  1.00  0.00     0.032 A 
HETATM   20  C12 UNK     1      17.774   0.036  37.828  1.00  0.00     0.034 A 
HETATM   21  C6  UNK     1      17.958   0.716  36.622  1.00  0.00     0.062 A 
HETATM   22  C3  UNK     1      18.461   0.107  35.478  1.00  0.00     0.013 A 
HETATM   23  N2  UNK     1      17.726   2.017  36.265  1.00  0.00    -0.278 N 
HETATM   24  C15 UNK     1      18.481   1.137  34.513  1.00  0.00     0.152 A 
HETATM   25  C8  UNK     1      18.806  -1.255  35.517  1.00  0.00     0.044 A 
HETATM   26  N3  UNK     1      18.034   2.301  34.989  1.00  0.00    -0.186 NA
HETATM   27  H10 UNK     1      17.357   2.760  36.846  1.00  0.00     0.189 HD
ENDBRANCH   2  18
TORSDOF 3
ENDMDL
MODEL 6
REMARK VINA RESULT:      -9.2      2.738      4.170
REMARK  3 active torsions:
REMARK  status: ('A' for Active; 'I' for Inactive)
REMARK    1  A    between atoms: C9_16  and  O2_2 
REMARK       I    between atoms: C10_17  and  N1_5 
REMARK    2  A    between atoms: C4_11  and  N1_5 
REMARK    3  A    between atoms: C10_17  and  C5_12 
ROOT
HETATM    1  O3  UNK     1      19.934  -2.115  36.766  1.00  0.00    -0.267 OA
HETATM    2  N1  UNK     1      19.649  -4.073  35.490  1.00  0.00    -0.323 N 
HETATM    3  C10 UNK     1      19.747  -2.705  35.704  1.00  0.00     0.262 C 
HETATM    4  H3  UNK     1      19.494  -4.393  34.537  1.00  0.00     0.169 HD
ENDROOT
BRANCH   3   5
HETATM    5  C5  UNK     1      19.598  -1.940  34.460  1.00  0.00     0.108 A 
HETATM    6  C14 UNK     1      18.835  -0.673  34.403  1.00  0.00     0.304 A 
HETATM    7  O1  UNK     1      18.767  -0.040  33.166  1.00  0.00    -0.271 OA
HETATM    8  O4  UNK     1      18.288  -0.201  35.394  1.00  0.00    -0.259 OA
HETATM    9  C2  UNK     1      19.391  -0.573  32.021  1.00  0.00     0.123 A 
HETATM   10  C1  UNK     1      20.104  -1.766  32.097  1.00  0.00     0.002 A 
HETATM   11  C9  UNK     1      19.268   0.133  30.827  1.00  0.00     0.102 A 
HETATM   12  C7  UNK     1      20.195  -2.451  33.377  1.00  0.00     0.037 A 
HETATM   13  C13 UNK     1      20.708  -2.264  30.941  1.00  0.00     0.014 A 
HETATM   14  C17 UNK     1      20.593  -1.566  29.734  1.00  0.00     0.004 A 
HETATM   15  C16 UNK     1      19.874  -0.371  29.678  1.00  0.00     0.040 A 
BRANCH  11  16
HETATM   16  O2  UNK     1      18.569   1.298  30.768  1.00  0.00    -0.353 OA
HETATM   17  C18 UNK     1      18.533   1.973  29.510  1.00  0.00     0.210 C 
ENDBRANCH  11  16
ENDBRANCH   3   5
BRANCH   2  18
HETATM   18  C4  UNK     1      19.744  -5.106  36.455  1.00  0.00     0.035 A 
HETATM   19  C11 UNK     1      18.656  -5.958  36.662  1.00  0.00     0.032 A 
HETATM   20  C12 UNK     1      18.714  -6.989  37.604  1.00  0.00     0.034 A 
HETATM   21  C6  UNK     1      19.903  -7.124  38.324  1.00  0.00     0.062 A 
HETATM   22  C3  UNK     1      21.000  -6.291  38.138  1.00  0.00     0.013 A 
HETATM   23  N2  UNK     1      20.283  -8.008  39.299  1.00  0.00    -0.278 N 
HETATM   24  C15 UNK     1      21.964  -6.773  39.051  1.00  0.00     0.152 A 
HETATM   25  C8  UNK     1      20.928  -5.260  37.187  1.00  0.00     0.044 A 
HETATM   26  N3  UNK     1      21.530  -7.817  39.759  1.00  0.00    -0.186 NA
HETATM   27  H10 UNK     1      19.737  -8.764  39.694  1.00  0.00     0.189 HD
ENDBRANCH   2  18
TORSDOF 3
ENDMDL
MODEL 7
REMARK VINA RESULT:      -9.1     19.393     22.434
REMARK  3 active torsions:
REMARK  status: ('A' for Active; 'I' for Inactive)
REMARK    1  A    between atoms: C9_16  and  O2_2 
REMARK       I    between atoms: C10_17  and  N1_5 
REMARK    2  A    between atoms: C4_11  and  N1_5 
REMARK    3  A    between atoms: C10_17  and  C5_12 
ROOT
HETATM    1  O3  UNK     1      16.919  -1.982  16.851  1.00  0.00    -0.267 OA
HETATM    2  N1  UNK     1      19.016  -0.984  16.463  1.00  0.00    -0.323 N 
HETATM    3  C10 UNK     1      17.977  -1.875  16.234  1.00  0.00     0.262 C 
HETATM    4  H3  UNK     1      19.825  -1.033  15.847  1.00  0.00     0.169 HD
ENDROOT
BRANCH   3   5
HETATM    5  C5  UNK     1      18.252  -2.765  15.098  1.00  0.00     0.108 A 
HETATM    6  C14 UNK     1      18.749  -2.252  13.801  1.00  0.00     0.304 A 
HETATM    7  O1  UNK     1      18.973  -3.195  12.802  1.00  0.00    -0.271 OA
HETATM    8  O4  UNK     1      18.954  -1.058  13.612  1.00  0.00    -0.259 OA
HETATM    9  C2  UNK     1      18.741  -4.569  13.009  1.00  0.00     0.123 A 
HETATM   10  C1  UNK     1      18.274  -5.029  14.236  1.00  0.00     0.002 A 
HETATM   11  C9  UNK     1      18.994  -5.436  11.949  1.00  0.00     0.102 A 
HETATM   12  C7  UNK     1      18.031  -4.069  15.302  1.00  0.00     0.037 A 
HETATM   13  C13 UNK     1      18.054  -6.398  14.404  1.00  0.00     0.014 A 
HETATM   14  C17 UNK     1      18.304  -7.281  13.349  1.00  0.00     0.004 A 
HETATM   15  C16 UNK     1      18.773  -6.800  12.124  1.00  0.00     0.040 A 
BRANCH  11  16
HETATM   16  O2  UNK     1      19.452  -4.973  10.755  1.00  0.00    -0.353 OA
HETATM   17  C18 UNK     1      18.499  -4.835   9.702  1.00  0.00     0.210 C 
ENDBRANCH  11  16
ENDBRANCH   3   5
BRANCH   2  18
HETATM   18  C4  UNK     1      19.094   0.012  17.467  1.00  0.00     0.035 A 
HETATM   19  C11 UNK     1      18.987   1.359  17.112  1.00  0.00     0.032 A 
HETATM   20  C12 UNK     1      19.058   2.369  18.075  1.00  0.00     0.034 A 
HETATM   21  C6  UNK     1      19.240   1.969  19.401  1.00  0.00     0.062 A 
HETATM   22  C3  UNK     1      19.349   0.637  19.782  1.00  0.00     0.013 A 
HETATM   23  N2  UNK     1      19.349   2.686  20.562  1.00  0.00    -0.278 N 
HETATM   24  C15 UNK     1      19.520   0.686  21.183  1.00  0.00     0.152 A 
HETATM   25  C8  UNK     1      19.276  -0.368  18.803  1.00  0.00     0.044 A 
HETATM   26  N3  UNK     1      19.520   1.932  21.661  1.00  0.00    -0.186 NA
HETATM   27  H10 UNK     1      19.316   3.692  20.672  1.00  0.00     0.189 HD
ENDBRANCH   2  18
TORSDOF 3
ENDMDL
MODEL 8
REMARK VINA RESULT:      -9.1      1.369      2.261
REMARK  3 active torsions:
REMARK  status: ('A' for Active; 'I' for Inactive)
REMARK    1  A    between atoms: C9_16  and  O2_2 
REMARK       I    between atoms: C10_17  and  N1_5 
REMARK    2  A    between atoms: C4_11  and  N1_5 
REMARK    3  A    between atoms: C10_17  and  C5_12 
ROOT
HETATM    1  O3  UNK     1      21.559  -4.489  37.026  1.00  0.00    -0.267 OA
HETATM    2  N1  UNK     1      19.349  -5.296  37.125  1.00  0.00    -0.323 N 
HETATM    3  C10 UNK     1      20.351  -4.383  36.824  1.00  0.00     0.262 C 
HETATM    4  H3  UNK     1      18.393  -5.046  36.882  1.00  0.00     0.169 HD
ENDROOT
BRANCH   3   5
HETATM    5  C5  UNK     1      19.820  -3.171  36.189  1.00  0.00     0.108 A 
HETATM    6  C14 UNK     1      19.132  -2.114  36.964  1.00  0.00     0.304 A 
HETATM    7  O1  UNK     1      18.675  -1.012  36.248  1.00  0.00    -0.271 OA
HETATM    8  O4  UNK     1      18.970  -2.201  38.176  1.00  0.00    -0.259 OA
HETATM    9  C2  UNK     1      18.856  -0.902  34.855  1.00  0.00     0.123 A 
HETATM   10  C1  UNK     1      19.506  -1.907  34.146  1.00  0.00     0.002 A 
HETATM   11  C9  UNK     1      18.363   0.239  34.225  1.00  0.00     0.102 A 
HETATM   12  C7  UNK     1      19.997  -3.071  34.866  1.00  0.00     0.037 A 
HETATM   13  C13 UNK     1      19.665  -1.763  32.766  1.00  0.00     0.014 A 
HETATM   14  C17 UNK     1      19.177  -0.622  32.120  1.00  0.00     0.004 A 
HETATM   15  C16 UNK     1      18.526   0.375  32.849  1.00  0.00     0.040 A 
BRANCH  11  16
HETATM   16  O2  UNK     1      17.730   1.215  34.932  1.00  0.00    -0.353 OA
HETATM   17  C18 UNK     1      18.510   2.344  35.324  1.00  0.00     0.210 C 
ENDBRANCH  11  16
ENDBRANCH   3   5
BRANCH   2  18
HETATM   18  C4  UNK     1      19.493  -6.565  37.737  1.00  0.00     0.035 A 
HETATM   19  C11 UNK     1      19.933  -6.647  39.059  1.00  0.00     0.032 A 
HETATM   20  C12 UNK     1      20.086  -7.882  39.697  1.00  0.00     0.034 A 
HETATM   21  C6  UNK     1      19.781  -9.023  38.950  1.00  0.00     0.062 A 
HETATM   22  C3  UNK     1      19.342  -8.970  37.633  1.00  0.00     0.013 A 
HETATM   23  N2  UNK     1      19.821 -10.354  39.264  1.00  0.00    -0.278 N 
HETATM   24  C15 UNK     1      19.156 -10.322  37.272  1.00  0.00     0.152 A 
HETATM   25  C8  UNK     1      19.192  -7.722  37.006  1.00  0.00     0.044 A 
HETATM   26  N3  UNK     1      19.447 -11.168  38.262  1.00  0.00    -0.186 NA
HETATM   27  H10 UNK     1      20.096 -10.774  40.144  1.00  0.00     0.189 HD
ENDBRANCH   2  18
TORSDOF 3
ENDMDL
MODEL 9
REMARK VINA RESULT:      -8.8     18.646     21.152
REMARK  3 active torsions:
REMARK  status: ('A' for Active; 'I' for Inactive)
REMARK    1  A    between atoms: C9_16  and  O2_2 
REMARK       I    between atoms: C10_17  and  N1_5 
REMARK    2  A    between atoms: C4_11  and  N1_5 
REMARK    3  A    between atoms: C10_17  and  C5_12 
ROOT
HETATM    1  O3  UNK     1      17.662  -2.392  16.080  1.00  0.00    -0.267 OA
HETATM    2  N1  UNK     1      19.853  -2.116  15.263  1.00  0.00    -0.323 N 
HETATM    3  C10 UNK     1      18.743  -1.808  16.037  1.00  0.00     0.262 C 
HETATM    4  H3  UNK     1      20.674  -1.522  15.356  1.00  0.00     0.169 HD
ENDROOT
BRANCH   3   5
HETATM    5  C5  UNK     1      18.969  -0.628  16.881  1.00  0.00     0.108 A 
HETATM    6  C14 UNK     1      19.150   0.725  16.308  1.00  0.00     0.304 A 
HETATM    7  O1  UNK     1      19.356   1.764  17.211  1.00  0.00    -0.271 OA
HETATM    8  O4  UNK     1      19.123   0.926  15.098  1.00  0.00    -0.259 OA
HETATM    9  C2  UNK     1      19.390   1.544  18.602  1.00  0.00     0.123 A 
HETATM   10  C1  UNK     1      19.217   0.265  19.120  1.00  0.00     0.002 A 
HETATM   11  C9  UNK     1      19.601   2.646  19.427  1.00  0.00     0.102 A 
HETATM   12  C7  UNK     1      18.999  -0.842  18.202  1.00  0.00     0.037 A 
HETATM   13  C13 UNK     1      19.258   0.086  20.505  1.00  0.00     0.014 A 
HETATM   14  C17 UNK     1      19.469   1.183  21.345  1.00  0.00     0.004 A 
HETATM   15  C16 UNK     1      19.641   2.460  20.807  1.00  0.00     0.040 A 
BRANCH  11  16
HETATM   16  O2  UNK     1      19.768   3.893  18.908  1.00  0.00    -0.353 OA
HETATM   17  C18 UNK     1      21.098   4.283  18.568  1.00  0.00     0.210 C 
ENDBRANCH  11  16
ENDBRANCH   3   5
BRANCH   2  18
HETATM   18  C4  UNK     1      19.993  -3.181  14.339  1.00  0.00     0.035 A 
HETATM   19  C11 UNK     1      19.749  -2.955  12.983  1.00  0.00     0.032 A 
HETATM   20  C12 UNK     1      19.878  -3.981  12.043  1.00  0.00     0.034 A 
HETATM   21  C6  UNK     1      20.258  -5.236  12.523  1.00  0.00     0.062 A 
HETATM   22  C3  UNK     1      20.507  -5.489  13.867  1.00  0.00     0.013 A 
HETATM   23  N2  UNK     1      20.470  -6.429  11.887  1.00  0.00    -0.278 N 
HETATM   24  C15 UNK     1      20.855  -6.857  13.907  1.00  0.00     0.152 A 
HETATM   25  C8  UNK     1      20.374  -4.448  14.800  1.00  0.00     0.044 A 
HETATM   26  N3  UNK     1      20.834  -7.432  12.703  1.00  0.00    -0.186 NA
HETATM   27  H10 UNK     1      20.383  -6.625  10.897  1.00  0.00     0.189 HD
ENDBRANCH   2  18
TORSDOF 3
ENDMDL
MODEL 10
REMARK VINA RESULT:      -8.8      7.522     12.862
REMARK  3 active torsions:
REMARK  status: ('A' for Active; 'I' for Inactive)
REMARK    1  A    between atoms: C9_16  and  O2_2 
REMARK       I    between atoms: C10_17  and  N1_5 
REMARK    2  A    between atoms: C4_11  and  N1_5 
REMARK    3  A    between atoms: C10_17  and  C5_12 
ROOT
HETATM    1  O3  UNK     1      17.848   5.936  31.679  1.00  0.00    -0.267 OA
HETATM    2  N1  UNK     1      18.622   6.230  33.883  1.00  0.00    -0.323 N 
HETATM    3  C10 UNK     1      18.203   5.507  32.775  1.00  0.00     0.262 C 
HETATM    4  H3  UNK     1      18.885   5.708  34.717  1.00  0.00     0.169 HD
ENDROOT
BRANCH   3   5
HETATM    5  C5  UNK     1      18.212   4.060  33.024  1.00  0.00     0.108 A 
HETATM    6  C14 UNK     1      18.134   3.073  31.923  1.00  0.00     0.304 A 
HETATM    7  O1  UNK     1      18.153   1.730  32.287  1.00  0.00    -0.271 OA
HETATM    8  O4  UNK     1      18.055   3.417  30.749  1.00  0.00    -0.259 OA
HETATM    9  C2  UNK     1      18.242   1.324  33.633  1.00  0.00     0.123 A 
HETATM   10  C1  UNK     1      18.316   2.268  34.651  1.00  0.00     0.002 A 
HETATM   11  C9  UNK     1      18.255  -0.044  33.898  1.00  0.00     0.102 A 
HETATM   12  C7  UNK     1      18.299   3.681  34.305  1.00  0.00     0.037 A 
HETATM   13  C13 UNK     1      18.402   1.828  35.974  1.00  0.00     0.014 A 
HETATM   14  C17 UNK     1      18.416   0.458  36.256  1.00  0.00     0.004 A 
HETATM   15  C16 UNK     1      18.342  -0.475  35.220  1.00  0.00     0.040 A 
BRANCH  11  16
HETATM   16  O2  UNK     1      18.184  -0.956  32.892  1.00  0.00    -0.353 OA
HETATM   17  C18 UNK     1      19.402  -1.587  32.498  1.00  0.00     0.210 C 
ENDBRANCH  11  16
ENDBRANCH   3   5
BRANCH   2  18
HETATM   18  C4  UNK     1      18.738   7.637  34.003  1.00  0.00     0.035 A 
HETATM   19  C11 UNK     1      19.996   8.212  34.190  1.00  0.00     0.032 A 
HETATM   20  C12 UNK     1      20.150   9.596  34.312  1.00  0.00     0.034 A 
HETATM   21  C6  UNK     1      18.989  10.371  34.238  1.00  0.00     0.062 A 
HETATM   22  C3  UNK     1      17.725   9.825  34.053  1.00  0.00     0.013 A 
HETATM   23  N2  UNK     1      18.790  11.723  34.317  1.00  0.00    -0.278 N 
HETATM   24  C15 UNK     1      16.860  10.942  34.039  1.00  0.00     0.152 A 
HETATM   25  C8  UNK     1      17.587   8.432  33.932  1.00  0.00     0.044 A 
HETATM   26  N3  UNK     1      17.506  12.098  34.200  1.00  0.00    -0.186 NA
HETATM   27  H10 UNK     1      19.490  12.443  34.451  1.00  0.00     0.189 HD
ENDBRANCH   2  18
TORSDOF 3
ENDMDL
