MODEL 1
REMARK VINA RESULT:      -8.7      0.000      0.000
REMARK  4 active torsions:
REMARK  status: ('A' for Active; 'I' for Inactive)
REMARK    1  A    between atoms: C11_19  and  O2_6 
REMARK    2  A    between atoms: C3_11  and  O2_6 
REMARK    3  A    between atoms: C8_16  and  O4_8 
REMARK    4  A    between atoms: C10_18  and  C4_12 
ROOT
HETATM    1  O1  UNK     1      19.171   0.310  32.590  1.00  0.00    -0.302 OA
HETATM    2  O3  UNK     1      18.204   2.806  29.519  1.00  0.00    -0.284 OA
HETATM    3  C1  UNK     1      19.184   0.775  30.207  1.00  0.00     0.051 A 
HETATM    4  C2  UNK     1      19.487  -0.033  31.301  1.00  0.00     0.093 A 
HETATM    5  C3  UNK     1      18.178   2.381  31.848  1.00  0.00     0.165 A 
HETATM    6  C4  UNK     1      18.524   1.516  32.818  1.00  0.00     0.197 A 
HETATM    7  C5  UNK     1      18.498   2.054  30.439  1.00  0.00     0.221 A 
HETATM    8  C6  UNK     1      19.530   0.372  28.915  1.00  0.00     0.021 A 
HETATM    9  C7  UNK     1      20.140  -1.251  31.108  1.00  0.00     0.074 A 
HETATM   10  C8  UNK     1      20.486  -1.657  29.819  1.00  0.00     0.068 A 
HETATM   11  C9  UNK     1      20.182  -0.846  28.724  1.00  0.00     0.037 A 
ENDROOT
BRANCH   5  12
HETATM   12  O2  UNK     1      17.534   3.570  32.111  1.00  0.00    -0.304 OA
BRANCH  12  13
HETATM   13  C11 UNK     1      18.318   4.634  32.460  1.00  0.00     0.076 A 
HETATM   14  C12 UNK     1      19.376   5.014  31.639  1.00  0.00     0.039 A 
HETATM   15  C14 UNK     1      20.175   6.100  31.996  1.00  0.00     0.026 A 
HETATM   16  C16 UNK     1      19.913   6.802  33.173  1.00  0.00     0.034 A 
HETATM   17  C15 UNK     1      18.853   6.418  33.993  1.00  0.00     0.026 A 
HETATM   18 Cl1  UNK     1      20.901   8.141  33.612  1.00  0.00    -0.084 Cl
HETATM   19  C13 UNK     1      18.054   5.331  33.636  1.00  0.00     0.039 A 
ENDBRANCH  12  13
ENDBRANCH   5  12
BRANCH   6  20
HETATM   20  C10 UNK     1      18.246   1.752  34.273  1.00  0.00     0.442 C 
HETATM   21  F1  UNK     1      18.553   0.661  35.003  1.00  0.00    -0.164 F 
HETATM   22  F2  UNK     1      18.975   2.784  34.742  1.00  0.00    -0.164 F 
HETATM   23  F3  UNK     1      16.945   2.037  34.478  1.00  0.00    -0.164 F 
ENDBRANCH   6  20
BRANCH  10  24
HETATM   24  O4  UNK     1      21.123  -2.845  29.629  1.00  0.00    -0.361 OA
HETATM   25  H8  UNK     1      21.686  -2.778  28.839  1.00  0.00     0.217 HD
ENDBRANCH  10  24
TORSDOF 4
ENDMDL
MODEL 2
REMARK VINA RESULT:      -8.1      2.640      3.740
REMARK  4 active torsions:
REMARK  status: ('A' for Active; 'I' for Inactive)
REMARK    1  A    between atoms: C11_19  and  O2_6 
REMARK    2  A    between atoms: C3_11  and  O2_6 
REMARK    3  A    between atoms: C8_16  and  O4_8 
REMARK    4  A    between atoms: C10_18  and  C4_12 
ROOT
HETATM    1  O1  UNK     1      18.965   0.547  31.291  1.00  0.00    -0.302 OA
HETATM    2  O3  UNK     1      17.578   3.034  34.204  1.00  0.00    -0.284 OA
HETATM    3  C1  UNK     1      18.469   0.925  33.637  1.00  0.00     0.051 A 
HETATM    4  C2  UNK     1      18.930   0.125  32.595  1.00  0.00     0.093 A 
HETATM    5  C3  UNK     1      18.050   2.693  31.909  1.00  0.00     0.165 A 
HETATM    6  C4  UNK     1      18.518   1.827  30.994  1.00  0.00     0.197 A 
HETATM    7  C5  UNK     1      17.994   2.283  33.332  1.00  0.00     0.221 A 
HETATM    8  C6  UNK     1      18.458   0.442  34.948  1.00  0.00     0.021 A 
HETATM    9  C7  UNK     1      19.385  -1.168  32.858  1.00  0.00     0.074 A 
HETATM   10  C8  UNK     1      19.376  -1.655  34.165  1.00  0.00     0.068 A 
HETATM   11  C9  UNK     1      18.913  -0.851  35.208  1.00  0.00     0.037 A 
ENDROOT
BRANCH   5  12
HETATM   12  O2  UNK     1      17.616   3.958  31.578  1.00  0.00    -0.304 OA
BRANCH  12  13
HETATM   13  C11 UNK     1      18.237   5.007  32.197  1.00  0.00     0.076 A 
HETATM   14  C12 UNK     1      17.518   5.823  33.065  1.00  0.00     0.039 A 
HETATM   15  C14 UNK     1      18.152   6.893  33.695  1.00  0.00     0.026 A 
HETATM   16  C16 UNK     1      19.504   7.143  33.455  1.00  0.00     0.034 A 
HETATM   17  C15 UNK     1      20.220   6.323  32.584  1.00  0.00     0.026 A 
HETATM   18 Cl1  UNK     1      20.285   8.464  34.233  1.00  0.00    -0.084 Cl
HETATM   19  C13 UNK     1      19.585   5.253  31.953  1.00  0.00     0.039 A 
ENDBRANCH  12  13
ENDBRANCH   5  12
BRANCH   6  20
HETATM   20  C10 UNK     1      18.617   2.143  29.531  1.00  0.00     0.442 C 
HETATM   21  F1  UNK     1      19.471   1.302  28.915  1.00  0.00    -0.164 F 
HETATM   22  F2  UNK     1      17.416   2.030  28.931  1.00  0.00    -0.164 F 
HETATM   23  F3  UNK     1      19.061   3.401  29.337  1.00  0.00    -0.164 F 
ENDBRANCH   6  20
BRANCH  10  24
HETATM   24  O4  UNK     1      19.819  -2.915  34.424  1.00  0.00    -0.361 OA
HETATM   25  H8  UNK     1      19.971  -3.006  35.380  1.00  0.00     0.217 HD
ENDBRANCH  10  24
TORSDOF 4
ENDMDL
MODEL 3
REMARK VINA RESULT:      -8.1     14.790     15.892
REMARK  4 active torsions:
REMARK  status: ('A' for Active; 'I' for Inactive)
REMARK    1  A    between atoms: C11_19  and  O2_6 
REMARK    2  A    between atoms: C3_11  and  O2_6 
REMARK    3  A    between atoms: C8_16  and  O4_8 
REMARK    4  A    between atoms: C10_18  and  C4_12 
ROOT
HETATM    1  O1  UNK     1      28.822  -6.578  39.076  1.00  0.00    -0.302 OA
HETATM    2  O3  UNK     1      28.930  -7.848  35.207  1.00  0.00    -0.284 OA
HETATM    3  C1  UNK     1      28.195  -8.233  37.415  1.00  0.00     0.051 A 
HETATM    4  C2  UNK     1      28.196  -7.744  38.719  1.00  0.00     0.093 A 
HETATM    5  C3  UNK     1      29.559  -6.219  36.806  1.00  0.00     0.165 A 
HETATM    6  C4  UNK     1      29.488  -5.853  38.098  1.00  0.00     0.197 A 
HETATM    7  C5  UNK     1      28.896  -7.471  36.371  1.00  0.00     0.221 A 
HETATM    8  C6  UNK     1      27.538  -9.427  37.109  1.00  0.00     0.021 A 
HETATM    9  C7  UNK     1      27.538  -8.449  39.728  1.00  0.00     0.074 A 
HETATM   10  C8  UNK     1      26.881  -9.641  39.427  1.00  0.00     0.068 A 
HETATM   11  C9  UNK     1      26.881 -10.130  38.119  1.00  0.00     0.037 A 
ENDROOT
BRANCH   5  12
HETATM   12  O2  UNK     1      30.228  -5.473  35.860  1.00  0.00    -0.304 OA
BRANCH  12  13
HETATM   13  C11 UNK     1      31.579  -5.655  35.771  1.00  0.00     0.076 A 
HETATM   14  C12 UNK     1      32.114  -6.936  35.877  1.00  0.00     0.039 A 
HETATM   15  C14 UNK     1      33.493  -7.121  35.786  1.00  0.00     0.026 A 
HETATM   16  C16 UNK     1      34.333  -6.024  35.590  1.00  0.00     0.034 A 
HETATM   17  C15 UNK     1      33.793  -4.743  35.485  1.00  0.00     0.026 A 
HETATM   18 Cl1  UNK     1      36.035  -6.254  35.479  1.00  0.00    -0.084 Cl
HETATM   19  C13 UNK     1      32.413  -4.558  35.576  1.00  0.00     0.039 A 
ENDBRANCH  12  13
ENDBRANCH   5  12
BRANCH   6  20
HETATM   20  C10 UNK     1      30.122  -4.606  38.639  1.00  0.00     0.442 C 
HETATM   21  F1  UNK     1      29.584  -4.272  39.829  1.00  0.00    -0.164 F 
HETATM   22  F2  UNK     1      31.447  -4.776  38.815  1.00  0.00    -0.164 F 
HETATM   23  F3  UNK     1      29.945  -3.568  37.798  1.00  0.00    -0.164 F 
ENDBRANCH   6  20
BRANCH  10  24
HETATM   24  O4  UNK     1      26.239 -10.330  40.409  1.00  0.00    -0.361 OA
HETATM   25  H8  UNK     1      25.500  -9.792  40.741  1.00  0.00     0.217 HD
ENDBRANCH  10  24
TORSDOF 4
ENDMDL
MODEL 4
REMARK VINA RESULT:      -7.9     23.617     25.322
REMARK  4 active torsions:
REMARK  status: ('A' for Active; 'I' for Inactive)
REMARK    1  A    between atoms: C11_19  and  O2_6 
REMARK    2  A    between atoms: C3_11  and  O2_6 
REMARK    3  A    between atoms: C8_16  and  O4_8 
REMARK    4  A    between atoms: C10_18  and  C4_12 
ROOT
HETATM    1  O1  UNK     1      12.854   6.043   7.377  1.00  0.00    -0.302 OA
HETATM    2  O3  UNK     1      11.724   8.508  10.417  1.00  0.00    -0.284 OA
HETATM    3  C1  UNK     1      13.371   7.087   9.506  1.00  0.00     0.051 A 
HETATM    4  C2  UNK     1      13.696   6.256   8.437  1.00  0.00     0.093 A 
HETATM    5  C3  UNK     1      11.191   7.502   8.340  1.00  0.00     0.165 A 
HETATM    6  C4  UNK     1      11.620   6.678   7.369  1.00  0.00     0.197 A 
HETATM    7  C5  UNK     1      12.067   7.765   9.506  1.00  0.00     0.221 A 
HETATM    8  C6  UNK     1      14.271   7.268  10.559  1.00  0.00     0.021 A 
HETATM    9  C7  UNK     1      14.928   5.600   8.414  1.00  0.00     0.074 A 
HETATM   10  C8  UNK     1      15.830   5.778   9.462  1.00  0.00     0.068 A 
HETATM   11  C9  UNK     1      15.502   6.611  10.534  1.00  0.00     0.037 A 
ENDROOT
BRANCH   5  12
HETATM   12  O2  UNK     1       9.959   8.118   8.299  1.00  0.00    -0.304 OA
BRANCH  12  13
HETATM   13  C11 UNK     1       8.994   7.627   9.134  1.00  0.00     0.076 A 
HETATM   14  C12 UNK     1       8.248   8.501   9.919  1.00  0.00     0.039 A 
HETATM   15  C14 UNK     1       7.264   8.001  10.770  1.00  0.00     0.026 A 
HETATM   16  C16 UNK     1       7.028   6.627  10.832  1.00  0.00     0.034 A 
HETATM   17  C15 UNK     1       7.778   5.754  10.044  1.00  0.00     0.026 A 
HETATM   18 Cl1  UNK     1       5.813   6.010  11.883  1.00  0.00    -0.084 Cl
HETATM   19  C13 UNK     1       8.763   6.256   9.193  1.00  0.00     0.039 A 
ENDBRANCH  12  13
ENDBRANCH   5  12
BRANCH   6  20
HETATM   20  C10 UNK     1      10.812   6.347   6.149  1.00  0.00     0.442 C 
HETATM   21  F1  UNK     1      11.534   5.610   5.281  1.00  0.00    -0.164 F 
HETATM   22  F2  UNK     1       9.711   5.643   6.476  1.00  0.00    -0.164 F 
HETATM   23  F3  UNK     1      10.415   7.467   5.513  1.00  0.00    -0.164 F 
ENDBRANCH   6  20
BRANCH  10  24
HETATM   24  O4  UNK     1      17.031   5.139   9.442  1.00  0.00    -0.361 OA
HETATM   25  H8  UNK     1      17.742   5.801   9.501  1.00  0.00     0.217 HD
ENDBRANCH  10  24
TORSDOF 4
ENDMDL
MODEL 5
REMARK VINA RESULT:      -7.8     23.131     24.374
REMARK  4 active torsions:
REMARK  status: ('A' for Active; 'I' for Inactive)
REMARK    1  A    between atoms: C11_19  and  O2_6 
REMARK    2  A    between atoms: C3_11  and  O2_6 
REMARK    3  A    between atoms: C8_16  and  O4_8 
REMARK    4  A    between atoms: C10_18  and  C4_12 
ROOT
HETATM    1  O1  UNK     1      16.519   8.094   9.761  1.00  0.00    -0.302 OA
HETATM    2  O3  UNK     1      13.099   9.610  11.374  1.00  0.00    -0.284 OA
HETATM    3  C1  UNK     1      15.334   9.984  10.719  1.00  0.00     0.051 A 
HETATM    4  C2  UNK     1      16.471   9.404  10.162  1.00  0.00     0.093 A 
HETATM    5  C3  UNK     1      14.231   7.749  10.445  1.00  0.00     0.165 A 
HETATM    6  C4  UNK     1      15.387   7.308   9.920  1.00  0.00     0.197 A 
HETATM    7  C5  UNK     1      14.129   9.158  10.891  1.00  0.00     0.221 A 
HETATM    8  C6  UNK     1      15.343  11.325  11.108  1.00  0.00     0.021 A 
HETATM    9  C7  UNK     1      17.627  10.166   9.988  1.00  0.00     0.074 A 
HETATM   10  C8  UNK     1      17.641  11.506  10.375  1.00  0.00     0.068 A 
HETATM   11  C9  UNK     1      16.500  12.085  10.934  1.00  0.00     0.037 A 
ENDROOT
BRANCH   5  12
HETATM   12  O2  UNK     1      13.125   6.940  10.588  1.00  0.00    -0.304 OA
BRANCH  12  13
HETATM   13  C11 UNK     1      12.363   6.731   9.472  1.00  0.00     0.076 A 
HETATM   14  C12 UNK     1      11.839   5.467   9.218  1.00  0.00     0.039 A 
HETATM   15  C14 UNK     1      11.061   5.255   8.080  1.00  0.00     0.026 A 
HETATM   16  C16 UNK     1      10.810   6.308   7.201  1.00  0.00     0.034 A 
HETATM   17  C15 UNK     1      11.337   7.573   7.459  1.00  0.00     0.026 A 
HETATM   18 Cl1  UNK     1       9.851   6.045   5.796  1.00  0.00    -0.084 Cl
HETATM   19  C13 UNK     1      12.116   7.785   8.597  1.00  0.00     0.039 A 
ENDBRANCH  12  13
ENDBRANCH   5  12
BRANCH   6  20
HETATM   20  C10 UNK     1      15.593   5.902   9.439  1.00  0.00     0.442 C 
HETATM   21  F1  UNK     1      16.904   5.643   9.261  1.00  0.00    -0.164 F 
HETATM   22  F2  UNK     1      15.110   5.012  10.328  1.00  0.00    -0.164 F 
HETATM   23  F3  UNK     1      14.966   5.696   8.264  1.00  0.00    -0.164 F 
ENDBRANCH   6  20
BRANCH  10  24
HETATM   24  O4  UNK     1      18.767  12.251  10.207  1.00  0.00    -0.361 OA
HETATM   25  H8  UNK     1      18.535  13.075   9.746  1.00  0.00     0.217 HD
ENDBRANCH  10  24
TORSDOF 4
ENDMDL
MODEL 6
REMARK VINA RESULT:      -7.7     13.093     15.103
REMARK  4 active torsions:
REMARK  status: ('A' for Active; 'I' for Inactive)
REMARK    1  A    between atoms: C11_19  and  O2_6 
REMARK    2  A    between atoms: C3_11  and  O2_6 
REMARK    3  A    between atoms: C8_16  and  O4_8 
REMARK    4  A    between atoms: C10_18  and  C4_12 
ROOT
HETATM    1  O1  UNK     1      30.933  -5.181  36.021  1.00  0.00    -0.302 OA
HETATM    2  O3  UNK     1      28.062  -8.070  36.106  1.00  0.00    -0.284 OA
HETATM    3  C1  UNK     1      29.087  -6.241  37.187  1.00  0.00     0.051 A 
HETATM    4  C2  UNK     1      30.089  -5.278  37.096  1.00  0.00     0.093 A 
HETATM    5  C3  UNK     1      29.861  -7.057  34.947  1.00  0.00     0.165 A 
HETATM    6  C4  UNK     1      30.788  -6.084  34.977  1.00  0.00     0.197 A 
HETATM    7  C5  UNK     1      28.924  -7.201  36.086  1.00  0.00     0.221 A 
HETATM    8  C6  UNK     1      28.254  -6.291  38.307  1.00  0.00     0.021 A 
HETATM    9  C7  UNK     1      30.264  -4.356  38.129  1.00  0.00     0.074 A 
HETATM   10  C8  UNK     1      29.435  -4.402  39.250  1.00  0.00     0.068 A 
HETATM   11  C9  UNK     1      28.431  -5.368  39.339  1.00  0.00     0.037 A 
ENDROOT
BRANCH   5  12
HETATM   12  O2  UNK     1      29.744  -7.936  33.892  1.00  0.00    -0.304 OA
BRANCH  12  13
HETATM   13  C11 UNK     1      28.842  -7.615  32.917  1.00  0.00     0.076 A 
HETATM   14  C12 UNK     1      28.647  -8.478  31.842  1.00  0.00     0.039 A 
HETATM   15  C14 UNK     1      27.727  -8.150  30.847  1.00  0.00     0.026 A 
HETATM   16  C16 UNK     1      27.004  -6.960  30.930  1.00  0.00     0.034 A 
HETATM   17  C15 UNK     1      27.202  -6.098  32.008  1.00  0.00     0.026 A 
HETATM   18 Cl1  UNK     1      25.869  -6.556  29.701  1.00  0.00    -0.084 Cl
HETATM   19  C13 UNK     1      28.124  -6.426  33.003  1.00  0.00     0.039 A 
ENDBRANCH  12  13
ENDBRANCH   5  12
BRANCH   6  20
HETATM   20  C10 UNK     1      31.781  -5.853  33.877  1.00  0.00     0.442 C 
HETATM   21  F1  UNK     1      32.719  -4.963  34.256  1.00  0.00    -0.164 F 
HETATM   22  F2  UNK     1      32.406  -6.999  33.543  1.00  0.00    -0.164 F 
HETATM   23  F3  UNK     1      31.176  -5.373  32.772  1.00  0.00    -0.164 F 
ENDBRANCH   6  20
BRANCH  10  24
HETATM   24  O4  UNK     1      29.604  -3.504  40.258  1.00  0.00    -0.361 OA
HETATM   25  H8  UNK     1      29.794  -2.631  39.874  1.00  0.00     0.217 HD
ENDBRANCH  10  24
TORSDOF 4
ENDMDL
MODEL 7
REMARK VINA RESULT:      -7.7      5.373      7.373
REMARK  4 active torsions:
REMARK  status: ('A' for Active; 'I' for Inactive)
REMARK    1  A    between atoms: C11_19  and  O2_6 
REMARK    2  A    between atoms: C3_11  and  O2_6 
REMARK    3  A    between atoms: C8_16  and  O4_8 
REMARK    4  A    between atoms: C10_18  and  C4_12 
ROOT
HETATM    1  O1  UNK     1      16.584   6.856  32.201  1.00  0.00    -0.302 OA
HETATM    2  O3  UNK     1      18.707   8.379  35.325  1.00  0.00    -0.284 OA
HETATM    3  C1  UNK     1      18.728   7.192  33.288  1.00  0.00     0.051 A 
HETATM    4  C2  UNK     1      17.944   6.695  32.249  1.00  0.00     0.093 A 
HETATM    5  C3  UNK     1      16.602   8.065  34.289  1.00  0.00     0.165 A 
HETATM    6  C4  UNK     1      15.957   7.540  33.233  1.00  0.00     0.197 A 
HETATM    7  C5  UNK     1      18.073   7.919  34.385  1.00  0.00     0.221 A 
HETATM    8  C6  UNK     1      20.111   6.999  33.283  1.00  0.00     0.021 A 
HETATM    9  C7  UNK     1      18.542   6.001  31.196  1.00  0.00     0.074 A 
HETATM   10  C8  UNK     1      19.922   5.806  31.187  1.00  0.00     0.068 A 
HETATM   11  C9  UNK     1      20.706   6.305  32.230  1.00  0.00     0.037 A 
ENDROOT
BRANCH   5  12
HETATM   12  O2  UNK     1      15.947   8.740  35.296  1.00  0.00    -0.304 OA
BRANCH  12  13
HETATM   13  C11 UNK     1      15.616  10.044  35.053  1.00  0.00     0.076 A 
HETATM   14  C12 UNK     1      16.498  10.865  34.357  1.00  0.00     0.039 A 
HETATM   15  C14 UNK     1      16.159  12.194  34.110  1.00  0.00     0.026 A 
HETATM   16  C16 UNK     1      14.939  12.699  34.559  1.00  0.00     0.034 A 
HETATM   17  C15 UNK     1      14.058  11.873  35.257  1.00  0.00     0.026 A 
HETATM   18 Cl1  UNK     1      14.522  14.340  34.254  1.00  0.00    -0.084 Cl
HETATM   19  C13 UNK     1      14.397  10.543  35.505  1.00  0.00     0.039 A 
ENDBRANCH  12  13
ENDBRANCH   5  12
BRANCH   6  20
HETATM   20  C10 UNK     1      14.472   7.633  33.040  1.00  0.00     0.442 C 
HETATM   21  F1  UNK     1      14.066   6.825  32.041  1.00  0.00    -0.164 F 
HETATM   22  F2  UNK     1      13.817   7.271  34.161  1.00  0.00    -0.164 F 
HETATM   23  F3  UNK     1      14.102   8.892  32.732  1.00  0.00    -0.164 F 
ENDBRANCH   6  20
BRANCH  10  24
HETATM   24  O4  UNK     1      20.507   5.129  30.162  1.00  0.00    -0.361 OA
HETATM   25  H8  UNK     1      21.139   4.487  30.527  1.00  0.00     0.217 HD
ENDBRANCH  10  24
TORSDOF 4
ENDMDL
MODEL 8
REMARK VINA RESULT:      -7.6     23.782     25.445
REMARK  4 active torsions:
REMARK  status: ('A' for Active; 'I' for Inactive)
REMARK    1  A    between atoms: C11_19  and  O2_6 
REMARK    2  A    between atoms: C3_11  and  O2_6 
REMARK    3  A    between atoms: C8_16  and  O4_8 
REMARK    4  A    between atoms: C10_18  and  C4_12 
ROOT
HETATM    1  O1  UNK     1       8.832   5.317   7.875  1.00  0.00    -0.302 OA
HETATM    2  O3  UNK     1       9.003   8.523  10.382  1.00  0.00    -0.284 OA
HETATM    3  C1  UNK     1       7.975   6.474   9.829  1.00  0.00     0.051 A 
HETATM    4  C2  UNK     1       7.968   5.406   8.935  1.00  0.00     0.093 A 
HETATM    5  C3  UNK     1       9.858   7.418   8.470  1.00  0.00     0.165 A 
HETATM    6  C4  UNK     1       9.753   6.337   7.679  1.00  0.00     0.197 A 
HETATM    7  C5  UNK     1       8.947   7.559   9.631  1.00  0.00     0.221 A 
HETATM    8  C6  UNK     1       7.071   6.510  10.893  1.00  0.00     0.021 A 
HETATM    9  C7  UNK     1       7.055   4.364   9.102  1.00  0.00     0.074 A 
HETATM   10  C8  UNK     1       6.150   4.396  10.163  1.00  0.00     0.068 A 
HETATM   11  C9  UNK     1       6.158   5.468  11.058  1.00  0.00     0.037 A 
ENDROOT
BRANCH   5  12
HETATM   12  O2  UNK     1      10.786   8.412   8.247  1.00  0.00    -0.304 OA
BRANCH  12  13
HETATM   13  C11 UNK     1      11.876   8.438   9.071  1.00  0.00     0.076 A 
HETATM   14  C12 UNK     1      12.710   7.327   9.151  1.00  0.00     0.039 A 
HETATM   15  C14 UNK     1      13.822   7.353   9.992  1.00  0.00     0.026 A 
HETATM   16  C16 UNK     1      14.096   8.492  10.750  1.00  0.00     0.034 A 
HETATM   17  C15 UNK     1      13.257   9.603  10.668  1.00  0.00     0.026 A 
HETATM   18 Cl1  UNK     1      15.468   8.523  11.789  1.00  0.00    -0.084 Cl
HETATM   19  C13 UNK     1      12.145   9.576   9.827  1.00  0.00     0.039 A 
ENDBRANCH  12  13
ENDBRANCH   5  12
BRANCH   6  20
HETATM   20  C10 UNK     1      10.626   6.100   6.482  1.00  0.00     0.442 C 
HETATM   21  F1  UNK     1      11.662   5.297   6.796  1.00  0.00    -0.164 F 
HETATM   22  F2  UNK     1       9.931   5.513   5.487  1.00  0.00    -0.164 F 
HETATM   23  F3  UNK     1      11.126   7.259   6.012  1.00  0.00    -0.164 F 
ENDBRANCH   6  20
BRANCH  10  24
HETATM   24  O4  UNK     1       5.258   3.381  10.327  1.00  0.00    -0.361 OA
HETATM   25  H8  UNK     1       4.485   3.546   9.760  1.00  0.00     0.217 HD
ENDBRANCH  10  24
TORSDOF 4
ENDMDL
MODEL 9
REMARK VINA RESULT:      -7.6      4.909      8.918
REMARK  4 active torsions:
REMARK  status: ('A' for Active; 'I' for Inactive)
REMARK    1  A    between atoms: C11_19  and  O2_6 
REMARK    2  A    between atoms: C3_11  and  O2_6 
REMARK    3  A    between atoms: C8_16  and  O4_8 
REMARK    4  A    between atoms: C10_18  and  C4_12 
ROOT
HETATM    1  O1  UNK     1      17.882  10.133  34.210  1.00  0.00    -0.302 OA
HETATM    2  O3  UNK     1      15.368   6.963  33.738  1.00  0.00    -0.284 OA
HETATM    3  C1  UNK     1      15.640   9.305  33.783  1.00  0.00     0.051 A 
HETATM    4  C2  UNK     1      16.551  10.344  33.955  1.00  0.00     0.093 A 
HETATM    5  C3  UNK     1      17.564   7.742  34.159  1.00  0.00     0.165 A 
HETATM    6  C4  UNK     1      18.342   8.828  34.304  1.00  0.00     0.197 A 
HETATM    7  C5  UNK     1      16.119   7.918  33.881  1.00  0.00     0.221 A 
HETATM    8  C6  UNK     1      14.296   9.580  33.523  1.00  0.00     0.021 A 
HETATM    9  C7  UNK     1      16.122  11.669  33.868  1.00  0.00     0.074 A 
HETATM   10  C8  UNK     1      14.780  11.948  33.609  1.00  0.00     0.068 A 
HETATM   11  C9  UNK     1      13.868  10.905  33.437  1.00  0.00     0.037 A 
ENDROOT
BRANCH   5  12
HETATM   12  O2  UNK     1      18.056   6.458  34.258  1.00  0.00    -0.304 OA
BRANCH  12  13
HETATM   13  C11 UNK     1      18.231   5.771  33.090  1.00  0.00     0.076 A 
HETATM   14  C12 UNK     1      18.073   4.388  33.070  1.00  0.00     0.039 A 
HETATM   15  C14 UNK     1      18.251   3.687  31.878  1.00  0.00     0.026 A 
HETATM   16  C16 UNK     1      18.587   4.371  30.710  1.00  0.00     0.034 A 
HETATM   17  C15 UNK     1      18.746   5.756  30.734  1.00  0.00     0.026 A 
HETATM   18 Cl1  UNK     1      18.808   3.505  29.239  1.00  0.00    -0.084 Cl
HETATM   19  C13 UNK     1      18.567   6.457  31.927  1.00  0.00     0.039 A 
ENDBRANCH  12  13
ENDBRANCH   5  12
BRANCH   6  20
HETATM   20  C10 UNK     1      19.814   8.758  34.587  1.00  0.00     0.442 C 
HETATM   21  F1  UNK     1      20.333   9.993  34.737  1.00  0.00    -0.164 F 
HETATM   22  F2  UNK     1      20.056   8.065  35.717  1.00  0.00    -0.164 F 
HETATM   23  F3  UNK     1      20.472   8.151  33.579  1.00  0.00    -0.164 F 
ENDBRANCH   6  20
BRANCH  10  24
HETATM   24  O4  UNK     1      14.359  13.240  33.524  1.00  0.00    -0.361 OA
HETATM   25  H8  UNK     1      14.653  13.612  32.674  1.00  0.00     0.217 HD
ENDBRANCH  10  24
TORSDOF 4
ENDMDL
MODEL 10
REMARK VINA RESULT:      -7.6     15.990     18.874
REMARK  4 active torsions:
REMARK  status: ('A' for Active; 'I' for Inactive)
REMARK    1  A    between atoms: C11_19  and  O2_6 
REMARK    2  A    between atoms: C3_11  and  O2_6 
REMARK    3  A    between atoms: C8_16  and  O4_8 
REMARK    4  A    between atoms: C10_18  and  C4_12 
ROOT
HETATM    1  O1  UNK     1      20.684  -2.495  16.995  1.00  0.00    -0.302 OA
HETATM    2  O3  UNK     1      21.641  -5.808  14.827  1.00  0.00    -0.284 OA
HETATM    3  C1  UNK     1      22.231  -4.312  16.552  1.00  0.00     0.051 A 
HETATM    4  C2  UNK     1      21.846  -3.173  17.255  1.00  0.00     0.093 A 
HETATM    5  C3  UNK     1      20.115  -4.045  15.235  1.00  0.00     0.165 A 
HETATM    6  C4  UNK     1      19.854  -2.959  15.984  1.00  0.00     0.197 A 
HETATM    7  C5  UNK     1      21.358  -4.812  15.480  1.00  0.00     0.221 A 
HETATM    8  C6  UNK     1      23.427  -4.963  16.863  1.00  0.00     0.021 A 
HETATM    9  C7  UNK     1      22.658  -2.677  18.276  1.00  0.00     0.074 A 
HETATM   10  C8  UNK     1      23.852  -3.324  18.590  1.00  0.00     0.068 A 
HETATM   11  C9  UNK     1      24.237  -4.466  17.884  1.00  0.00     0.037 A 
ENDROOT
BRANCH   5  12
HETATM   12  O2  UNK     1      19.267  -4.479  14.239  1.00  0.00    -0.304 OA
BRANCH  12  13
HETATM   13  C11 UNK     1      19.630  -4.198  12.952  1.00  0.00     0.076 A 
HETATM   14  C12 UNK     1      19.396  -5.133  11.947  1.00  0.00     0.039 A 
HETATM   15  C14 UNK     1      19.766  -4.846  10.634  1.00  0.00     0.026 A 
HETATM   16  C16 UNK     1      20.368  -3.625  10.329  1.00  0.00     0.034 A 
HETATM   17  C15 UNK     1      20.602  -2.692  11.339  1.00  0.00     0.026 A 
HETATM   18 Cl1  UNK     1      20.826  -3.272   8.708  1.00  0.00    -0.084 Cl
HETATM   19  C13 UNK     1      20.232  -2.979  12.653  1.00  0.00     0.039 A 
ENDBRANCH  12  13
ENDBRANCH   5  12
BRANCH   6  20
HETATM   20  C10 UNK     1      18.625  -2.115  15.817  1.00  0.00     0.442 C 
HETATM   21  F1  UNK     1      18.428  -1.336  16.899  1.00  0.00    -0.164 F 
HETATM   22  F2  UNK     1      18.734  -1.312  14.740  1.00  0.00    -0.164 F 
HETATM   23  F3  UNK     1      17.530  -2.883  15.653  1.00  0.00    -0.164 F 
ENDBRANCH   6  20
BRANCH  10  24
HETATM   24  O4  UNK     1      24.645  -2.843  19.586  1.00  0.00    -0.361 OA
HETATM   25  H8  UNK     1      25.548  -3.185  19.464  1.00  0.00     0.217 HD
ENDBRANCH  10  24
TORSDOF 4
ENDMDL
