MODEL 1
REMARK VINA RESULT:      -8.2      0.000      0.000
REMARK  3 active torsions:
REMARK  status: ('A' for Active; 'I' for Inactive)
REMARK    1  A    between atoms: C15_19  and  O2_2 
REMARK    2  A    between atoms: C9_13  and  N1_4 
REMARK    3  A    between atoms: C2_6  and  C3_7 
ROOT
HETATM    1  O1  UNK     1      18.959   0.734  28.648  1.00  0.00    -0.274 OA
HETATM    2  O3  UNK     1      18.107   2.800  28.188  1.00  0.00    -0.259 OA
HETATM    3  C1  UNK     1      19.742   0.219  30.888  1.00  0.00     0.001 A 
HETATM    4  C2  UNK     1      18.868   2.441  30.413  1.00  0.00     0.051 A 
HETATM    5  C4  UNK     1      19.403   1.575  31.288  1.00  0.00     0.032 A 
HETATM    6  C5  UNK     1      19.514  -0.169  29.573  1.00  0.00     0.089 A 
HETATM    7  C6  UNK     1      20.294  -0.706  31.778  1.00  0.00     0.043 A 
HETATM    8  C7  UNK     1      18.610   2.034  29.005  1.00  0.00     0.299 A 
HETATM    9  C8  UNK     1      19.819  -1.452  29.124  1.00  0.00     0.040 A 
HETATM   10  C9  UNK     1      20.605  -1.996  31.342  1.00  0.00     0.026 A 
HETATM   11  C12 UNK     1      20.368  -2.369  30.017  1.00  0.00     0.032 A 
ENDROOT
BRANCH   4  12
HETATM   12  C3  UNK     1      18.555   3.810  30.864  1.00  0.00    -0.020 A 
HETATM   13  C10 UNK     1      17.810   4.008  32.026  1.00  0.00     0.015 A 
HETATM   14  C13 UNK     1      17.516   5.303  32.453  1.00  0.00     0.037 A 
HETATM   15  C15 UNK     1      17.966   6.399  31.716  1.00  0.00     0.068 A 
HETATM   16  C14 UNK     1      18.711   6.200  30.555  1.00  0.00     0.037 A 
HETATM   17  C11 UNK     1      19.006   4.905  30.127  1.00  0.00     0.015 A 
BRANCH  15  18
HETATM   18  O2  UNK     1      17.679   7.663  32.133  1.00  0.00    -0.356 OA
HETATM   19  C16 UNK     1      16.333   8.109  31.976  1.00  0.00     0.210 C 
ENDBRANCH  15  18
ENDBRANCH   4  12
BRANCH  10  20
HETATM   20  N1  UNK     1      21.162  -2.928  32.245  1.00  0.00    -0.399 N 
HETATM   21  H10 UNK     1      21.628  -2.605  33.081  1.00  0.00     0.156 HD
HETATM   22  H9  UNK     1      21.096  -3.919  32.054  1.00  0.00     0.156 HD
ENDBRANCH  10  20
TORSDOF 3
ENDMDL
MODEL 2
REMARK VINA RESULT:      -8.0     13.300     16.379
REMARK  3 active torsions:
REMARK  status: ('A' for Active; 'I' for Inactive)
REMARK    1  A    between atoms: C15_19  and  O2_2 
REMARK    2  A    between atoms: C9_13  and  N1_4 
REMARK    3  A    between atoms: C2_6  and  C3_7 
ROOT
HETATM    1  O1  UNK     1      19.269   1.029  15.626  1.00  0.00    -0.274 OA
HETATM    2  O3  UNK     1      19.464  -0.412  13.868  1.00  0.00    -0.259 OA
HETATM    3  C1  UNK     1      18.966   0.164  17.874  1.00  0.00     0.001 A 
HETATM    4  C2  UNK     1      19.139  -1.394  16.011  1.00  0.00     0.051 A 
HETATM    5  C4  UNK     1      18.980  -1.183  17.327  1.00  0.00     0.032 A 
HETATM    6  C5  UNK     1      19.108   1.241  17.007  1.00  0.00     0.089 A 
HETATM    7  C6  UNK     1      18.810   0.414  19.239  1.00  0.00     0.043 A 
HETATM    8  C7  UNK     1      19.301  -0.248  15.074  1.00  0.00     0.299 A 
HETATM    9  C8  UNK     1      19.100   2.558  17.465  1.00  0.00     0.040 A 
HETATM   10  C9  UNK     1      18.799   1.728  19.714  1.00  0.00     0.026 A 
HETATM   11  C12 UNK     1      18.944   2.798  18.828  1.00  0.00     0.032 A 
ENDROOT
BRANCH   4  12
HETATM   12  C3  UNK     1      19.131  -2.778  15.503  1.00  0.00    -0.020 A 
HETATM   13  C10 UNK     1      20.326  -3.493  15.412  1.00  0.00     0.015 A 
HETATM   14  C13 UNK     1      20.318  -4.803  14.933  1.00  0.00     0.037 A 
HETATM   15  C15 UNK     1      19.117  -5.397  14.545  1.00  0.00     0.068 A 
HETATM   16  C14 UNK     1      17.924  -4.682  14.638  1.00  0.00     0.037 A 
HETATM   17  C11 UNK     1      17.930  -3.371  15.117  1.00  0.00     0.015 A 
BRANCH  15  18
HETATM   18  O2  UNK     1      19.110  -6.676  14.078  1.00  0.00    -0.356 OA
HETATM   19  C16 UNK     1      17.910  -7.134  13.457  1.00  0.00     0.210 C 
ENDBRANCH  15  18
ENDBRANCH   4  12
BRANCH  10  20
HETATM   20  N1  UNK     1      18.642   1.976  21.095  1.00  0.00    -0.399 N 
HETATM   21  H10 UNK     1      19.400   1.779  21.733  1.00  0.00     0.156 HD
HETATM   22  H9  UNK     1      17.771   2.350  21.445  1.00  0.00     0.156 HD
ENDBRANCH  10  20
TORSDOF 3
ENDMDL
MODEL 3
REMARK VINA RESULT:      -8.0      2.149      2.964
REMARK  3 active torsions:
REMARK  status: ('A' for Active; 'I' for Inactive)
REMARK    1  A    between atoms: C15_19  and  O2_2 
REMARK    2  A    between atoms: C9_13  and  N1_4 
REMARK    3  A    between atoms: C2_6  and  C3_7 
ROOT
HETATM    1  O1  UNK     1      18.930   2.025  30.911  1.00  0.00    -0.274 OA
HETATM    2  O3  UNK     1      18.888   4.136  30.048  1.00  0.00    -0.259 OA
HETATM    3  C1  UNK     1      18.360   1.657  33.242  1.00  0.00     0.001 A 
HETATM    4  C2  UNK     1      18.338   3.923  32.354  1.00  0.00     0.051 A 
HETATM    5  C4  UNK     1      18.165   3.090  33.391  1.00  0.00     0.032 A 
HETATM    6  C5  UNK     1      18.741   1.157  32.003  1.00  0.00     0.089 A 
HETATM    7  C6  UNK     1      18.180   0.765  34.302  1.00  0.00     0.043 A 
HETATM    8  C7  UNK     1      18.738   3.399  31.019  1.00  0.00     0.299 A 
HETATM    9  C8  UNK     1      18.947  -0.205  31.792  1.00  0.00     0.040 A 
HETATM   10  C9  UNK     1      18.383  -0.604  34.107  1.00  0.00     0.026 A 
HETATM   11  C12 UNK     1      18.765  -1.088  32.854  1.00  0.00     0.032 A 
ENDROOT
BRANCH   4  12
HETATM   12  C3  UNK     1      18.144   5.371  32.559  1.00  0.00    -0.020 A 
HETATM   13  C10 UNK     1      19.195   6.153  33.038  1.00  0.00     0.015 A 
HETATM   14  C13 UNK     1      19.012   7.523  33.231  1.00  0.00     0.037 A 
HETATM   15  C15 UNK     1      17.778   8.108  32.946  1.00  0.00     0.068 A 
HETATM   16  C14 UNK     1      16.729   7.325  32.468  1.00  0.00     0.037 A 
HETATM   17  C11 UNK     1      16.911   5.955  32.274  1.00  0.00     0.015 A 
BRANCH  15  18
HETATM   18  O2  UNK     1      17.600   9.445  33.134  1.00  0.00    -0.356 OA
HETATM   19  C16 UNK     1      16.658   9.841  34.130  1.00  0.00     0.210 C 
ENDBRANCH  15  18
ENDBRANCH   4  12
BRANCH  10  20
HETATM   20  N1  UNK     1      18.200  -1.502  35.181  1.00  0.00    -0.399 N 
HETATM   21  H10 UNK     1      17.295  -1.925  35.337  1.00  0.00     0.156 HD
HETATM   22  H9  UNK     1      18.973  -1.722  35.794  1.00  0.00     0.156 HD
ENDBRANCH  10  20
TORSDOF 3
ENDMDL
MODEL 4
REMARK VINA RESULT:      -7.9      3.119      3.899
REMARK  3 active torsions:
REMARK  status: ('A' for Active; 'I' for Inactive)
REMARK    1  A    between atoms: C15_19  and  O2_2 
REMARK    2  A    between atoms: C9_13  and  N1_4 
REMARK    3  A    between atoms: C2_6  and  C3_7 
ROOT
HETATM    1  O1  UNK     1      18.346   1.814  32.211  1.00  0.00    -0.274 OA
HETATM    2  O3  UNK     1      18.266   3.751  31.008  1.00  0.00    -0.259 OA
HETATM    3  C1  UNK     1      18.314   1.893  34.637  1.00  0.00     0.001 A 
HETATM    4  C2  UNK     1      18.259   3.975  33.377  1.00  0.00     0.051 A 
HETATM    5  C4  UNK     1      18.272   3.344  34.561  1.00  0.00     0.032 A 
HETATM    6  C5  UNK     1      18.353   1.160  33.457  1.00  0.00     0.089 A 
HETATM    7  C6  UNK     1      18.320   1.209  35.855  1.00  0.00     0.043 A 
HETATM    8  C7  UNK     1      18.292   3.201  32.105  1.00  0.00     0.299 A 
HETATM    9  C8  UNK     1      18.397  -0.233  33.459  1.00  0.00     0.040 A 
HETATM   10  C9  UNK     1      18.365  -0.188  35.874  1.00  0.00     0.026 A 
HETATM   11  C12 UNK     1      18.403  -0.907  34.677  1.00  0.00     0.032 A 
ENDROOT
BRANCH   4  12
HETATM   12  C3  UNK     1      18.232   5.449  33.352  1.00  0.00    -0.020 A 
HETATM   13  C10 UNK     1      17.060   6.118  33.000  1.00  0.00     0.015 A 
HETATM   14  C13 UNK     1      17.034   7.513  32.978  1.00  0.00     0.037 A 
HETATM   15  C15 UNK     1      18.179   8.237  33.309  1.00  0.00     0.068 A 
HETATM   16  C14 UNK     1      19.350   7.568  33.661  1.00  0.00     0.037 A 
HETATM   17  C11 UNK     1      19.377   6.172  33.683  1.00  0.00     0.015 A 
BRANCH  15  18
HETATM   18  O2  UNK     1      18.153   9.598  33.288  1.00  0.00    -0.356 OA
HETATM   19  C16 UNK     1      17.137  10.240  34.056  1.00  0.00     0.210 C 
ENDBRANCH  15  18
ENDBRANCH   4  12
BRANCH  10  20
HETATM   20  N1  UNK     1      18.371  -0.875  37.107  1.00  0.00    -0.399 N 
HETATM   21  H10 UNK     1      18.291  -1.882  37.124  1.00  0.00     0.156 HD
HETATM   22  H9  UNK     1      18.455  -0.360  37.973  1.00  0.00     0.156 HD
ENDBRANCH  10  20
TORSDOF 3
ENDMDL
MODEL 5
REMARK VINA RESULT:      -7.8      4.209      8.711
REMARK  3 active torsions:
REMARK  status: ('A' for Active; 'I' for Inactive)
REMARK    1  A    between atoms: C15_19  and  O2_2 
REMARK    2  A    between atoms: C9_13  and  N1_4 
REMARK    3  A    between atoms: C2_6  and  C3_7 
ROOT
HETATM    1  O1  UNK     1      18.780   8.504  33.693  1.00  0.00    -0.274 OA
HETATM    2  O3  UNK     1      20.205   6.778  33.249  1.00  0.00    -0.259 OA
HETATM    3  C1  UNK     1      16.511   8.453  32.833  1.00  0.00     0.001 A 
HETATM    4  C2  UNK     1      18.022   6.615  32.318  1.00  0.00     0.051 A 
HETATM    5  C4  UNK     1      16.811   7.180  32.196  1.00  0.00     0.032 A 
HETATM    6  C5  UNK     1      17.506   9.087  33.566  1.00  0.00     0.089 A 
HETATM    7  C6  UNK     1      15.258   9.061  32.729  1.00  0.00     0.043 A 
HETATM    8  C7  UNK     1      19.094   7.281  33.108  1.00  0.00     0.299 A 
HETATM    9  C8  UNK     1      17.286  10.309  34.198  1.00  0.00     0.040 A 
HETATM   10  C9  UNK     1      15.021  10.287  33.358  1.00  0.00     0.026 A 
HETATM   11  C12 UNK     1      16.033  10.910  34.091  1.00  0.00     0.032 A 
ENDROOT
BRANCH   4  12
HETATM   12  C3  UNK     1      18.282   5.331  31.640  1.00  0.00    -0.020 A 
HETATM   13  C10 UNK     1      18.781   5.319  30.338  1.00  0.00     0.015 A 
HETATM   14  C13 UNK     1      19.029   4.104  29.698  1.00  0.00     0.037 A 
HETATM   15  C15 UNK     1      18.777   2.903  30.361  1.00  0.00     0.068 A 
HETATM   16  C14 UNK     1      18.279   2.916  31.663  1.00  0.00     0.037 A 
HETATM   17  C11 UNK     1      18.031   4.130  32.303  1.00  0.00     0.015 A 
BRANCH  15  18
HETATM   18  O2  UNK     1      19.020   1.718  29.736  1.00  0.00    -0.356 OA
HETATM   19  C16 UNK     1      18.215   1.406  28.600  1.00  0.00     0.210 C 
ENDBRANCH  15  18
ENDBRANCH   4  12
BRANCH  10  20
HETATM   20  N1  UNK     1      13.753  10.899  33.251  1.00  0.00    -0.399 N 
HETATM   21  H10 UNK     1      13.548  11.733  33.784  1.00  0.00     0.156 HD
HETATM   22  H9  UNK     1      13.050  10.503  32.643  1.00  0.00     0.156 HD
ENDBRANCH  10  20
TORSDOF 3
ENDMDL
MODEL 6
REMARK VINA RESULT:      -7.8      3.546      7.892
REMARK  3 active torsions:
REMARK  status: ('A' for Active; 'I' for Inactive)
REMARK    1  A    between atoms: C15_19  and  O2_2 
REMARK    2  A    between atoms: C9_13  and  N1_4 
REMARK    3  A    between atoms: C2_6  and  C3_7 
ROOT
HETATM    1  O1  UNK     1      19.287   7.446  32.833  1.00  0.00    -0.274 OA
HETATM    2  O3  UNK     1      20.651   5.938  31.797  1.00  0.00    -0.259 OA
HETATM    3  C1  UNK     1      16.905   7.009  32.997  1.00  0.00     0.001 A 
HETATM    4  C2  UNK     1      18.334   5.401  31.859  1.00  0.00     0.051 A 
HETATM    5  C4  UNK     1      17.110   5.769  32.266  1.00  0.00     0.032 A 
HETATM    6  C5  UNK     1      18.001   7.821  33.262  1.00  0.00     0.089 A 
HETATM    7  C6  UNK     1      15.643   7.414  33.440  1.00  0.00     0.043 A 
HETATM    8  C7  UNK     1      19.518   6.258  32.144  1.00  0.00     0.299 A 
HETATM    9  C8  UNK     1      17.873   9.024  33.954  1.00  0.00     0.040 A 
HETATM   10  C9  UNK     1      15.499   8.618  34.135  1.00  0.00     0.026 A 
HETATM   11  C12 UNK     1      16.612   9.421  34.393  1.00  0.00     0.032 A 
ENDROOT
BRANCH   4  12
HETATM   12  C3  UNK     1      18.489   4.141  31.108  1.00  0.00    -0.020 A 
HETATM   13  C10 UNK     1      18.570   2.928  31.791  1.00  0.00     0.015 A 
HETATM   14  C13 UNK     1      18.714   1.737  31.080  1.00  0.00     0.037 A 
HETATM   15  C15 UNK     1      18.778   1.760  29.687  1.00  0.00     0.068 A 
HETATM   16  C14 UNK     1      18.696   2.972  29.004  1.00  0.00     0.037 A 
HETATM   17  C11 UNK     1      18.552   4.165  29.715  1.00  0.00     0.015 A 
BRANCH  15  18
HETATM   18  O2  UNK     1      18.919   0.597  28.993  1.00  0.00    -0.356 OA
HETATM   19  C16 UNK     1      20.149  -0.109  29.151  1.00  0.00     0.210 C 
ENDBRANCH  15  18
ENDBRANCH   4  12
BRANCH  10  20
HETATM   20  N1  UNK     1      14.222   9.024  34.581  1.00  0.00    -0.399 N 
HETATM   21  H10 UNK     1      13.649   9.618  33.998  1.00  0.00     0.156 HD
HETATM   22  H9  UNK     1      13.882   8.722  35.484  1.00  0.00     0.156 HD
ENDBRANCH  10  20
TORSDOF 3
ENDMDL
MODEL 7
REMARK VINA RESULT:      -7.5      6.700     10.464
REMARK  3 active torsions:
REMARK  status: ('A' for Active; 'I' for Inactive)
REMARK    1  A    between atoms: C15_19  and  O2_2 
REMARK    2  A    between atoms: C9_13  and  N1_4 
REMARK    3  A    between atoms: C2_6  and  C3_7 
ROOT
HETATM    1  O1  UNK     1      19.563  -1.327  34.322  1.00  0.00    -0.274 OA
HETATM    2  O3  UNK     1      20.802  -3.205  33.944  1.00  0.00    -0.259 OA
HETATM    3  C1  UNK     1      18.448  -1.021  36.457  1.00  0.00     0.001 A 
HETATM    4  C2  UNK     1      19.738  -3.048  36.067  1.00  0.00     0.051 A 
HETATM    5  C4  UNK     1      18.965  -2.312  36.880  1.00  0.00     0.032 A 
HETATM    6  C5  UNK     1      18.758  -0.558  35.184  1.00  0.00     0.089 A 
HETATM    7  C6  UNK     1      17.647  -0.230  37.285  1.00  0.00     0.043 A 
HETATM    8  C7  UNK     1      20.084  -2.560  34.703  1.00  0.00     0.299 A 
HETATM    9  C8  UNK     1      18.293   0.668  34.715  1.00  0.00     0.040 A 
HETATM   10  C9  UNK     1      17.173   1.003  36.829  1.00  0.00     0.026 A 
HETATM   11  C12 UNK     1      17.495   1.452  35.546  1.00  0.00     0.032 A 
ENDROOT
BRANCH   4  12
HETATM   12  C3  UNK     1      20.225  -4.358  36.536  1.00  0.00    -0.020 A 
HETATM   13  C10 UNK     1      21.116  -4.427  37.607  1.00  0.00     0.015 A 
HETATM   14  C13 UNK     1      21.575  -5.667  38.052  1.00  0.00     0.037 A 
HETATM   15  C15 UNK     1      21.144  -6.836  37.425  1.00  0.00     0.068 A 
HETATM   16  C14 UNK     1      20.253  -6.767  36.356  1.00  0.00     0.037 A 
HETATM   17  C11 UNK     1      19.793  -5.527  35.910  1.00  0.00     0.015 A 
BRANCH  15  18
HETATM   18  O2  UNK     1      21.592  -8.046  37.860  1.00  0.00    -0.356 OA
HETATM   19  C16 UNK     1      22.514  -8.738  37.019  1.00  0.00     0.210 C 
ENDBRANCH  15  18
ENDBRANCH   4  12
BRANCH  10  20
HETATM   20  N1  UNK     1      16.364   1.800  37.669  1.00  0.00    -0.399 N 
HETATM   21  H10 UNK     1      15.448   1.474  37.944  1.00  0.00     0.156 HD
HETATM   22  H9  UNK     1      16.701   2.696  37.993  1.00  0.00     0.156 HD
ENDBRANCH  10  20
TORSDOF 3
ENDMDL
MODEL 8
REMARK VINA RESULT:      -7.5      2.051      3.461
REMARK  3 active torsions:
REMARK  status: ('A' for Active; 'I' for Inactive)
REMARK    1  A    between atoms: C15_19  and  O2_2 
REMARK    2  A    between atoms: C9_13  and  N1_4 
REMARK    3  A    between atoms: C2_6  and  C3_7 
ROOT
HETATM    1  O1  UNK     1      18.919   4.142  29.954  1.00  0.00    -0.274 OA
HETATM    2  O3  UNK     1      18.535   6.385  30.111  1.00  0.00    -0.259 OA
HETATM    3  C1  UNK     1      18.426   2.694  31.839  1.00  0.00     0.001 A 
HETATM    4  C2  UNK     1      18.038   5.088  32.043  1.00  0.00     0.051 A 
HETATM    5  C4  UNK     1      18.005   3.864  32.592  1.00  0.00     0.032 A 
HETATM    6  C5  UNK     1      18.876   2.861  30.536  1.00  0.00     0.089 A 
HETATM    7  C6  UNK     1      18.397   1.407  32.383  1.00  0.00     0.043 A 
HETATM    8  C7  UNK     1      18.510   5.279  30.644  1.00  0.00     0.299 A 
HETATM    9  C8  UNK     1      19.297   1.782  29.760  1.00  0.00     0.040 A 
HETATM   10  C9  UNK     1      18.815   0.315  31.618  1.00  0.00     0.026 A 
HETATM   11  C12 UNK     1      19.264   0.502  30.309  1.00  0.00     0.032 A 
ENDROOT
BRANCH   4  12
HETATM   12  C3  UNK     1      17.615   6.247  32.853  1.00  0.00    -0.020 A 
HETATM   13  C10 UNK     1      18.531   6.881  33.692  1.00  0.00     0.015 A 
HETATM   14  C13 UNK     1      18.132   7.977  34.456  1.00  0.00     0.037 A 
HETATM   15  C15 UNK     1      16.818   8.438  34.381  1.00  0.00     0.068 A 
HETATM   16  C14 UNK     1      15.903   7.804  33.542  1.00  0.00     0.037 A 
HETATM   17  C11 UNK     1      16.301   6.707  32.777  1.00  0.00     0.015 A 
BRANCH  15  18
HETATM   18  O2  UNK     1      16.428   9.508  35.127  1.00  0.00    -0.356 OA
HETATM   19  C16 UNK     1      16.311  10.761  34.454  1.00  0.00     0.210 C 
ENDBRANCH  15  18
ENDBRANCH   4  12
BRANCH  10  20
HETATM   20  N1  UNK     1      18.784  -0.984  32.170  1.00  0.00    -0.399 N 
HETATM   21  H10 UNK     1      18.436  -1.758  31.622  1.00  0.00     0.156 HD
HETATM   22  H9  UNK     1      19.109  -1.140  33.115  1.00  0.00     0.156 HD
ENDBRANCH  10  20
TORSDOF 3
ENDMDL
MODEL 9
REMARK VINA RESULT:      -7.5      4.537      9.403
REMARK  3 active torsions:
REMARK  status: ('A' for Active; 'I' for Inactive)
REMARK    1  A    between atoms: C15_19  and  O2_2 
REMARK    2  A    between atoms: C9_13  and  N1_4 
REMARK    3  A    between atoms: C2_6  and  C3_7 
ROOT
HETATM    1  O1  UNK     1      15.381   9.318  33.335  1.00  0.00    -0.274 OA
HETATM    2  O3  UNK     1      14.953   7.321  32.317  1.00  0.00    -0.259 OA
HETATM    3  C1  UNK     1      17.675  10.000  33.746  1.00  0.00     0.001 A 
HETATM    4  C2  UNK     1      17.243   7.851  32.687  1.00  0.00     0.051 A 
HETATM    5  C4  UNK     1      18.123   8.748  33.159  1.00  0.00     0.032 A 
HETATM    6  C5  UNK     1      16.311  10.255  33.822  1.00  0.00     0.089 A 
HETATM    7  C6  UNK     1      18.568  10.955  34.238  1.00  0.00     0.043 A 
HETATM    8  C7  UNK     1      15.779   8.116  32.756  1.00  0.00     0.299 A 
HETATM    9  C8  UNK     1      15.815  11.434  34.375  1.00  0.00     0.040 A 
HETATM   10  C9  UNK     1      18.085  12.143  34.796  1.00  0.00     0.026 A 
HETATM   11  C12 UNK     1      16.711  12.382  34.864  1.00  0.00     0.032 A 
ENDROOT
BRANCH   4  12
HETATM   12  C3  UNK     1      17.746   6.588  32.116  1.00  0.00    -0.020 A 
HETATM   13  C10 UNK     1      18.343   6.584  30.855  1.00  0.00     0.015 A 
HETATM   14  C13 UNK     1      18.821   5.389  30.315  1.00  0.00     0.037 A 
HETATM   15  C15 UNK     1      18.701   4.201  31.036  1.00  0.00     0.068 A 
HETATM   16  C14 UNK     1      18.104   4.206  32.296  1.00  0.00     0.037 A 
HETATM   17  C11 UNK     1      17.626   5.401  32.836  1.00  0.00     0.015 A 
BRANCH  15  18
HETATM   18  O2  UNK     1      19.167   3.036  30.509  1.00  0.00    -0.356 OA
HETATM   19  C16 UNK     1      18.404   2.448  29.456  1.00  0.00     0.210 C 
ENDBRANCH  15  18
ENDBRANCH   4  12
BRANCH  10  20
HETATM   20  N1  UNK     1      18.991  13.105  35.292  1.00  0.00    -0.399 N 
HETATM   21  H10 UNK     1      19.986  12.930  35.254  1.00  0.00     0.156 HD
HETATM   22  H9  UNK     1      18.645  13.969  35.687  1.00  0.00     0.156 HD
ENDBRANCH  10  20
TORSDOF 3
ENDMDL
MODEL 10
REMARK VINA RESULT:      -7.4     22.365     24.012
REMARK  3 active torsions:
REMARK  status: ('A' for Active; 'I' for Inactive)
REMARK    1  A    between atoms: C15_19  and  O2_2 
REMARK    2  A    between atoms: C9_13  and  N1_4 
REMARK    3  A    between atoms: C2_6  and  C3_7 
ROOT
HETATM    1  O1  UNK     1      11.491   7.589   9.988  1.00  0.00    -0.274 OA
HETATM    2  O3  UNK     1      13.085   8.482  11.354  1.00  0.00    -0.259 OA
HETATM    3  C1  UNK     1      11.935   7.329   7.616  1.00  0.00     0.001 A 
HETATM    4  C2  UNK     1      13.641   8.314   9.046  1.00  0.00     0.051 A 
HETATM    5  C4  UNK     1      13.245   7.924   7.824  1.00  0.00     0.032 A 
HETATM    6  C5  UNK     1      11.086   7.177   8.705  1.00  0.00     0.089 A 
HETATM    7  C6  UNK     1      11.499   6.907   6.357  1.00  0.00     0.043 A 
HETATM    8  C7  UNK     1      12.743   8.149  10.223  1.00  0.00     0.299 A 
HETATM    9  C8  UNK     1       9.816   6.618   8.574  1.00  0.00     0.040 A 
HETATM   10  C9  UNK     1      10.228   6.344   6.209  1.00  0.00     0.026 A 
HETATM   11  C12 UNK     1       9.389   6.199   7.315  1.00  0.00     0.032 A 
ENDROOT
BRANCH   4  12
HETATM   12  C3  UNK     1      14.973   8.926   9.204  1.00  0.00    -0.020 A 
HETATM   13  C10 UNK     1      15.985   8.231   9.867  1.00  0.00     0.015 A 
HETATM   14  C13 UNK     1      17.245   8.810  10.015  1.00  0.00     0.037 A 
HETATM   15  C15 UNK     1      17.493  10.083   9.501  1.00  0.00     0.068 A 
HETATM   16  C14 UNK     1      16.481  10.777   8.838  1.00  0.00     0.037 A 
HETATM   17  C11 UNK     1      15.220  10.198   8.690  1.00  0.00     0.015 A 
BRANCH  15  18
HETATM   18  O2  UNK     1      18.723  10.648   9.645  1.00  0.00    -0.356 OA
HETATM   19  C16 UNK     1      19.005  11.802   8.855  1.00  0.00     0.210 C 
ENDBRANCH  15  18
ENDBRANCH   4  12
BRANCH  10  20
HETATM   20  N1  UNK     1       9.792   5.919   4.936  1.00  0.00    -0.399 N 
HETATM   21  H10 UNK     1      10.040   5.000   4.597  1.00  0.00     0.156 HD
HETATM   22  H9  UNK     1       9.231   6.534   4.362  1.00  0.00     0.156 HD
ENDBRANCH  10  20
TORSDOF 3
ENDMDL
