MODEL 1
REMARK VINA RESULT:      -8.0      0.000      0.000
REMARK  5 active torsions:
REMARK  status: ('A' for Active; 'I' for Inactive)
REMARK    1  A    between atoms: C9_15  and  O2_2 
REMARK    2  A    between atoms: C10_16  and  O3_3 
REMARK    3  A    between atoms: C11_17  and  O4_4 
REMARK    4  A    between atoms: C14_20  and  O6_6 
REMARK    5  A    between atoms: C3_9  and  C6_12 
ROOT
HETATM    1  O1  UNK     1      19.548  -5.310  37.071  1.00  0.00    -0.306 OA
HETATM    2  O5  UNK     1      22.790  -5.161  38.488  1.00  0.00    -0.284 OA
HETATM    3  C1  UNK     1      20.983  -6.715  38.212  1.00  0.00     0.051 A 
HETATM    4  C2  UNK     1      20.711  -4.602  37.349  1.00  0.00     0.127 A 
HETATM    5  C4  UNK     1      19.742  -6.567  37.597  1.00  0.00     0.093 A 
HETATM    6  C5  UNK     1      21.684  -5.444  38.084  1.00  0.00     0.218 A 
HETATM    7  C6  UNK     1      20.925  -3.331  37.002  1.00  0.00     0.053 C 
HETATM    8  C12 UNK     1      21.382  -7.895  38.804  1.00  0.00     0.021 A 
HETATM    9  C13 UNK     1      18.838  -7.607  37.552  1.00  0.00     0.074 A 
HETATM   10  C14 UNK     1      19.217  -8.815  38.146  1.00  0.00     0.068 A 
HETATM   11  C15 UNK     1      20.475  -8.958  38.766  1.00  0.00     0.037 A 
ENDROOT
BRANCH   7  12
HETATM   12  C3  UNK     1      19.982  -2.464  36.272  1.00  0.00    -0.028 A 
HETATM   13  C7  UNK     1      18.974  -1.822  36.971  1.00  0.00     0.051 A 
HETATM   14  C10 UNK     1      18.081  -1.001  36.281  1.00  0.00     0.105 A 
HETATM   15  C11 UNK     1      18.211  -0.834  34.902  1.00  0.00     0.135 A 
HETATM   16  C9  UNK     1      19.233  -1.488  34.214  1.00  0.00     0.105 A 
HETATM   17  C8  UNK     1      20.125  -2.309  34.904  1.00  0.00     0.051 A 
BRANCH  14  18
HETATM   18  O3  UNK     1      17.088  -0.367  36.966  1.00  0.00    -0.353 OA
HETATM   19  C17 UNK     1      17.476   0.698  37.831  1.00  0.00     0.210 C 
ENDBRANCH  14  18
BRANCH  15  20
HETATM   20  O4  UNK     1      17.340  -0.032  34.227  1.00  0.00    -0.351 OA
HETATM   21  C18 UNK     1      17.683   1.347  34.116  1.00  0.00     0.210 C 
ENDBRANCH  15  20
BRANCH  16  22
HETATM   22  O2  UNK     1      19.370  -1.334  32.867  1.00  0.00    -0.353 OA
HETATM   23  C16 UNK     1      20.394  -2.093  32.229  1.00  0.00     0.210 C 
ENDBRANCH  16  22
ENDBRANCH   7  12
BRANCH  10  24
HETATM   24  O6  UNK     1      18.357  -9.873  38.126  1.00  0.00    -0.361 OA
HETATM   25  H16 UNK     1      18.184 -10.156  39.040  1.00  0.00     0.217 HD
ENDBRANCH  10  24
TORSDOF 5
ENDMDL
MODEL 2
REMARK VINA RESULT:      -8.0      0.053      2.619
REMARK  5 active torsions:
REMARK  status: ('A' for Active; 'I' for Inactive)
REMARK    1  A    between atoms: C9_15  and  O2_2 
REMARK    2  A    between atoms: C10_16  and  O3_3 
REMARK    3  A    between atoms: C11_17  and  O4_4 
REMARK    4  A    between atoms: C14_20  and  O6_6 
REMARK    5  A    between atoms: C3_9  and  C6_12 
ROOT
HETATM    1  O1  UNK     1      19.530  -5.297  37.048  1.00  0.00    -0.306 OA
HETATM    2  O5  UNK     1      22.761  -5.175  38.491  1.00  0.00    -0.284 OA
HETATM    3  C1  UNK     1      20.944  -6.714  38.200  1.00  0.00     0.051 A 
HETATM    4  C2  UNK     1      20.696  -4.599  37.335  1.00  0.00     0.127 A 
HETATM    5  C4  UNK     1      19.709  -6.555  37.576  1.00  0.00     0.093 A 
HETATM    6  C5  UNK     1      21.657  -5.449  38.078  1.00  0.00     0.218 A 
HETATM    7  C6  UNK     1      20.925  -3.330  36.989  1.00  0.00     0.053 C 
HETATM    8  C12 UNK     1      21.327  -7.897  38.796  1.00  0.00     0.021 A 
HETATM    9  C13 UNK     1      18.797  -7.587  37.524  1.00  0.00     0.074 A 
HETATM   10  C14 UNK     1      19.160  -8.799  38.121  1.00  0.00     0.068 A 
HETATM   11  C15 UNK     1      20.412  -8.952  38.751  1.00  0.00     0.037 A 
ENDROOT
BRANCH   7  12
HETATM   12  C3  UNK     1      19.995  -2.455  36.251  1.00  0.00    -0.028 A 
HETATM   13  C7  UNK     1      20.154  -2.300  34.884  1.00  0.00     0.051 A 
HETATM   14  C10 UNK     1      19.274  -1.471  34.186  1.00  0.00     0.105 A 
HETATM   15  C11 UNK     1      18.250  -0.811  34.864  1.00  0.00     0.135 A 
HETATM   16  C9  UNK     1      18.105  -0.980  36.241  1.00  0.00     0.105 A 
HETATM   17  C8  UNK     1      18.984  -1.807  36.940  1.00  0.00     0.051 A 
BRANCH  14  18
HETATM   18  O3  UNK     1      19.427  -1.317  32.840  1.00  0.00    -0.353 OA
HETATM   19  C17 UNK     1      20.456  -2.078  32.213  1.00  0.00     0.210 C 
ENDBRANCH  14  18
BRANCH  15  20
HETATM   20  O4  UNK     1      17.391  -0.002  34.182  1.00  0.00    -0.351 OA
HETATM   21  C18 UNK     1      17.753   1.372  34.064  1.00  0.00     0.210 C 
ENDBRANCH  15  20
BRANCH  16  22
HETATM   22  O2  UNK     1      17.109  -0.340  36.915  1.00  0.00    -0.353 OA
HETATM   23  C16 UNK     1      17.495   0.715  37.794  1.00  0.00     0.210 C 
ENDBRANCH  16  22
ENDBRANCH   7  12
BRANCH  10  24
HETATM   24  O6  UNK     1      18.291  -9.849  38.094  1.00  0.00    -0.361 OA
HETATM   25  H16 UNK     1      18.420 -10.344  37.267  1.00  0.00     0.217 HD
ENDBRANCH  10  24
TORSDOF 5
ENDMDL
MODEL 3
REMARK VINA RESULT:      -7.9      5.646      9.751
REMARK  5 active torsions:
REMARK  status: ('A' for Active; 'I' for Inactive)
REMARK    1  A    between atoms: C9_15  and  O2_2 
REMARK    2  A    between atoms: C10_16  and  O3_3 
REMARK    3  A    between atoms: C11_17  and  O4_4 
REMARK    4  A    between atoms: C14_20  and  O6_6 
REMARK    5  A    between atoms: C3_9  and  C6_12 
ROOT
HETATM    1  O1  UNK     1      18.013   2.962  33.260  1.00  0.00    -0.306 OA
HETATM    2  O5  UNK     1      19.027   2.505  29.898  1.00  0.00    -0.284 OA
HETATM    3  C1  UNK     1      18.696   1.225  31.901  1.00  0.00     0.051 A 
HETATM    4  C2  UNK     1      18.271   3.482  31.997  1.00  0.00     0.127 A 
HETATM    5  C4  UNK     1      18.275   1.615  33.170  1.00  0.00     0.093 A 
HETATM    6  C5  UNK     1      18.716   2.419  31.065  1.00  0.00     0.218 A 
HETATM    7  C6  UNK     1      18.136   4.767  31.665  1.00  0.00     0.053 C 
HETATM    8  C12 UNK     1      19.011  -0.082  31.592  1.00  0.00     0.021 A 
HETATM    9  C13 UNK     1      18.153   0.700  34.194  1.00  0.00     0.074 A 
HETATM   10  C14 UNK     1      18.467  -0.633  33.909  1.00  0.00     0.068 A 
HETATM   11  C15 UNK     1      18.892  -1.020  32.621  1.00  0.00     0.037 A 
ENDROOT
BRANCH   7  12
HETATM   12  C3  UNK     1      17.696   5.851  32.563  1.00  0.00    -0.028 A 
HETATM   13  C7  UNK     1      18.618   6.444  33.409  1.00  0.00     0.051 A 
HETATM   14  C10 UNK     1      18.202   7.470  34.259  1.00  0.00     0.105 A 
HETATM   15  C11 UNK     1      16.871   7.886  34.249  1.00  0.00     0.135 A 
HETATM   16  C9  UNK     1      15.956   7.279  33.390  1.00  0.00     0.105 A 
HETATM   17  C8  UNK     1      16.372   6.253  32.541  1.00  0.00     0.051 A 
BRANCH  14  18
HETATM   18  O3  UNK     1      19.107   8.056  35.093  1.00  0.00    -0.353 OA
HETATM   19  C17 UNK     1      20.035   8.964  34.505  1.00  0.00     0.210 C 
ENDBRANCH  14  18
BRANCH  15  20
HETATM   20  O4  UNK     1      16.464   8.888  35.080  1.00  0.00    -0.351 OA
HETATM   21  C18 UNK     1      16.388  10.198  34.523  1.00  0.00     0.210 C 
ENDBRANCH  15  20
BRANCH  16  22
HETATM   22  O2  UNK     1      14.653   7.676  33.372  1.00  0.00    -0.353 OA
HETATM   23  C16 UNK     1      13.861   7.249  32.267  1.00  0.00     0.210 C 
ENDBRANCH  16  22
ENDBRANCH   7  12
BRANCH  10  24
HETATM   24  O6  UNK     1      18.360  -1.573  34.890  1.00  0.00    -0.361 OA
HETATM   25  H16 UNK     1      19.031  -2.262  34.740  1.00  0.00     0.217 HD
ENDBRANCH  10  24
TORSDOF 5
ENDMDL
MODEL 4
REMARK VINA RESULT:      -7.9      5.647      9.737
REMARK  5 active torsions:
REMARK  status: ('A' for Active; 'I' for Inactive)
REMARK    1  A    between atoms: C9_15  and  O2_2 
REMARK    2  A    between atoms: C10_16  and  O3_3 
REMARK    3  A    between atoms: C11_17  and  O4_4 
REMARK    4  A    between atoms: C14_20  and  O6_6 
REMARK    5  A    between atoms: C3_9  and  C6_12 
ROOT
HETATM    1  O1  UNK     1      18.010   2.971  33.262  1.00  0.00    -0.306 OA
HETATM    2  O5  UNK     1      19.019   2.508  29.899  1.00  0.00    -0.284 OA
HETATM    3  C1  UNK     1      18.693   1.232  31.904  1.00  0.00     0.051 A 
HETATM    4  C2  UNK     1      18.265   3.488  31.998  1.00  0.00     0.127 A 
HETATM    5  C4  UNK     1      18.274   1.623  33.174  1.00  0.00     0.093 A 
HETATM    6  C5  UNK     1      18.711   2.424  31.067  1.00  0.00     0.218 A 
HETATM    7  C6  UNK     1      18.128   4.773  31.663  1.00  0.00     0.053 C 
HETATM    8  C12 UNK     1      19.010  -0.076  31.598  1.00  0.00     0.021 A 
HETATM    9  C13 UNK     1      18.155   0.710  34.200  1.00  0.00     0.074 A 
HETATM   10  C14 UNK     1      18.471  -0.623  33.916  1.00  0.00     0.068 A 
HETATM   11  C15 UNK     1      18.894  -1.012  32.629  1.00  0.00     0.037 A 
ENDROOT
BRANCH   7  12
HETATM   12  C3  UNK     1      17.688   5.858  32.560  1.00  0.00    -0.028 A 
HETATM   13  C7  UNK     1      16.364   6.260  32.536  1.00  0.00     0.051 A 
HETATM   14  C10 UNK     1      15.947   7.287  33.385  1.00  0.00     0.105 A 
HETATM   15  C11 UNK     1      16.862   7.895  34.245  1.00  0.00     0.135 A 
HETATM   16  C9  UNK     1      18.192   7.476  34.257  1.00  0.00     0.105 A 
HETATM   17  C8  UNK     1      18.609   6.451  33.408  1.00  0.00     0.051 A 
BRANCH  14  18
HETATM   18  O3  UNK     1      14.644   7.685  33.364  1.00  0.00    -0.353 OA
HETATM   19  C17 UNK     1      13.855   7.262  32.254  1.00  0.00     0.210 C 
ENDBRANCH  14  18
BRANCH  15  20
HETATM   20  O4  UNK     1      16.455   8.897  35.074  1.00  0.00    -0.351 OA
HETATM   21  C18 UNK     1      16.417  10.213  34.527  1.00  0.00     0.210 C 
ENDBRANCH  15  20
BRANCH  16  22
HETATM   22  O2  UNK     1      19.095   8.062  35.091  1.00  0.00    -0.353 OA
HETATM   23  C16 UNK     1      20.033   8.961  34.503  1.00  0.00     0.210 C 
ENDBRANCH  16  22
ENDBRANCH   7  12
BRANCH  10  24
HETATM   24  O6  UNK     1      18.367  -1.562  34.899  1.00  0.00    -0.361 OA
HETATM   25  H16 UNK     1      19.027  -1.370  35.588  1.00  0.00     0.217 HD
ENDBRANCH  10  24
TORSDOF 5
ENDMDL
MODEL 5
REMARK VINA RESULT:      -7.9     17.114     21.411
REMARK  5 active torsions:
REMARK  status: ('A' for Active; 'I' for Inactive)
REMARK    1  A    between atoms: C9_15  and  O2_2 
REMARK    2  A    between atoms: C10_16  and  O3_3 
REMARK    3  A    between atoms: C11_17  and  O4_4 
REMARK    4  A    between atoms: C14_20  and  O6_6 
REMARK    5  A    between atoms: C3_9  and  C6_12 
ROOT
HETATM    1  O1  UNK     1      19.322  -0.992  17.340  1.00  0.00    -0.306 OA
HETATM    2  O5  UNK     1      19.100   1.876  15.275  1.00  0.00    -0.284 OA
HETATM    3  C1  UNK     1      19.121   1.294  17.603  1.00  0.00     0.051 A 
HETATM    4  C2  UNK     1      19.290  -0.417  16.076  1.00  0.00     0.127 A 
HETATM    5  C4  UNK     1      19.220   0.053  18.229  1.00  0.00     0.093 A 
HETATM    6  C5  UNK     1      19.161   1.058  16.165  1.00  0.00     0.218 A 
HETATM    7  C6  UNK     1      19.364  -1.098  14.931  1.00  0.00     0.053 C 
HETATM    8  C12 UNK     1      19.009   2.474  18.307  1.00  0.00     0.021 A 
HETATM    9  C13 UNK     1      19.211  -0.055  19.603  1.00  0.00     0.074 A 
HETATM   10  C14 UNK     1      19.099   1.127  20.342  1.00  0.00     0.068 A 
HETATM   11  C15 UNK     1      18.999   2.378  19.701  1.00  0.00     0.037 A 
ENDROOT
BRANCH   7  12
HETATM   12  C3  UNK     1      19.493  -2.562  14.803  1.00  0.00    -0.028 A 
HETATM   13  C7  UNK     1      18.407  -3.300  14.363  1.00  0.00     0.051 A 
HETATM   14  C10 UNK     1      18.528  -4.685  14.242  1.00  0.00     0.105 A 
HETATM   15  C11 UNK     1      19.733  -5.310  14.562  1.00  0.00     0.135 A 
HETATM   16  C9  UNK     1      20.817  -4.551  15.003  1.00  0.00     0.105 A 
HETATM   17  C8  UNK     1      20.695  -3.167  15.125  1.00  0.00     0.051 A 
BRANCH  14  18
HETATM   18  O3  UNK     1      17.462  -5.415  13.809  1.00  0.00    -0.353 OA
HETATM   19  C17 UNK     1      16.743  -6.157  14.791  1.00  0.00     0.210 C 
ENDBRANCH  14  18
BRANCH  15  20
HETATM   20  O4  UNK     1      19.852  -6.663  14.444  1.00  0.00    -0.351 OA
HETATM   21  C18 UNK     1      20.324  -7.164  13.196  1.00  0.00     0.210 C 
ENDBRANCH  15  20
BRANCH  16  22
HETATM   22  O2  UNK     1      21.999  -5.149  15.319  1.00  0.00    -0.353 OA
HETATM   23  C16 UNK     1      22.711  -4.627  16.439  1.00  0.00     0.210 C 
ENDBRANCH  16  22
ENDBRANCH   7  12
BRANCH  10  24
HETATM   24  O6  UNK     1      19.086   1.069  21.704  1.00  0.00    -0.361 OA
HETATM   25  H16 UNK     1      18.304   1.545  22.032  1.00  0.00     0.217 HD
ENDBRANCH  10  24
TORSDOF 5
ENDMDL
MODEL 6
REMARK VINA RESULT:      -7.9     17.115     21.427
REMARK  5 active torsions:
REMARK  status: ('A' for Active; 'I' for Inactive)
REMARK    1  A    between atoms: C9_15  and  O2_2 
REMARK    2  A    between atoms: C10_16  and  O3_3 
REMARK    3  A    between atoms: C11_17  and  O4_4 
REMARK    4  A    between atoms: C14_20  and  O6_6 
REMARK    5  A    between atoms: C3_9  and  C6_12 
ROOT
HETATM    1  O1  UNK     1      19.318  -0.984  17.344  1.00  0.00    -0.306 OA
HETATM    2  O5  UNK     1      19.099   1.882  15.276  1.00  0.00    -0.284 OA
HETATM    3  C1  UNK     1      19.121   1.302  17.604  1.00  0.00     0.051 A 
HETATM    4  C2  UNK     1      19.286  -0.410  16.079  1.00  0.00     0.127 A 
HETATM    5  C4  UNK     1      19.219   0.062  18.231  1.00  0.00     0.093 A 
HETATM    6  C5  UNK     1      19.159   1.064  16.167  1.00  0.00     0.218 A 
HETATM    7  C6  UNK     1      19.358  -1.093  14.934  1.00  0.00     0.053 C 
HETATM    8  C12 UNK     1      19.012   2.483  18.308  1.00  0.00     0.021 A 
HETATM    9  C13 UNK     1      19.210  -0.046  19.605  1.00  0.00     0.074 A 
HETATM   10  C14 UNK     1      19.100   1.137  20.344  1.00  0.00     0.068 A 
HETATM   11  C15 UNK     1      19.002   2.389  19.702  1.00  0.00     0.037 A 
ENDROOT
BRANCH   7  12
HETATM   12  C3  UNK     1      19.484  -2.557  14.808  1.00  0.00    -0.028 A 
HETATM   13  C7  UNK     1      20.691  -3.161  15.118  1.00  0.00     0.051 A 
HETATM   14  C10 UNK     1      20.811  -4.546  14.998  1.00  0.00     0.105 A 
HETATM   15  C11 UNK     1      19.722  -5.306  14.570  1.00  0.00     0.135 A 
HETATM   16  C9  UNK     1      18.513  -4.681  14.263  1.00  0.00     0.105 A 
HETATM   17  C8  UNK     1      18.394  -3.296  14.381  1.00  0.00     0.051 A 
BRANCH  14  18
HETATM   18  O3  UNK     1      21.996  -5.144  15.303  1.00  0.00    -0.353 OA
HETATM   19  C17 UNK     1      22.699  -4.648  16.440  1.00  0.00     0.210 C 
ENDBRANCH  14  18
BRANCH  15  20
HETATM   20  O4  UNK     1      19.838  -6.659  14.453  1.00  0.00    -0.351 OA
HETATM   21  C18 UNK     1      20.302  -7.162  13.203  1.00  0.00     0.210 C 
ENDBRANCH  15  20
BRANCH  16  22
HETATM   22  O2  UNK     1      17.443  -5.411  13.843  1.00  0.00    -0.353 OA
HETATM   23  C16 UNK     1      16.733  -6.149  14.835  1.00  0.00     0.210 C 
ENDBRANCH  16  22
ENDBRANCH   7  12
BRANCH  10  24
HETATM   24  O6  UNK     1      19.089   1.081  21.706  1.00  0.00    -0.361 OA
HETATM   25  H16 UNK     1      18.166   1.057  22.012  1.00  0.00     0.217 HD
ENDBRANCH  10  24
TORSDOF 5
ENDMDL
MODEL 7
REMARK VINA RESULT:      -7.8     17.218     22.009
REMARK  5 active torsions:
REMARK  status: ('A' for Active; 'I' for Inactive)
REMARK    1  A    between atoms: C9_15  and  O2_2 
REMARK    2  A    between atoms: C10_16  and  O3_3 
REMARK    3  A    between atoms: C11_17  and  O4_4 
REMARK    4  A    between atoms: C14_20  and  O6_6 
REMARK    5  A    between atoms: C3_9  and  C6_12 
ROOT
HETATM    1  O1  UNK     1      19.237  -0.482  16.953  1.00  0.00    -0.306 OA
HETATM    2  O5  UNK     1      19.277   2.704  15.409  1.00  0.00    -0.284 OA
HETATM    3  C1  UNK     1      19.210   1.734  17.602  1.00  0.00     0.051 A 
HETATM    4  C2  UNK     1      19.273   0.301  15.806  1.00  0.00     0.127 A 
HETATM    5  C4  UNK     1      19.201   0.401  18.007  1.00  0.00     0.093 A 
HETATM    6  C5  UNK     1      19.258   1.744  16.146  1.00  0.00     0.218 A 
HETATM    7  C6  UNK     1      19.315  -0.178  14.561  1.00  0.00     0.053 C 
HETATM    8  C12 UNK     1      19.178   2.782  18.499  1.00  0.00     0.021 A 
HETATM    9  C13 UNK     1      19.158   0.060  19.342  1.00  0.00     0.074 A 
HETATM   10  C14 UNK     1      19.124   1.104  20.273  1.00  0.00     0.068 A 
HETATM   11  C15 UNK     1      19.134   2.450  19.856  1.00  0.00     0.037 A 
ENDROOT
BRANCH   7  12
HETATM   12  C3  UNK     1      19.332  -1.604  14.184  1.00  0.00    -0.028 A 
HETATM   13  C7  UNK     1      18.944  -1.971  12.907  1.00  0.00     0.051 A 
HETATM   14  C10 UNK     1      18.959  -3.320  12.550  1.00  0.00     0.105 A 
HETATM   15  C11 UNK     1      19.363  -4.281  13.476  1.00  0.00     0.135 A 
HETATM   16  C9  UNK     1      19.751  -3.894  14.759  1.00  0.00     0.105 A 
HETATM   17  C8  UNK     1      19.735  -2.546  15.115  1.00  0.00     0.051 A 
BRANCH  14  18
HETATM   18  O3  UNK     1      18.578  -3.684  11.293  1.00  0.00    -0.353 OA
HETATM   19  C17 UNK     1      19.443  -3.315  10.222  1.00  0.00     0.210 C 
ENDBRANCH  14  18
BRANCH  15  20
HETATM   20  O4  UNK     1      19.378  -5.599  13.128  1.00  0.00    -0.351 OA
HETATM   21  C18 UNK     1      18.192  -6.349  13.381  1.00  0.00     0.210 C 
ENDBRANCH  15  20
BRANCH  16  22
HETATM   22  O2  UNK     1      20.147  -4.824  15.672  1.00  0.00    -0.353 OA
HETATM   23  C16 UNK     1      21.550  -5.001  15.851  1.00  0.00     0.210 C 
ENDBRANCH  16  22
ENDBRANCH   7  12
BRANCH  10  24
HETATM   24  O6  UNK     1      19.082   0.816  21.605  1.00  0.00    -0.361 OA
HETATM   25  H16 UNK     1      18.155   0.695  21.872  1.00  0.00     0.217 HD
ENDBRANCH  10  24
TORSDOF 5
ENDMDL
MODEL 8
REMARK VINA RESULT:      -7.8     17.277     21.988
REMARK  5 active torsions:
REMARK  status: ('A' for Active; 'I' for Inactive)
REMARK    1  A    between atoms: C9_15  and  O2_2 
REMARK    2  A    between atoms: C10_16  and  O3_3 
REMARK    3  A    between atoms: C11_17  and  O4_4 
REMARK    4  A    between atoms: C14_20  and  O6_6 
REMARK    5  A    between atoms: C3_9  and  C6_12 
ROOT
HETATM    1  O1  UNK     1      19.228  -0.514  16.932  1.00  0.00    -0.306 OA
HETATM    2  O5  UNK     1      19.276   2.686  15.416  1.00  0.00    -0.284 OA
HETATM    3  C1  UNK     1      19.217   1.696  17.601  1.00  0.00     0.051 A 
HETATM    4  C2  UNK     1      19.261   0.279  15.792  1.00  0.00     0.127 A 
HETATM    5  C4  UNK     1      19.203   0.360  17.994  1.00  0.00     0.093 A 
HETATM    6  C5  UNK     1      19.256   1.719  16.145  1.00  0.00     0.218 A 
HETATM    7  C6  UNK     1      19.292  -0.190  14.543  1.00  0.00     0.053 C 
HETATM    8  C12 UNK     1      19.196   2.736  18.507  1.00  0.00     0.021 A 
HETATM    9  C13 UNK     1      19.167   0.008  19.327  1.00  0.00     0.074 A 
HETATM   10  C14 UNK     1      19.145   1.043  20.267  1.00  0.00     0.068 A 
HETATM   11  C15 UNK     1      19.159   2.393  19.861  1.00  0.00     0.037 A 
ENDROOT
BRANCH   7  12
HETATM   12  C3  UNK     1      19.298  -1.612  14.154  1.00  0.00    -0.028 A 
HETATM   13  C7  UNK     1      19.661  -2.567  15.088  1.00  0.00     0.051 A 
HETATM   14  C10 UNK     1      19.667  -3.913  14.720  1.00  0.00     0.105 A 
HETATM   15  C11 UNK     1      19.310  -4.283  13.424  1.00  0.00     0.135 A 
HETATM   16  C9  UNK     1      18.946  -3.308  12.495  1.00  0.00     0.105 A 
HETATM   17  C8  UNK     1      18.941  -1.963  12.863  1.00  0.00     0.051 A 
BRANCH  14  18
HETATM   18  O3  UNK     1      20.023  -4.857  15.637  1.00  0.00    -0.353 OA
HETATM   19  C17 UNK     1      21.418  -5.074  15.834  1.00  0.00     0.210 C 
ENDBRANCH  14  18
BRANCH  15  20
HETATM   20  O4  UNK     1      19.315  -5.598  13.064  1.00  0.00    -0.351 OA
HETATM   21  C18 UNK     1      20.484  -6.085  12.409  1.00  0.00     0.210 C 
ENDBRANCH  15  20
BRANCH  16  22
HETATM   22  O2  UNK     1      18.596  -3.657  11.226  1.00  0.00    -0.353 OA
HETATM   23  C16 UNK     1      19.466  -3.241  10.177  1.00  0.00     0.210 C 
ENDBRANCH  16  22
ENDBRANCH   7  12
BRANCH  10  24
HETATM   24  O6  UNK     1      19.109   0.744  21.596  1.00  0.00    -0.361 OA
HETATM   25  H16 UNK     1      19.874   1.157  22.033  1.00  0.00     0.217 HD
ENDBRANCH  10  24
TORSDOF 5
ENDMDL
MODEL 9
REMARK VINA RESULT:      -7.7      5.303      9.235
REMARK  5 active torsions:
REMARK  status: ('A' for Active; 'I' for Inactive)
REMARK    1  A    between atoms: C9_15  and  O2_2 
REMARK    2  A    between atoms: C10_16  and  O3_3 
REMARK    3  A    between atoms: C11_17  and  O4_4 
REMARK    4  A    between atoms: C14_20  and  O6_6 
REMARK    5  A    between atoms: C3_9  and  C6_12 
ROOT
HETATM    1  O1  UNK     1      18.021   3.149  34.522  1.00  0.00    -0.306 OA
HETATM    2  O5  UNK     1      18.624   0.773  31.967  1.00  0.00    -0.284 OA
HETATM    3  C1  UNK     1      18.355   0.871  34.349  1.00  0.00     0.051 A 
HETATM    4  C2  UNK     1      18.206   2.844  33.179  1.00  0.00     0.127 A 
HETATM    5  C4  UNK     1      18.115   1.953  35.194  1.00  0.00     0.093 A 
HETATM    6  C5  UNK     1      18.427   1.390  32.990  1.00  0.00     0.218 A 
HETATM    7  C6  UNK     1      18.187   3.738  32.188  1.00  0.00     0.053 C 
HETATM    8  C12 UNK     1      18.484  -0.421  34.816  1.00  0.00     0.021 A 
HETATM    9  C13 UNK     1      17.994   1.782  36.556  1.00  0.00     0.074 A 
HETATM   10  C14 UNK     1      18.121   0.482  37.056  1.00  0.00     0.068 A 
HETATM   11  C15 UNK     1      18.364  -0.608  36.196  1.00  0.00     0.037 A 
ENDROOT
BRANCH   7  12
HETATM   12  C3  UNK     1      17.970   5.189  32.338  1.00  0.00    -0.028 A 
HETATM   13  C7  UNK     1      18.931   5.954  32.975  1.00  0.00     0.051 A 
HETATM   14  C10 UNK     1      18.726   7.327  33.117  1.00  0.00     0.105 A 
HETATM   15  C11 UNK     1      17.563   7.914  32.619  1.00  0.00     0.135 A 
HETATM   16  C9  UNK     1      16.605   7.127  31.979  1.00  0.00     0.105 A 
HETATM   17  C8  UNK     1      16.809   5.755  31.838  1.00  0.00     0.051 A 
BRANCH  14  18
HETATM   18  O3  UNK     1      19.671   8.084  33.743  1.00  0.00    -0.353 OA
HETATM   19  C17 UNK     1      19.677   8.064  35.168  1.00  0.00     0.210 C 
ENDBRANCH  14  18
BRANCH  15  20
HETATM   20  O4  UNK     1      17.362   9.255  32.757  1.00  0.00    -0.351 OA
HETATM   21  C18 UNK     1      16.599   9.682  33.883  1.00  0.00     0.210 C 
ENDBRANCH  15  20
BRANCH  16  22
HETATM   22  O2  UNK     1      15.464   7.688  31.489  1.00  0.00    -0.353 OA
HETATM   23  C16 UNK     1      14.230   7.236  32.044  1.00  0.00     0.210 C 
ENDBRANCH  16  22
ENDBRANCH   7  12
BRANCH  10  24
HETATM   24  O6  UNK     1      18.009   0.264  38.398  1.00  0.00    -0.361 OA
HETATM   25  H16 UNK     1      17.139  -0.131  38.580  1.00  0.00     0.217 HD
ENDBRANCH  10  24
TORSDOF 5
ENDMDL
MODEL 10
REMARK VINA RESULT:      -7.7      5.281      9.235
REMARK  5 active torsions:
REMARK  status: ('A' for Active; 'I' for Inactive)
REMARK    1  A    between atoms: C9_15  and  O2_2 
REMARK    2  A    between atoms: C10_16  and  O3_3 
REMARK    3  A    between atoms: C11_17  and  O4_4 
REMARK    4  A    between atoms: C14_20  and  O6_6 
REMARK    5  A    between atoms: C3_9  and  C6_12 
ROOT
HETATM    1  O1  UNK     1      18.024   3.120  34.513  1.00  0.00    -0.306 OA
HETATM    2  O5  UNK     1      18.623   0.755  31.947  1.00  0.00    -0.284 OA
HETATM    3  C1  UNK     1      18.353   0.842  34.329  1.00  0.00     0.051 A 
HETATM    4  C2  UNK     1      18.209   2.821  33.169  1.00  0.00     0.127 A 
HETATM    5  C4  UNK     1      18.115   1.920  35.179  1.00  0.00     0.093 A 
HETATM    6  C5  UNK     1      18.427   1.368  32.972  1.00  0.00     0.218 A 
HETATM    7  C6  UNK     1      18.193   3.720  32.183  1.00  0.00     0.053 C 
HETATM    8  C12 UNK     1      18.478  -0.452  34.790  1.00  0.00     0.021 A 
HETATM    9  C13 UNK     1      17.992   1.743  36.540  1.00  0.00     0.074 A 
HETATM   10  C14 UNK     1      18.116   0.440  37.034  1.00  0.00     0.068 A 
HETATM   11  C15 UNK     1      18.356  -0.646  36.168  1.00  0.00     0.037 A 
ENDROOT
BRANCH   7  12
HETATM   12  C3  UNK     1      17.980   5.171  32.339  1.00  0.00    -0.028 A 
HETATM   13  C7  UNK     1      16.827   5.744  31.829  1.00  0.00     0.051 A 
HETATM   14  C10 UNK     1      16.625   7.117  31.977  1.00  0.00     0.105 A 
HETATM   15  C11 UNK     1      17.578   7.895  32.633  1.00  0.00     0.135 A 
HETATM   16  C9  UNK     1      18.734   7.301  33.141  1.00  0.00     0.105 A 
HETATM   17  C8  UNK     1      18.936   5.929  32.992  1.00  0.00     0.051 A 
BRANCH  14  18
HETATM   18  O3  UNK     1      15.491   7.684  31.477  1.00  0.00    -0.353 OA
HETATM   19  C17 UNK     1      14.252   7.253  32.033  1.00  0.00     0.210 C 
ENDBRANCH  14  18
BRANCH  15  20
HETATM   20  O4  UNK     1      17.381   9.236  32.777  1.00  0.00    -0.351 OA
HETATM   21  C18 UNK     1      16.604   9.659  33.895  1.00  0.00     0.210 C 
ENDBRANCH  15  20
BRANCH  16  22
HETATM   22  O2  UNK     1      19.672   8.051  33.783  1.00  0.00    -0.353 OA
HETATM   23  C16 UNK     1      19.634   8.057  35.208  1.00  0.00     0.210 C 
ENDBRANCH  16  22
ENDBRANCH   7  12
BRANCH  10  24
HETATM   24  O6  UNK     1      18.001   0.215  38.374  1.00  0.00    -0.361 OA
HETATM   25  H16 UNK     1      17.073   0.342  38.637  1.00  0.00     0.217 HD
ENDBRANCH  10  24
TORSDOF 5
ENDMDL
