MODEL 1
REMARK VINA RESULT:      -9.7      0.000      0.000
REMARK  9 active torsions:
REMARK  status: ('A' for Active; 'I' for Inactive)
REMARK    1  A    between atoms: C16_24  and  O1_2 
REMARK    2  A    between atoms: C25_33  and  O1_2 
REMARK    3  A    between atoms: C23_31  and  O5_6 
REMARK    4  A    between atoms: C14_22  and  N1_8 
REMARK       I    between atoms: C17_25  and  N1_8 
REMARK    5  A    between atoms: C1_9  and  C2_10 
REMARK    6  A    between atoms: C2_10  and  C3_11 
REMARK    7  A    between atoms: C4_12  and  C5_13 
REMARK    8  A    between atoms: C10_18  and  C16_24 
REMARK    9  A    between atoms: C17_25  and  C18_26 
ROOT
HETATM    1  S1  UNK     1      17.823  -1.515  37.935  1.00  0.00    -0.075 SA
HETATM    2  C5  UNK     1      18.365   0.054  35.974  1.00  0.00     0.006 A 
HETATM    3  C10 UNK     1      18.884  -1.222  35.613  1.00  0.00     0.085 A 
HETATM    4  C13 UNK     1      17.762   0.037  37.213  1.00  0.00    -0.007 A 
HETATM    5  C14 UNK     1      18.657  -2.167  36.590  1.00  0.00     0.094 A 
HETATM    6  C15 UNK     1      17.103   1.138  37.955  1.00  0.00     0.057 C 
ENDROOT
BRANCH   5   7
HETATM    7  N1  UNK     1      18.987  -3.524  36.656  1.00  0.00    -0.316 N 
HETATM    8  C17 UNK     1      20.151  -4.058  37.193  1.00  0.00     0.262 C 
HETATM    9  O4  UNK     1      21.100  -3.468  37.705  1.00  0.00    -0.267 OA
HETATM   10  H17 UNK     1      18.296  -4.159  36.264  1.00  0.00     0.169 HD
BRANCH   8  11
HETATM   11  C18 UNK     1      20.174  -5.522  37.100  1.00  0.00     0.108 A 
HETATM   12  C20 UNK     1      20.072  -6.190  38.255  1.00  0.00     0.037 A 
HETATM   13  C19 UNK     1      20.086  -7.645  38.266  1.00  0.00     0.002 A 
HETATM   14  C21 UNK     1      20.208  -8.325  37.059  1.00  0.00     0.123 A 
HETATM   15  C24 UNK     1      19.981  -8.382  39.448  1.00  0.00     0.014 A 
HETATM   16  O2  UNK     1      20.316  -7.618  35.847  1.00  0.00    -0.271 OA
HETATM   17  C23 UNK     1      20.229  -9.717  37.001  1.00  0.00     0.102 A 
HETATM   18  C22 UNK     1      20.304  -6.226  35.804  1.00  0.00     0.304 A 
HETATM   19  O6  UNK     1      20.399  -5.619  34.743  1.00  0.00    -0.259 OA
HETATM   20  C26 UNK     1      20.124 -10.445  38.184  1.00  0.00     0.040 A 
HETATM   21  C27 UNK     1      20.000  -9.779  39.405  1.00  0.00     0.004 A 
BRANCH  17  22
HETATM   22  O5  UNK     1      20.349 -10.370  35.813  1.00  0.00    -0.353 OA
HETATM   23  C29 UNK     1      21.646 -10.853  35.466  1.00  0.00     0.210 C 
ENDBRANCH  17  22
ENDBRANCH   8  11
ENDBRANCH   5   7
BRANCH   3  24
HETATM   24  C16 UNK     1      19.570  -1.534  34.384  1.00  0.00     0.297 C 
HETATM   25  O3  UNK     1      20.745  -1.925  34.329  1.00  0.00    -0.259 OA
BRANCH  24  26
HETATM   26  O1  UNK     1      18.801  -1.359  33.254  1.00  0.00    -0.318 OA
BRANCH  26  27
HETATM   27  C25 UNK     1      19.437  -1.602  31.995  1.00  0.00     0.174 C 
HETATM   28  C28 UNK     1      19.619  -0.285  31.272  1.00  0.00     0.034 C 
ENDBRANCH  26  27
ENDBRANCH  24  26
ENDBRANCH   3  24
BRANCH   2  29
HETATM   29  C4  UNK     1      18.422   1.267  35.196  1.00  0.00    -0.024 A 
HETATM   30  C11 UNK     1      19.152   2.360  35.662  1.00  0.00     0.013 A 
HETATM   31  C8  UNK     1      19.207   3.534  34.911  1.00  0.00     0.008 A 
HETATM   32  C3  UNK     1      18.532   3.615  33.693  1.00  0.00    -0.058 A 
HETATM   33  C9  UNK     1      17.802   2.522  33.227  1.00  0.00     0.008 A 
HETATM   34  C12 UNK     1      17.746   1.348  33.978  1.00  0.00     0.013 A 
BRANCH  32  35
HETATM   35  C2  UNK     1      18.592   4.869  32.889  1.00  0.00     0.042 C 
BRANCH  35  36
HETATM   36  C1  UNK     1      19.385   6.020  33.554  1.00  0.00    -0.019 C 
HETATM   37  C6  UNK     1      20.586   6.446  32.707  1.00  0.00     0.010 C 
HETATM   38  C7  UNK     1      18.472   7.226  33.795  1.00  0.00     0.010 C 
ENDBRANCH  35  36
ENDBRANCH  32  35
ENDBRANCH   2  29
TORSDOF 9
ENDMDL
MODEL 2
REMARK VINA RESULT:      -8.8     17.910     22.773
REMARK  9 active torsions:
REMARK  status: ('A' for Active; 'I' for Inactive)
REMARK    1  A    between atoms: C16_24  and  O1_2 
REMARK    2  A    between atoms: C25_33  and  O1_2 
REMARK    3  A    between atoms: C23_31  and  O5_6 
REMARK    4  A    between atoms: C14_22  and  N1_8 
REMARK       I    between atoms: C17_25  and  N1_8 
REMARK    5  A    between atoms: C1_9  and  C2_10 
REMARK    6  A    between atoms: C2_10  and  C3_11 
REMARK    7  A    between atoms: C4_12  and  C5_13 
REMARK    8  A    between atoms: C10_18  and  C16_24 
REMARK    9  A    between atoms: C17_25  and  C18_26 
ROOT
HETATM    1  S1  UNK     1      19.039  -2.300  12.354  1.00  0.00    -0.075 SA
HETATM    2  C5  UNK     1      20.030  -4.658  12.599  1.00  0.00     0.006 A 
HETATM    3  C10 UNK     1      20.194  -4.028  13.865  1.00  0.00     0.085 A 
HETATM    4  C13 UNK     1      19.416  -3.830  11.684  1.00  0.00    -0.007 A 
HETATM    5  C14 UNK     1      19.699  -2.742  13.871  1.00  0.00     0.094 A 
HETATM    6  C15 UNK     1      19.061  -4.090  10.269  1.00  0.00     0.057 C 
ENDROOT
BRANCH   5   7
HETATM    7  N1  UNK     1      19.649  -1.776  14.880  1.00  0.00    -0.316 N 
HETATM    8  C17 UNK     1      18.718  -1.715  15.908  1.00  0.00     0.262 C 
HETATM    9  O4  UNK     1      17.777  -2.472  16.137  1.00  0.00    -0.267 OA
HETATM   10  H17 UNK     1      20.370  -1.060  14.833  1.00  0.00     0.169 HD
BRANCH   8  11
HETATM   11  C18 UNK     1      18.957  -0.570  16.795  1.00  0.00     0.108 A 
HETATM   12  C20 UNK     1      18.974  -0.832  18.107  1.00  0.00     0.037 A 
HETATM   13  C19 UNK     1      19.203   0.238  19.067  1.00  0.00     0.002 A 
HETATM   14  C21 UNK     1      19.402   1.532  18.596  1.00  0.00     0.123 A 
HETATM   15  C24 UNK     1      19.230   0.010  20.444  1.00  0.00     0.014 A 
HETATM   16  O2  UNK     1      19.383   1.801  17.214  1.00  0.00    -0.271 OA
HETATM   17  C23 UNK     1      19.627   2.601  19.462  1.00  0.00     0.102 A 
HETATM   18  C22 UNK     1      19.168   0.799  16.272  1.00  0.00     0.304 A 
HETATM   19  O6  UNK     1      19.153   1.044  15.071  1.00  0.00    -0.259 OA
HETATM   20  C26 UNK     1      19.652   2.364  20.835  1.00  0.00     0.040 A 
HETATM   21  C27 UNK     1      19.454   1.072  21.325  1.00  0.00     0.004 A 
BRANCH  17  22
HETATM   22  O5  UNK     1      19.820   3.861  18.988  1.00  0.00    -0.353 OA
HETATM   23  C29 UNK     1      21.134   4.194  18.543  1.00  0.00     0.210 C 
ENDBRANCH  17  22
ENDBRANCH   8  11
ENDBRANCH   5   7
BRANCH   3  24
HETATM   24  C16 UNK     1      20.799  -4.625  15.030  1.00  0.00     0.297 C 
HETATM   25  O3  UNK     1      20.250  -5.493  15.725  1.00  0.00    -0.259 OA
BRANCH  24  26
HETATM   26  O1  UNK     1      22.059  -4.146  15.314  1.00  0.00    -0.318 OA
BRANCH  26  27
HETATM   27  C25 UNK     1      22.569  -4.404  16.627  1.00  0.00     0.174 C 
HETATM   28  C28 UNK     1      22.213  -3.243  17.531  1.00  0.00     0.034 C 
ENDBRANCH  26  27
ENDBRANCH  24  26
ENDBRANCH   3  24
BRANCH   2  29
HETATM   29  C4  UNK     1      20.430  -5.995  12.235  1.00  0.00    -0.024 A 
HETATM   30  C11 UNK     1      21.455  -6.188  11.308  1.00  0.00     0.013 A 
HETATM   31  C8  UNK     1      21.842  -7.481  10.956  1.00  0.00     0.008 A 
HETATM   32  C3  UNK     1      21.204  -8.581  11.528  1.00  0.00    -0.058 A 
HETATM   33  C9  UNK     1      20.179  -8.388  12.455  1.00  0.00     0.008 A 
HETATM   34  C12 UNK     1      19.792  -7.095  12.808  1.00  0.00     0.013 A 
BRANCH  32  35
HETATM   35  C2  UNK     1      21.619  -9.962  11.153  1.00  0.00     0.042 C 
BRANCH  35  36
HETATM   36  C1  UNK     1      22.227 -10.787  12.313  1.00  0.00    -0.019 C 
HETATM   37  C6  UNK     1      22.379 -12.264  11.941  1.00  0.00     0.010 C 
HETATM   38  C7  UNK     1      23.589 -10.215  12.716  1.00  0.00     0.010 C 
ENDBRANCH  35  36
ENDBRANCH  32  35
ENDBRANCH   2  29
TORSDOF 9
ENDMDL
MODEL 3
REMARK VINA RESULT:      -8.6     18.967     23.534
REMARK  9 active torsions:
REMARK  status: ('A' for Active; 'I' for Inactive)
REMARK    1  A    between atoms: C16_24  and  O1_2 
REMARK    2  A    between atoms: C25_33  and  O1_2 
REMARK    3  A    between atoms: C23_31  and  O5_6 
REMARK    4  A    between atoms: C14_22  and  N1_8 
REMARK       I    between atoms: C17_25  and  N1_8 
REMARK    5  A    between atoms: C1_9  and  C2_10 
REMARK    6  A    between atoms: C2_10  and  C3_11 
REMARK    7  A    between atoms: C4_12  and  C5_13 
REMARK    8  A    between atoms: C10_18  and  C16_24 
REMARK    9  A    between atoms: C17_25  and  C18_26 
ROOT
HETATM    1  S1  UNK     1      20.559  -4.797  15.218  1.00  0.00    -0.075 SA
HETATM    2  C5  UNK     1      19.990  -4.784  12.713  1.00  0.00     0.006 A 
HETATM    3  C10 UNK     1      19.722  -3.468  13.185  1.00  0.00     0.085 A 
HETATM    4  C13 UNK     1      20.451  -5.610  13.715  1.00  0.00    -0.007 A 
HETATM    5  C14 UNK     1      19.988  -3.337  14.531  1.00  0.00     0.094 A 
HETATM    6  C15 UNK     1      20.844  -7.038  13.652  1.00  0.00     0.057 C 
ENDROOT
BRANCH   5   7
HETATM    7  N1  UNK     1      19.871  -2.243  15.393  1.00  0.00    -0.316 N 
HETATM    8  C17 UNK     1      18.730  -1.867  16.088  1.00  0.00     0.262 C 
HETATM    9  O4  UNK     1      17.623  -2.401  16.091  1.00  0.00    -0.267 OA
HETATM   10  H17 UNK     1      20.714  -1.683  15.501  1.00  0.00     0.169 HD
BRANCH   8  11
HETATM   11  C18 UNK     1      18.957  -0.668  16.904  1.00  0.00     0.108 A 
HETATM   12  C20 UNK     1      18.977  -0.851  18.230  1.00  0.00     0.037 A 
HETATM   13  C19 UNK     1      19.194   0.277  19.123  1.00  0.00     0.002 A 
HETATM   14  C21 UNK     1      19.379   1.542  18.575  1.00  0.00     0.123 A 
HETATM   15  C24 UNK     1      19.224   0.133  20.512  1.00  0.00     0.014 A 
HETATM   16  O2  UNK     1      19.357   1.729  17.180  1.00  0.00    -0.271 OA
HETATM   17  C23 UNK     1      19.592   2.664  19.375  1.00  0.00     0.102 A 
HETATM   18  C22 UNK     1      19.152   0.669  16.300  1.00  0.00     0.304 A 
HETATM   19  O6  UNK     1      19.134   0.841  15.087  1.00  0.00    -0.259 OA
HETATM   20  C26 UNK     1      19.619   2.511  20.760  1.00  0.00     0.040 A 
HETATM   21  C27 UNK     1      19.436   1.248  21.327  1.00  0.00     0.004 A 
BRANCH  17  22
HETATM   22  O5  UNK     1      19.771   3.896  18.826  1.00  0.00    -0.353 OA
HETATM   23  C29 UNK     1      21.108   4.277  18.506  1.00  0.00     0.210 C 
ENDBRANCH  17  22
ENDBRANCH   8  11
ENDBRANCH   5   7
BRANCH   3  24
HETATM   24  C16 UNK     1      19.230  -2.372  12.387  1.00  0.00     0.297 C 
HETATM   25  O3  UNK     1      18.394  -1.547  12.786  1.00  0.00    -0.259 OA
BRANCH  24  26
HETATM   26  O1  UNK     1      19.773  -2.313  11.122  1.00  0.00    -0.318 OA
BRANCH  26  27
HETATM   27  C25 UNK     1      21.034  -1.648  10.990  1.00  0.00     0.174 C 
HETATM   28  C28 UNK     1      21.698  -2.102   9.708  1.00  0.00     0.034 C 
ENDBRANCH  26  27
ENDBRANCH  24  26
ENDBRANCH   3  24
BRANCH   2  29
HETATM   29  C4  UNK     1      19.827  -5.275  11.367  1.00  0.00    -0.024 A 
HETATM   30  C11 UNK     1      18.554  -5.592  10.891  1.00  0.00     0.013 A 
HETATM   31  C8  UNK     1      18.395  -6.067   9.589  1.00  0.00     0.008 A 
HETATM   32  C3  UNK     1      19.508  -6.225   8.763  1.00  0.00    -0.058 A 
HETATM   33  C9  UNK     1      20.780  -5.908   9.239  1.00  0.00     0.008 A 
HETATM   34  C12 UNK     1      20.939  -5.433  10.541  1.00  0.00     0.013 A 
BRANCH  32  35
HETATM   35  C2  UNK     1      19.337  -6.732   7.371  1.00  0.00     0.042 C 
BRANCH  35  36
HETATM   36  C1  UNK     1      17.954  -6.432   6.745  1.00  0.00    -0.019 C 
HETATM   37  C6  UNK     1      17.976  -5.151   5.906  1.00  0.00     0.010 C 
HETATM   38  C7  UNK     1      17.496  -7.607   5.877  1.00  0.00     0.010 C 
ENDBRANCH  35  36
ENDBRANCH  32  35
ENDBRANCH   2  29
TORSDOF 9
ENDMDL
MODEL 4
REMARK VINA RESULT:      -8.6      1.765      2.487
REMARK  9 active torsions:
REMARK  status: ('A' for Active; 'I' for Inactive)
REMARK    1  A    between atoms: C16_24  and  O1_2 
REMARK    2  A    between atoms: C25_33  and  O1_2 
REMARK    3  A    between atoms: C23_31  and  O5_6 
REMARK    4  A    between atoms: C14_22  and  N1_8 
REMARK       I    between atoms: C17_25  and  N1_8 
REMARK    5  A    between atoms: C1_9  and  C2_10 
REMARK    6  A    between atoms: C2_10  and  C3_11 
REMARK    7  A    between atoms: C4_12  and  C5_13 
REMARK    8  A    between atoms: C10_18  and  C16_24 
REMARK    9  A    between atoms: C17_25  and  C18_26 
ROOT
HETATM    1  S1  UNK     1      18.620  -2.413  37.821  1.00  0.00    -0.075 SA
HETATM    2  C5  UNK     1      18.893  -0.702  35.924  1.00  0.00     0.006 A 
HETATM    3  C10 UNK     1      19.746  -1.794  35.596  1.00  0.00     0.085 A 
HETATM    4  C13 UNK     1      18.222  -0.907  37.110  1.00  0.00    -0.007 A 
HETATM    5  C14 UNK     1      19.694  -2.794  36.543  1.00  0.00     0.094 A 
HETATM    6  C15 UNK     1      17.249  -0.031  37.805  1.00  0.00     0.057 C 
ENDROOT
BRANCH   5   7
HETATM    7  N1  UNK     1      20.352  -4.024  36.624  1.00  0.00    -0.316 N 
HETATM    8  C17 UNK     1      19.748  -5.273  36.687  1.00  0.00     0.262 C 
HETATM    9  O4  UNK     1      18.549  -5.546  36.682  1.00  0.00    -0.267 OA
HETATM   10  H17 UNK     1      21.367  -3.974  36.642  1.00  0.00     0.169 HD
BRANCH   8  11
HETATM   11  C18 UNK     1      20.736  -6.355  36.765  1.00  0.00     0.108 A 
HETATM   12  C20 UNK     1      20.522  -7.408  35.967  1.00  0.00     0.037 A 
HETATM   13  C19 UNK     1      21.446  -8.532  35.973  1.00  0.00     0.002 A 
HETATM   14  C21 UNK     1      22.549  -8.492  36.820  1.00  0.00     0.123 A 
HETATM   15  C24 UNK     1      21.264  -9.651  35.156  1.00  0.00     0.014 A 
HETATM   16  O2  UNK     1      22.768  -7.381  37.657  1.00  0.00    -0.271 OA
HETATM   17  C23 UNK     1      23.471  -9.535  36.873  1.00  0.00     0.102 A 
HETATM   18  C22 UNK     1      21.903  -6.291  37.673  1.00  0.00     0.304 A 
HETATM   19  O6  UNK     1      22.101  -5.328  38.406  1.00  0.00    -0.259 OA
HETATM   20  C26 UNK     1      23.282 -10.647  36.056  1.00  0.00     0.040 A 
HETATM   21  C27 UNK     1      22.180 -10.705  35.199  1.00  0.00     0.004 A 
BRANCH  17  22
HETATM   22  O5  UNK     1      24.545  -9.483  37.706  1.00  0.00    -0.353 OA
HETATM   23  C29 UNK     1      25.838  -9.540  37.105  1.00  0.00     0.210 C 
ENDBRANCH  17  22
ENDBRANCH   8  11
ENDBRANCH   5   7
BRANCH   3  24
HETATM   24  C16 UNK     1      20.580  -1.887  34.424  1.00  0.00     0.297 C 
HETATM   25  O3  UNK     1      21.814  -2.012  34.462  1.00  0.00    -0.259 OA
BRANCH  24  26
HETATM   26  O1  UNK     1      19.886  -1.824  33.236  1.00  0.00    -0.318 OA
BRANCH  26  27
HETATM   27  C25 UNK     1      20.633  -2.056  32.037  1.00  0.00     0.174 C 
HETATM   28  C28 UNK     1      20.356  -0.935  31.058  1.00  0.00     0.034 C 
ENDBRANCH  26  27
ENDBRANCH  24  26
ENDBRANCH   3  24
BRANCH   2  29
HETATM   29  C4  UNK     1      18.698   0.508  35.164  1.00  0.00    -0.024 A 
HETATM   30  C11 UNK     1      18.130   0.447  33.891  1.00  0.00     0.013 A 
HETATM   31  C8  UNK     1      17.943   1.617  33.155  1.00  0.00     0.008 A 
HETATM   32  C3  UNK     1      18.324   2.847  33.690  1.00  0.00    -0.058 A 
HETATM   33  C9  UNK     1      18.892   2.908  34.963  1.00  0.00     0.008 A 
HETATM   34  C12 UNK     1      19.080   1.738  35.700  1.00  0.00     0.013 A 
BRANCH  32  35
HETATM   35  C2  UNK     1      18.122   4.097  32.904  1.00  0.00     0.042 C 
BRANCH  35  36
HETATM   36  C1  UNK     1      18.503   5.396  33.656  1.00  0.00    -0.019 C 
HETATM   37  C6  UNK     1      19.713   6.086  33.020  1.00  0.00     0.010 C 
HETATM   38  C7  UNK     1      17.316   6.363  33.684  1.00  0.00     0.010 C 
ENDBRANCH  35  36
ENDBRANCH  32  35
ENDBRANCH   2  29
TORSDOF 9
ENDMDL
MODEL 5
REMARK VINA RESULT:      -8.4      8.059     12.131
REMARK  9 active torsions:
REMARK  status: ('A' for Active; 'I' for Inactive)
REMARK    1  A    between atoms: C16_24  and  O1_2 
REMARK    2  A    between atoms: C25_33  and  O1_2 
REMARK    3  A    between atoms: C23_31  and  O5_6 
REMARK    4  A    between atoms: C14_22  and  N1_8 
REMARK       I    between atoms: C17_25  and  N1_8 
REMARK    5  A    between atoms: C1_9  and  C2_10 
REMARK    6  A    between atoms: C2_10  and  C3_11 
REMARK    7  A    between atoms: C4_12  and  C5_13 
REMARK    8  A    between atoms: C10_18  and  C16_24 
REMARK    9  A    between atoms: C17_25  and  C18_26 
ROOT
HETATM    1  S1  UNK     1      27.224 -10.220  39.303  1.00  0.00    -0.075 SA
HETATM    2  C5  UNK     1      29.093  -8.868  38.171  1.00  0.00     0.006 A 
HETATM    3  C10 UNK     1      27.871  -8.400  37.609  1.00  0.00     0.085 A 
HETATM    4  C13 UNK     1      28.887  -9.859  39.106  1.00  0.00    -0.007 A 
HETATM    5  C14 UNK     1      26.776  -9.050  38.136  1.00  0.00     0.094 A 
HETATM    6  C15 UNK     1      29.875 -10.609  39.918  1.00  0.00     0.057 C 
ENDROOT
BRANCH   5   7
HETATM    7  N1  UNK     1      25.409  -8.912  37.880  1.00  0.00    -0.316 N 
HETATM    8  C17 UNK     1      24.666  -9.660  36.977  1.00  0.00     0.262 C 
HETATM    9  O4  UNK     1      25.044 -10.568  36.240  1.00  0.00    -0.267 OA
HETATM   10  H17 UNK     1      24.937  -8.187  38.415  1.00  0.00     0.169 HD
BRANCH   8  11
HETATM   11  C18 UNK     1      23.256  -9.253  36.959  1.00  0.00     0.108 A 
HETATM   12  C20 UNK     1      22.883  -8.374  37.896  1.00  0.00     0.037 A 
HETATM   13  C19 UNK     1      21.505  -7.910  37.960  1.00  0.00     0.002 A 
HETATM   14  C21 UNK     1      20.588  -8.397  37.034  1.00  0.00     0.123 A 
HETATM   15  C24 UNK     1      21.072  -6.993  38.920  1.00  0.00     0.014 A 
HETATM   16  O2  UNK     1      20.987  -9.322  36.051  1.00  0.00    -0.271 OA
HETATM   17  C23 UNK     1      19.254  -7.993  37.041  1.00  0.00     0.102 A 
HETATM   18  C22 UNK     1      22.297  -9.783  35.963  1.00  0.00     0.304 A 
HETATM   19  O6  UNK     1      22.635 -10.589  35.104  1.00  0.00    -0.259 OA
HETATM   20  C26 UNK     1      18.830  -7.078  38.003  1.00  0.00     0.040 A 
HETATM   21  C27 UNK     1      19.737  -6.579  38.940  1.00  0.00     0.004 A 
BRANCH  17  22
HETATM   22  O5  UNK     1      18.368  -8.477  36.130  1.00  0.00    -0.353 OA
HETATM   23  C29 UNK     1      17.622  -7.521  35.378  1.00  0.00     0.210 C 
ENDBRANCH  17  22
ENDBRANCH   8  11
ENDBRANCH   5   7
BRANCH   3  24
HETATM   24  C16 UNK     1      27.747  -7.370  36.607  1.00  0.00     0.297 C 
HETATM   25  O3  UNK     1      27.265  -6.248  36.825  1.00  0.00    -0.259 OA
BRANCH  24  26
HETATM   26  O1  UNK     1      28.213  -7.739  35.364  1.00  0.00    -0.318 OA
BRANCH  26  27
HETATM   27  C25 UNK     1      29.034  -6.791  34.674  1.00  0.00     0.174 C 
HETATM   28  C28 UNK     1      28.315  -6.336  33.422  1.00  0.00     0.034 C 
ENDBRANCH  26  27
ENDBRANCH  24  26
ENDBRANCH   3  24
BRANCH   2  29
HETATM   29  C4  UNK     1      30.425  -8.415  37.855  1.00  0.00    -0.024 A 
HETATM   30  C11 UNK     1      31.215  -9.140  36.963  1.00  0.00     0.013 A 
HETATM   31  C8  UNK     1      32.504  -8.703  36.657  1.00  0.00     0.008 A 
HETATM   32  C3  UNK     1      33.003  -7.540  37.245  1.00  0.00    -0.058 A 
HETATM   33  C9  UNK     1      32.213  -6.815  38.137  1.00  0.00     0.008 A 
HETATM   34  C12 UNK     1      30.924  -7.253  38.443  1.00  0.00     0.013 A 
BRANCH  32  35
HETATM   35  C2  UNK     1      34.380  -7.072  36.917  1.00  0.00     0.042 C 
BRANCH  35  36
HETATM   36  C1  UNK     1      34.503  -6.347  35.555  1.00  0.00    -0.019 C 
HETATM   37  C6  UNK     1      34.320  -4.834  35.698  1.00  0.00     0.010 C 
HETATM   38  C7  UNK     1      35.863  -6.642  34.915  1.00  0.00     0.010 C 
ENDBRANCH  35  36
ENDBRANCH  32  35
ENDBRANCH   2  29
TORSDOF 9
ENDMDL
MODEL 6
REMARK VINA RESULT:      -8.3      4.138     12.246
REMARK  9 active torsions:
REMARK  status: ('A' for Active; 'I' for Inactive)
REMARK    1  A    between atoms: C16_24  and  O1_2 
REMARK    2  A    between atoms: C25_33  and  O1_2 
REMARK    3  A    between atoms: C23_31  and  O5_6 
REMARK    4  A    between atoms: C14_22  and  N1_8 
REMARK       I    between atoms: C17_25  and  N1_8 
REMARK    5  A    between atoms: C1_9  and  C2_10 
REMARK    6  A    between atoms: C2_10  and  C3_11 
REMARK    7  A    between atoms: C4_12  and  C5_13 
REMARK    8  A    between atoms: C10_18  and  C16_24 
REMARK    9  A    between atoms: C17_25  and  C18_26 
ROOT
HETATM    1  S1  UNK     1      18.333   1.453  32.087  1.00  0.00    -0.075 SA
HETATM    2  C5  UNK     1      18.775   0.120  34.238  1.00  0.00     0.006 A 
HETATM    3  C10 UNK     1      18.546   1.464  34.647  1.00  0.00     0.085 A 
HETATM    4  C13 UNK     1      18.689  -0.027  32.871  1.00  0.00    -0.007 A 
HETATM    5  C14 UNK     1      18.293   2.295  33.577  1.00  0.00     0.094 A 
HETATM    6  C15 UNK     1      18.858  -1.244  32.042  1.00  0.00     0.057 C 
ENDROOT
BRANCH   5   7
HETATM    7  N1  UNK     1      18.019   3.664  33.516  1.00  0.00    -0.316 N 
HETATM    8  C17 UNK     1      18.308   4.509  32.453  1.00  0.00     0.262 C 
HETATM    9  O4  UNK     1      18.846   4.238  31.382  1.00  0.00    -0.267 OA
HETATM   10  H17 UNK     1      17.569   4.055  34.340  1.00  0.00     0.169 HD
BRANCH   8  11
HETATM   11  C18 UNK     1      17.884   5.889  32.721  1.00  0.00     0.108 A 
HETATM   12  C20 UNK     1      16.565   6.116  32.702  1.00  0.00     0.037 A 
HETATM   13  C19 UNK     1      16.047   7.452  32.954  1.00  0.00     0.002 A 
HETATM   14  C21 UNK     1      16.944   8.483  33.215  1.00  0.00     0.123 A 
HETATM   15  C24 UNK     1      14.679   7.734  32.946  1.00  0.00     0.014 A 
HETATM   16  O2  UNK     1      18.330   8.238  33.233  1.00  0.00    -0.271 OA
HETATM   17  C23 UNK     1      16.513   9.784  33.465  1.00  0.00     0.102 A 
HETATM   18  C22 UNK     1      18.856   6.971  32.996  1.00  0.00     0.304 A 
HETATM   19  O6  UNK     1      20.064   6.767  33.014  1.00  0.00    -0.259 OA
HETATM   20  C26 UNK     1      15.146  10.057  33.454  1.00  0.00     0.040 A 
HETATM   21  C27 UNK     1      14.232   9.034  33.195  1.00  0.00     0.004 A 
BRANCH  17  22
HETATM   22  O5  UNK     1      17.400  10.784  33.717  1.00  0.00    -0.353 OA
HETATM   23  C29 UNK     1      16.895  11.956  34.355  1.00  0.00     0.210 C 
ENDBRANCH  17  22
ENDBRANCH   8  11
ENDBRANCH   5   7
BRANCH   3  24
HETATM   24  C16 UNK     1      18.565   1.944  36.007  1.00  0.00     0.297 C 
HETATM   25  O3  UNK     1      19.601   2.089  36.674  1.00  0.00    -0.259 OA
BRANCH  24  26
HETATM   26  O1  UNK     1      17.318   2.233  36.516  1.00  0.00    -0.318 OA
BRANCH  26  27
HETATM   27  C25 UNK     1      16.669   1.198  37.263  1.00  0.00     0.174 C 
HETATM   28  C28 UNK     1      15.419   0.768  36.525  1.00  0.00     0.034 C 
ENDBRANCH  26  27
ENDBRANCH  24  26
ENDBRANCH   3  24
BRANCH   2  29
HETATM   29  C4  UNK     1      19.067  -1.009  35.086  1.00  0.00    -0.024 A 
HETATM   30  C11 UNK     1      20.382  -1.457  35.222  1.00  0.00     0.013 A 
HETATM   31  C8  UNK     1      20.665  -2.549  36.042  1.00  0.00     0.008 A 
HETATM   32  C3  UNK     1      19.635  -3.195  36.726  1.00  0.00    -0.058 A 
HETATM   33  C9  UNK     1      18.321  -2.747  36.590  1.00  0.00     0.008 A 
HETATM   34  C12 UNK     1      18.037  -1.655  35.770  1.00  0.00     0.013 A 
BRANCH  32  35
HETATM   35  C2  UNK     1      19.938  -4.361  37.603  1.00  0.00     0.042 C 
BRANCH  35  36
HETATM   36  C1  UNK     1      19.358  -5.707  37.105  1.00  0.00    -0.019 C 
HETATM   37  C6  UNK     1      19.943  -6.110  35.749  1.00  0.00     0.010 C 
HETATM   38  C7  UNK     1      19.623  -6.813  38.129  1.00  0.00     0.010 C 
ENDBRANCH  35  36
ENDBRANCH  32  35
ENDBRANCH   2  29
TORSDOF 9
ENDMDL
MODEL 7
REMARK VINA RESULT:      -8.3      8.957     12.281
REMARK  9 active torsions:
REMARK  status: ('A' for Active; 'I' for Inactive)
REMARK    1  A    between atoms: C16_24  and  O1_2 
REMARK    2  A    between atoms: C25_33  and  O1_2 
REMARK    3  A    between atoms: C23_31  and  O5_6 
REMARK    4  A    between atoms: C14_22  and  N1_8 
REMARK       I    between atoms: C17_25  and  N1_8 
REMARK    5  A    between atoms: C1_9  and  C2_10 
REMARK    6  A    between atoms: C2_10  and  C3_11 
REMARK    7  A    between atoms: C4_12  and  C5_13 
REMARK    8  A    between atoms: C10_18  and  C16_24 
REMARK    9  A    between atoms: C17_25  and  C18_26 
ROOT
HETATM    1  S1  UNK     1      28.629  -5.637  38.644  1.00  0.00    -0.075 SA
HETATM    2  C5  UNK     1      30.375  -6.484  36.961  1.00  0.00     0.006 A 
HETATM    3  C10 UNK     1      29.163  -7.163  36.647  1.00  0.00     0.085 A 
HETATM    4  C13 UNK     1      30.226  -5.624  38.027  1.00  0.00    -0.007 A 
HETATM    5  C14 UNK     1      28.132  -6.795  37.485  1.00  0.00     0.094 A 
HETATM    6  C15 UNK     1      31.226  -4.737  38.669  1.00  0.00     0.057 C 
ENDROOT
BRANCH   5   7
HETATM    7  N1  UNK     1      26.796  -7.201  37.538  1.00  0.00    -0.316 N 
HETATM    8  C17 UNK     1      26.230  -8.031  38.496  1.00  0.00     0.262 C 
HETATM    9  O4  UNK     1      26.769  -8.562  39.465  1.00  0.00    -0.267 OA
HETATM   10  H17 UNK     1      26.204  -6.845  36.792  1.00  0.00     0.169 HD
BRANCH   8  11
HETATM   11  C18 UNK     1      24.801  -8.254  38.252  1.00  0.00     0.108 A 
HETATM   12  C20 UNK     1      23.954  -7.548  39.012  1.00  0.00     0.037 A 
HETATM   13  C19 UNK     1      22.517  -7.700  38.845  1.00  0.00     0.002 A 
HETATM   14  C21 UNK     1      22.042  -8.589  37.886  1.00  0.00     0.123 A 
HETATM   15  C24 UNK     1      21.598  -6.983  39.614  1.00  0.00     0.014 A 
HETATM   16  O2  UNK     1      22.937  -9.328  37.090  1.00  0.00    -0.271 OA
HETATM   17  C23 UNK     1      20.677  -8.781  37.676  1.00  0.00     0.102 A 
HETATM   18  C22 UNK     1      24.317  -9.204  37.225  1.00  0.00     0.304 A 
HETATM   19  O6  UNK     1      25.088  -9.852  36.528  1.00  0.00    -0.259 OA
HETATM   20  C26 UNK     1      19.767  -8.062  38.448  1.00  0.00     0.040 A 
HETATM   21  C27 UNK     1      20.227  -7.165  39.415  1.00  0.00     0.004 A 
BRANCH  17  22
HETATM   22  O5  UNK     1      20.226  -9.653  36.735  1.00  0.00    -0.353 OA
HETATM   23  C29 UNK     1      19.727 -10.907  37.198  1.00  0.00     0.210 C 
ENDBRANCH  17  22
ENDBRANCH   8  11
ENDBRANCH   5   7
BRANCH   3  24
HETATM   24  C16 UNK     1      28.988  -8.126  35.588  1.00  0.00     0.297 C 
HETATM   25  O3  UNK     1      28.667  -9.309  35.776  1.00  0.00    -0.259 OA
BRANCH  24  26
HETATM   26  O1  UNK     1      29.211  -7.617  34.327  1.00  0.00    -0.318 OA
BRANCH  26  27
HETATM   27  C25 UNK     1      28.312  -6.601  33.871  1.00  0.00     0.174 C 
HETATM   28  C28 UNK     1      28.982  -5.807  32.771  1.00  0.00     0.034 C 
ENDBRANCH  26  27
ENDBRANCH  24  26
ENDBRANCH   3  24
BRANCH   2  29
HETATM   29  C4  UNK     1      31.646  -6.623  36.295  1.00  0.00    -0.024 A 
HETATM   30  C11 UNK     1      32.529  -7.632  36.681  1.00  0.00     0.013 A 
HETATM   31  C8  UNK     1      33.759  -7.767  36.037  1.00  0.00     0.008 A 
HETATM   32  C3  UNK     1      34.107  -6.892  35.008  1.00  0.00    -0.058 A 
HETATM   33  C9  UNK     1      33.225  -5.883  34.622  1.00  0.00     0.008 A 
HETATM   34  C12 UNK     1      31.995  -5.748  35.266  1.00  0.00     0.013 A 
BRANCH  32  35
HETATM   35  C2  UNK     1      35.421  -7.037  34.319  1.00  0.00     0.042 C 
BRANCH  35  36
HETATM   36  C1  UNK     1      35.322  -7.332  32.803  1.00  0.00    -0.019 C 
HETATM   37  C6  UNK     1      35.872  -6.178  31.962  1.00  0.00     0.010 C 
HETATM   38  C7  UNK     1      36.073  -8.622  32.461  1.00  0.00     0.010 C 
ENDBRANCH  35  36
ENDBRANCH  32  35
ENDBRANCH   2  29
TORSDOF 9
ENDMDL
MODEL 8
REMARK VINA RESULT:      -8.3     28.299     29.797
REMARK  9 active torsions:
REMARK  status: ('A' for Active; 'I' for Inactive)
REMARK    1  A    between atoms: C16_24  and  O1_2 
REMARK    2  A    between atoms: C25_33  and  O1_2 
REMARK    3  A    between atoms: C23_31  and  O5_6 
REMARK    4  A    between atoms: C14_22  and  N1_8 
REMARK       I    between atoms: C17_25  and  N1_8 
REMARK    5  A    between atoms: C1_9  and  C2_10 
REMARK    6  A    between atoms: C2_10  and  C3_11 
REMARK    7  A    between atoms: C4_12  and  C5_13 
REMARK    8  A    between atoms: C10_18  and  C16_24 
REMARK    9  A    between atoms: C17_25  and  C18_26 
ROOT
HETATM    1  S1  UNK     1      15.709  12.577  11.664  1.00  0.00    -0.075 SA
HETATM    2  C5  UNK     1      18.144  12.336  10.883  1.00  0.00     0.006 A 
HETATM    3  C10 UNK     1      17.410  11.318  10.209  1.00  0.00     0.085 A 
HETATM    4  C13 UNK     1      17.341  13.094  11.706  1.00  0.00    -0.007 A 
HETATM    5  C14 UNK     1      16.073  11.336  10.543  1.00  0.00     0.094 A 
HETATM    6  C15 UNK     1      17.698  14.240  12.576  1.00  0.00     0.057 C 
ENDROOT
BRANCH   5   7
HETATM    7  N1  UNK     1      15.007  10.534  10.128  1.00  0.00    -0.316 N 
HETATM    8  C17 UNK     1      14.640   9.313  10.677  1.00  0.00     0.262 C 
HETATM    9  O4  UNK     1      15.158   8.705  11.611  1.00  0.00    -0.267 OA
HETATM   10  H17 UNK     1      14.467  10.898   9.347  1.00  0.00     0.169 HD
BRANCH   8  11
HETATM   11  C18 UNK     1      13.471   8.738  10.000  1.00  0.00     0.108 A 
HETATM   12  C20 UNK     1      13.717   8.059   8.873  1.00  0.00     0.037 A 
HETATM   13  C19 UNK     1      12.623   7.452   8.129  1.00  0.00     0.002 A 
HETATM   14  C21 UNK     1      11.325   7.592   8.609  1.00  0.00     0.123 A 
HETATM   15  C24 UNK     1      12.833   6.734   6.950  1.00  0.00     0.014 A 
HETATM   16  O2  UNK     1      11.073   8.308   9.794  1.00  0.00    -0.271 OA
HETATM   17  C23 UNK     1      10.234   7.035   7.944  1.00  0.00     0.102 A 
HETATM   18  C22 UNK     1      12.098   8.898  10.528  1.00  0.00     0.304 A 
HETATM   19  O6  UNK     1      11.869   9.520  11.560  1.00  0.00    -0.259 OA
HETATM   20  C26 UNK     1      10.452   6.320   6.768  1.00  0.00     0.040 A 
HETATM   21  C27 UNK     1      11.748   6.170   6.272  1.00  0.00     0.004 A 
BRANCH  17  22
HETATM   22  O5  UNK     1       8.969   7.179   8.423  1.00  0.00    -0.353 OA
HETATM   23  C29 UNK     1       8.095   6.058   8.300  1.00  0.00     0.210 C 
ENDBRANCH  17  22
ENDBRANCH   8  11
ENDBRANCH   5   7
BRANCH   3  24
HETATM   24  C16 UNK     1      17.959  10.361   9.280  1.00  0.00     0.297 C 
HETATM   25  O3  UNK     1      17.871   9.132   9.422  1.00  0.00    -0.259 OA
BRANCH  24  26
HETATM   26  O1  UNK     1      18.601  10.931   8.203  1.00  0.00    -0.318 OA
BRANCH  26  27
HETATM   27  C25 UNK     1      17.827  11.813   7.382  1.00  0.00     0.174 C 
HETATM   28  C28 UNK     1      18.757  12.565   6.454  1.00  0.00     0.034 C 
ENDBRANCH  26  27
ENDBRANCH  24  26
ENDBRANCH   3  24
BRANCH   2  29
HETATM   29  C4  UNK     1      19.556  12.608  10.772  1.00  0.00    -0.024 A 
HETATM   30  C11 UNK     1      20.011  13.582   9.884  1.00  0.00     0.013 A 
HETATM   31  C8  UNK     1      21.376  13.845   9.776  1.00  0.00     0.008 A 
HETATM   32  C3  UNK     1      22.287  13.133  10.556  1.00  0.00    -0.058 A 
HETATM   33  C9  UNK     1      21.832  12.158  11.445  1.00  0.00     0.008 A 
HETATM   34  C12 UNK     1      20.466  11.896  11.552  1.00  0.00     0.013 A 
BRANCH  32  35
HETATM   35  C2  UNK     1      23.747  13.415  10.442  1.00  0.00     0.042 C 
BRANCH  35  36
HETATM   36  C1  UNK     1      24.631  12.631  11.442  1.00  0.00    -0.019 C 
HETATM   37  C6  UNK     1      25.791  11.921  10.739  1.00  0.00     0.010 C 
HETATM   38  C7  UNK     1      25.180  13.571  12.519  1.00  0.00     0.010 C 
ENDBRANCH  35  36
ENDBRANCH  32  35
ENDBRANCH   2  29
TORSDOF 9
ENDMDL
MODEL 9
REMARK VINA RESULT:      -8.3      3.994     12.131
REMARK  9 active torsions:
REMARK  status: ('A' for Active; 'I' for Inactive)
REMARK    1  A    between atoms: C16_24  and  O1_2 
REMARK    2  A    between atoms: C25_33  and  O1_2 
REMARK    3  A    between atoms: C23_31  and  O5_6 
REMARK    4  A    between atoms: C14_22  and  N1_8 
REMARK       I    between atoms: C17_25  and  N1_8 
REMARK    5  A    between atoms: C1_9  and  C2_10 
REMARK    6  A    between atoms: C2_10  and  C3_11 
REMARK    7  A    between atoms: C4_12  and  C5_13 
REMARK    8  A    between atoms: C10_18  and  C16_24 
REMARK    9  A    between atoms: C17_25  and  C18_26 
ROOT
HETATM    1  S1  UNK     1      18.223   1.339  32.425  1.00  0.00    -0.075 SA
HETATM    2  C5  UNK     1      18.822   0.015  34.544  1.00  0.00     0.006 A 
HETATM    3  C10 UNK     1      18.790   1.385  34.931  1.00  0.00     0.085 A 
HETATM    4  C13 UNK     1      18.534  -0.153  33.207  1.00  0.00    -0.007 A 
HETATM    5  C14 UNK     1      18.476   2.214  33.875  1.00  0.00     0.094 A 
HETATM    6  C15 UNK     1      18.461  -1.400  32.409  1.00  0.00     0.057 C 
ENDROOT
BRANCH   5   7
HETATM    7  N1  UNK     1      18.336   3.602  33.801  1.00  0.00    -0.316 N 
HETATM    8  C17 UNK     1      18.263   4.356  32.637  1.00  0.00     0.262 C 
HETATM    9  O4  UNK     1      18.304   3.971  31.470  1.00  0.00    -0.267 OA
HETATM   10  H17 UNK     1      18.289   4.083  34.696  1.00  0.00     0.169 HD
BRANCH   8  11
HETATM   11  C18 UNK     1      18.117   5.788  32.922  1.00  0.00     0.108 A 
HETATM   12  C20 UNK     1      19.200   6.407  33.408  1.00  0.00     0.037 A 
HETATM   13  C19 UNK     1      19.154   7.828  33.722  1.00  0.00     0.002 A 
HETATM   14  C21 UNK     1      17.969   8.525  33.509  1.00  0.00     0.123 A 
HETATM   15  C24 UNK     1      20.259   8.514  34.229  1.00  0.00     0.014 A 
HETATM   16  O2  UNK     1      16.834   7.868  32.998  1.00  0.00    -0.271 OA
HETATM   17  C23 UNK     1      17.859   9.886  33.789  1.00  0.00     0.102 A 
HETATM   18  C22 UNK     1      16.847   6.511  32.687  1.00  0.00     0.304 A 
HETATM   19  O6  UNK     1      15.853   5.948  32.242  1.00  0.00    -0.259 OA
HETATM   20  C26 UNK     1      18.967  10.563  34.295  1.00  0.00     0.040 A 
HETATM   21  C27 UNK     1      20.164   9.879  34.515  1.00  0.00     0.004 A 
BRANCH  17  22
HETATM   22  O5  UNK     1      16.695  10.557  33.577  1.00  0.00    -0.353 OA
HETATM   23  C29 UNK     1      16.217  11.381  34.639  1.00  0.00     0.210 C 
ENDBRANCH  17  22
ENDBRANCH   8  11
ENDBRANCH   5   7
BRANCH   3  24
HETATM   24  C16 UNK     1      19.046   1.891  36.257  1.00  0.00     0.297 C 
HETATM   25  O3  UNK     1      19.939   2.710  36.523  1.00  0.00    -0.259 OA
BRANCH  24  26
HETATM   26  O1  UNK     1      18.205   1.383  37.222  1.00  0.00    -0.318 OA
BRANCH  26  27
HETATM   27  C25 UNK     1      16.871   1.901  37.255  1.00  0.00     0.174 C 
HETATM   28  C28 UNK     1      15.909   0.816  36.821  1.00  0.00     0.034 C 
ENDBRANCH  26  27
ENDBRANCH  24  26
ENDBRANCH   3  24
BRANCH   2  29
HETATM   29  C4  UNK     1      19.114  -1.119  35.386  1.00  0.00    -0.024 A 
HETATM   30  C11 UNK     1      20.423  -1.589  35.493  1.00  0.00     0.013 A 
HETATM   31  C8  UNK     1      20.706  -2.686  36.307  1.00  0.00     0.008 A 
HETATM   32  C3  UNK     1      19.680  -3.314  37.013  1.00  0.00    -0.058 A 
HETATM   33  C9  UNK     1      18.371  -2.844  36.906  1.00  0.00     0.008 A 
HETATM   34  C12 UNK     1      18.088  -1.746  36.092  1.00  0.00     0.013 A 
BRANCH  32  35
HETATM   35  C2  UNK     1      19.983  -4.485  37.884  1.00  0.00     0.042 C 
BRANCH  35  36
HETATM   36  C1  UNK     1      21.058  -5.444  37.318  1.00  0.00    -0.019 C 
HETATM   37  C6  UNK     1      21.791  -6.196  38.432  1.00  0.00     0.010 C 
HETATM   38  C7  UNK     1      20.422  -6.448  36.352  1.00  0.00     0.010 C 
ENDBRANCH  35  36
ENDBRANCH  32  35
ENDBRANCH   2  29
TORSDOF 9
ENDMDL
MODEL 10
REMARK VINA RESULT:      -8.2     27.845     30.000
REMARK  9 active torsions:
REMARK  status: ('A' for Active; 'I' for Inactive)
REMARK    1  A    between atoms: C16_24  and  O1_2 
REMARK    2  A    between atoms: C25_33  and  O1_2 
REMARK    3  A    between atoms: C23_31  and  O5_6 
REMARK    4  A    between atoms: C14_22  and  N1_8 
REMARK       I    between atoms: C17_25  and  N1_8 
REMARK    5  A    between atoms: C1_9  and  C2_10 
REMARK    6  A    between atoms: C2_10  and  C3_11 
REMARK    7  A    between atoms: C4_12  and  C5_13 
REMARK    8  A    between atoms: C10_18  and  C16_24 
REMARK    9  A    between atoms: C17_25  and  C18_26 
ROOT
HETATM    1  S1  UNK     1      15.161  13.000   9.026  1.00  0.00    -0.075 SA
HETATM    2  C5  UNK     1      17.540  12.144   9.480  1.00  0.00     0.006 A 
HETATM    3  C10 UNK     1      16.710  10.989   9.421  1.00  0.00     0.085 A 
HETATM    4  C13 UNK     1      16.826  13.306   9.283  1.00  0.00    -0.007 A 
HETATM    5  C14 UNK     1      15.392  11.311   9.180  1.00  0.00     0.094 A 
HETATM    6  C15 UNK     1      17.299  14.711   9.266  1.00  0.00     0.057 C 
ENDROOT
BRANCH   5   7
HETATM    7  N1  UNK     1      14.256  10.509   9.044  1.00  0.00    -0.316 N 
HETATM    8  C17 UNK     1      13.495   9.986  10.081  1.00  0.00     0.262 C 
HETATM    9  O4  UNK     1      13.657  10.117  11.292  1.00  0.00    -0.267 OA
HETATM   10  H17 UNK     1      13.983  10.299   8.087  1.00  0.00     0.169 HD
BRANCH   8  11
HETATM   11  C18 UNK     1      12.369   9.186   9.584  1.00  0.00     0.108 A 
HETATM   12  C20 UNK     1      12.604   8.450   8.492  1.00  0.00     0.037 A 
HETATM   13  C19 UNK     1      11.549   7.624   7.923  1.00  0.00     0.002 A 
HETATM   14  C21 UNK     1      10.299   7.615   8.533  1.00  0.00     0.123 A 
HETATM   15  C24 UNK     1      11.750   6.838   6.785  1.00  0.00     0.014 A 
HETATM   16  O2  UNK     1      10.058   8.392   9.682  1.00  0.00    -0.271 OA
HETATM   17  C23 UNK     1       9.247   6.846   8.039  1.00  0.00     0.102 A 
HETATM   18  C22 UNK     1      11.046   9.191  10.250  1.00  0.00     0.304 A 
HETATM   19  O6  UNK     1      10.827   9.864  11.250  1.00  0.00    -0.259 OA
HETATM   20  C26 UNK     1       9.456   6.066   6.903  1.00  0.00     0.040 A 
HETATM   21  C27 UNK     1      10.704   6.062   6.278  1.00  0.00     0.004 A 
BRANCH  17  22
HETATM   22  O5  UNK     1       8.029   6.847   8.645  1.00  0.00    -0.353 OA
HETATM   23  C29 UNK     1       7.650   5.662   9.344  1.00  0.00     0.210 C 
ENDBRANCH  17  22
ENDBRANCH   8  11
ENDBRANCH   5   7
BRANCH   3  24
HETATM   24  C16 UNK     1      17.152   9.626   9.586  1.00  0.00     0.297 C 
HETATM   25  O3  UNK     1      17.944   9.059   8.819  1.00  0.00    -0.259 OA
BRANCH  24  26
HETATM   26  O1  UNK     1      16.614   8.993  10.685  1.00  0.00    -0.318 OA
BRANCH  26  27
HETATM   27  C25 UNK     1      16.791   7.574  10.765  1.00  0.00     0.174 C 
HETATM   28  C28 UNK     1      15.517   6.893  10.314  1.00  0.00     0.034 C 
ENDBRANCH  26  27
ENDBRANCH  24  26
ENDBRANCH   3  24
BRANCH   2  29
HETATM   29  C4  UNK     1      18.963  12.181   9.714  1.00  0.00    -0.024 A 
HETATM   30  C11 UNK     1      19.847  12.170   8.635  1.00  0.00     0.013 A 
HETATM   31  C8  UNK     1      21.223  12.206   8.861  1.00  0.00     0.008 A 
HETATM   32  C3  UNK     1      21.715  12.251  10.166  1.00  0.00    -0.058 A 
HETATM   33  C9  UNK     1      20.831  12.262  11.244  1.00  0.00     0.008 A 
HETATM   34  C12 UNK     1      19.454  12.227  11.019  1.00  0.00     0.013 A 
BRANCH  32  35
HETATM   35  C2  UNK     1      23.186  12.290  10.407  1.00  0.00     0.042 C 
BRANCH  35  36
HETATM   36  C1  UNK     1      23.589  12.349  11.900  1.00  0.00    -0.019 C 
HETATM   37  C6  UNK     1      24.873  11.561  12.173  1.00  0.00     0.010 C 
HETATM   38  C7  UNK     1      23.773  13.803  12.345  1.00  0.00     0.010 C 
ENDBRANCH  35  36
ENDBRANCH  32  35
ENDBRANCH   2  29
TORSDOF 9
ENDMDL
