MODEL 1
REMARK VINA RESULT:     -10.9      0.000      0.000
REMARK  4 active torsions:
REMARK  status: ('A' for Active; 'I' for Inactive)
REMARK    1  A    between atoms: C20_27  and  O3_5 
REMARK    2  A    between atoms: C5_12  and  N1_7 
REMARK    3  A    between atoms: C1_8  and  C2_9 
REMARK    4  A    between atoms: C13_20  and  C15_22 
ROOT
HETATM    1  C1  UNK     1      18.672  -0.941  35.186  1.00  0.00    -0.018 A 
HETATM    2  C5  UNK     1      18.992  -2.532  36.974  1.00  0.00     0.032 A 
HETATM    3  C6  UNK     1      19.170  -2.161  35.642  1.00  0.00     0.042 A 
HETATM    4  C8  UNK     1      17.996  -0.091  36.061  1.00  0.00     0.012 A 
HETATM    5  C10 UNK     1      18.317  -1.682  37.850  1.00  0.00     0.029 A 
HETATM    6  C11 UNK     1      17.820  -0.462  37.394  1.00  0.00     0.003 A 
ENDROOT
BRANCH   2   7
HETATM    7  N1  UNK     1      19.494  -3.766  37.436  1.00  0.00    -0.365 N 
HETATM    8  C15 UNK     1      19.969  -4.807  36.718  1.00  0.00     0.105 C 
HETATM    9  H5  UNK     1      19.488  -3.866  38.443  1.00  0.00     0.165 HD
BRANCH   8  10
HETATM   10  C13 UNK     1      20.441  -5.970  37.172  1.00  0.00     0.051 A 
HETATM   11  C18 UNK     1      21.714  -5.862  37.969  1.00  0.00     0.218 A 
HETATM   12  O4  UNK     1      22.282  -4.797  38.198  1.00  0.00    -0.284 OA
HETATM   13  C20 UNK     1      22.279  -7.133  38.490  1.00  0.00     0.120 A 
HETATM   14  C22 UNK     1      21.659  -8.292  38.245  1.00  0.00     0.061 A 
HETATM   15  C21 UNK     1      20.431  -8.394  37.480  1.00  0.00     0.032 A 
HETATM   16 Br2  UNK     1      19.778 -10.151  37.293  1.00  0.00    -0.050 Br
HETATM   17  C19 UNK     1      19.838  -7.295  36.962  1.00  0.00     0.044 A 
HETATM   18 Br1  UNK     1      18.237  -7.403  35.963  1.00  0.00    -0.049 Br
BRANCH  13  19
HETATM   19  O3  UNK     1      23.444  -7.088  39.225  1.00  0.00    -0.352 OA
HETATM   20  C23 UNK     1      24.392  -8.010  38.722  1.00  0.00     0.210 C 
ENDBRANCH  13  19
ENDBRANCH   8  10
ENDBRANCH   2   7
BRANCH   1  21
HETATM   21  C2  UNK     1      18.859  -0.549  33.776  1.00  0.00     0.051 A 
HETATM   22  C4  UNK     1      19.415  -1.425  32.925  1.00  0.00     0.032 A 
HETATM   23  C3  UNK     1      19.635  -1.079  31.530  1.00  0.00    -0.001 A 
HETATM   24  C12 UNK     1      20.206  -1.974  30.621  1.00  0.00     0.014 A 
HETATM   25  C7  UNK     1      19.268   0.185  31.088  1.00  0.00     0.089 A 
HETATM   26  C16 UNK     1      20.398  -1.590  29.291  1.00  0.00     0.001 A 
HETATM   27  C17 UNK     1      20.023  -0.315  28.864  1.00  0.00     0.003 A 
HETATM   28  C14 UNK     1      19.455   0.583  29.764  1.00  0.00     0.038 A 
HETATM   29  O1  UNK     1      18.690   1.113  31.975  1.00  0.00    -0.274 OA
HETATM   30  C9  UNK     1      18.454   0.806  33.312  1.00  0.00     0.299 A 
HETATM   31  O2  UNK     1      17.928   1.622  34.063  1.00  0.00    -0.259 OA
ENDBRANCH   1  21
TORSDOF 4
ENDMDL
MODEL 2
REMARK VINA RESULT:     -10.2      1.496      2.286
REMARK  4 active torsions:
REMARK  status: ('A' for Active; 'I' for Inactive)
REMARK    1  A    between atoms: C20_27  and  O3_5 
REMARK    2  A    between atoms: C5_12  and  N1_7 
REMARK    3  A    between atoms: C1_8  and  C2_9 
REMARK    4  A    between atoms: C13_20  and  C15_22 
ROOT
HETATM    1  C1  UNK     1      18.237  -0.057  35.390  1.00  0.00    -0.018 A 
HETATM    2  C5  UNK     1      18.573  -1.774  37.055  1.00  0.00     0.032 A 
HETATM    3  C6  UNK     1      18.750  -1.301  35.755  1.00  0.00     0.042 A 
HETATM    4  C8  UNK     1      17.547   0.715  36.324  1.00  0.00     0.012 A 
HETATM    5  C10 UNK     1      17.883  -1.002  37.990  1.00  0.00     0.029 A 
HETATM    6  C11 UNK     1      17.370   0.243  37.624  1.00  0.00     0.003 A 
ENDROOT
BRANCH   2   7
HETATM    7  N1  UNK     1      19.090  -3.032  37.425  1.00  0.00    -0.365 N 
HETATM    8  C15 UNK     1      19.369  -4.095  36.639  1.00  0.00     0.105 C 
HETATM    9  H5  UNK     1      19.267  -3.134  38.416  1.00  0.00     0.165 HD
BRANCH   8  10
HETATM   10  C13 UNK     1      19.859  -5.282  37.006  1.00  0.00     0.051 A 
HETATM   11  C18 UNK     1      21.264  -5.239  37.546  1.00  0.00     0.218 A 
HETATM   12  O4  UNK     1      21.919  -4.206  37.652  1.00  0.00    -0.284 OA
HETATM   13  C20 UNK     1      21.852  -6.539  37.962  1.00  0.00     0.120 A 
HETATM   14  C22 UNK     1      21.139  -7.664  37.850  1.00  0.00     0.061 A 
HETATM   15  C21 UNK     1      19.784  -7.702  37.333  1.00  0.00     0.032 A 
HETATM   16 Br2  UNK     1      19.019  -9.422  37.290  1.00  0.00    -0.050 Br
HETATM   17  C19 UNK     1      19.160  -6.573  36.927  1.00  0.00     0.044 A 
HETATM   18 Br1  UNK     1      17.395  -6.597  36.251  1.00  0.00    -0.049 Br
BRANCH  13  19
HETATM   19  O3  UNK     1      23.137  -6.555  38.462  1.00  0.00    -0.352 OA
HETATM   20  C23 UNK     1      23.333  -7.671  39.309  1.00  0.00     0.210 C 
ENDBRANCH  13  19
ENDBRANCH   8  10
ENDBRANCH   2   7
BRANCH   1  21
HETATM   21  C2  UNK     1      18.424   0.443  34.015  1.00  0.00     0.051 A 
HETATM   22  C4  UNK     1      18.245   1.751  33.769  1.00  0.00     0.032 A 
HETATM   23  C3  UNK     1      18.402   2.289  32.428  1.00  0.00    -0.001 A 
HETATM   24  C12 UNK     1      18.229   3.646  32.144  1.00  0.00     0.014 A 
HETATM   25  C7  UNK     1      18.732   1.424  31.393  1.00  0.00     0.089 A 
HETATM   26  C16 UNK     1      18.389   4.112  30.836  1.00  0.00     0.001 A 
HETATM   27  C17 UNK     1      18.721   3.227  29.808  1.00  0.00     0.003 A 
HETATM   28  C14 UNK     1      18.894   1.873  30.083  1.00  0.00     0.038 A 
HETATM   29  O1  UNK     1      18.915   0.050  31.641  1.00  0.00    -0.274 OA
HETATM   30  C9  UNK     1      18.786  -0.493  32.917  1.00  0.00     0.299 A 
HETATM   31  O2  UNK     1      18.972  -1.690  33.115  1.00  0.00    -0.259 OA
ENDBRANCH   1  21
TORSDOF 4
ENDMDL
MODEL 3
REMARK VINA RESULT:     -10.1     27.843     29.748
REMARK  4 active torsions:
REMARK  status: ('A' for Active; 'I' for Inactive)
REMARK    1  A    between atoms: C20_27  and  O3_5 
REMARK    2  A    between atoms: C5_12  and  N1_7 
REMARK    3  A    between atoms: C1_8  and  C2_9 
REMARK    4  A    between atoms: C13_20  and  C15_22 
ROOT
HETATM    1  C1  UNK     1      11.316   6.365   7.640  1.00  0.00    -0.018 A 
HETATM    2  C5  UNK     1       8.928   6.145   7.922  1.00  0.00     0.032 A 
HETATM    3  C6  UNK     1      10.212   6.152   8.464  1.00  0.00     0.042 A 
HETATM    4  C8  UNK     1      11.137   6.572   6.272  1.00  0.00     0.012 A 
HETATM    5  C10 UNK     1       8.748   6.353   6.554  1.00  0.00     0.029 A 
HETATM    6  C11 UNK     1       9.852   6.567   5.730  1.00  0.00     0.003 A 
ENDROOT
BRANCH   2   7
HETATM    7  N1  UNK     1       7.811   5.929   8.754  1.00  0.00    -0.365 N 
HETATM    8  C15 UNK     1       7.731   6.015  10.100  1.00  0.00     0.105 C 
HETATM    9  H5  UNK     1       6.967   5.674   8.259  1.00  0.00     0.165 HD
BRANCH   8  10
HETATM   10  C13 UNK     1       6.663   5.806  10.874  1.00  0.00     0.051 A 
HETATM   11  C18 UNK     1       6.266   4.361  11.019  1.00  0.00     0.218 A 
HETATM   12  O4  UNK     1       6.869   3.436  10.482  1.00  0.00    -0.284 OA
HETATM   13  C20 UNK     1       5.079   4.083  11.867  1.00  0.00     0.120 A 
HETATM   14  C22 UNK     1       4.425   5.089  12.456  1.00  0.00     0.061 A 
HETATM   15  C21 UNK     1       4.810   6.480  12.317  1.00  0.00     0.032 A 
HETATM   16 Br2  UNK     1       3.711   7.686  13.258  1.00  0.00    -0.050 Br
HETATM   17  C19 UNK     1       5.876   6.838  11.566  1.00  0.00     0.044 A 
HETATM   18 Br1  UNK     1       6.398   8.645  11.371  1.00  0.00    -0.049 Br
BRANCH  13  19
HETATM   19  O3  UNK     1       4.674   2.775  12.031  1.00  0.00    -0.352 OA
HETATM   20  C23 UNK     1       4.879   2.349  13.365  1.00  0.00     0.210 C 
ENDBRANCH  13  19
ENDBRANCH   8  10
ENDBRANCH   2   7
BRANCH   1  21
HETATM   21  C2  UNK     1      12.675   6.371   8.214  1.00  0.00     0.051 A 
HETATM   22  C4  UNK     1      13.230   7.543   8.560  1.00  0.00     0.032 A 
HETATM   23  C3  UNK     1      14.572   7.602   9.114  1.00  0.00    -0.001 A 
HETATM   24  C12 UNK     1      15.171   8.808   9.490  1.00  0.00     0.014 A 
HETATM   25  C7  UNK     1      15.285   6.421   9.273  1.00  0.00     0.089 A 
HETATM   26  C16 UNK     1      16.466   8.810  10.016  1.00  0.00     0.001 A 
HETATM   27  C17 UNK     1      17.167   7.612  10.168  1.00  0.00     0.003 A 
HETATM   28  C14 UNK     1      16.577   6.407   9.795  1.00  0.00     0.038 A 
HETATM   29  O1  UNK     1      14.713   5.188   8.906  1.00  0.00    -0.274 OA
HETATM   30  C9  UNK     1      13.425   5.097   8.386  1.00  0.00     0.299 A 
HETATM   31  O2  UNK     1      12.938   4.009   8.094  1.00  0.00    -0.259 OA
ENDBRANCH   1  21
TORSDOF 4
ENDMDL
MODEL 4
REMARK VINA RESULT:     -10.0      7.207     12.384
REMARK  4 active torsions:
REMARK  status: ('A' for Active; 'I' for Inactive)
REMARK    1  A    between atoms: C20_27  and  O3_5 
REMARK    2  A    between atoms: C5_12  and  N1_7 
REMARK    3  A    between atoms: C1_8  and  C2_9 
REMARK    4  A    between atoms: C13_20  and  C15_22 
ROOT
HETATM    1  C1  UNK     1      18.421   2.381  32.374  1.00  0.00    -0.018 A 
HETATM    2  C5  UNK     1      18.196   4.674  31.652  1.00  0.00     0.032 A 
HETATM    3  C6  UNK     1      18.117   3.711  32.658  1.00  0.00     0.042 A 
HETATM    4  C8  UNK     1      18.805   2.012  31.085  1.00  0.00     0.012 A 
HETATM    5  C10 UNK     1      18.580   4.306  30.363  1.00  0.00     0.029 A 
HETATM    6  C11 UNK     1      18.885   2.975  30.080  1.00  0.00     0.003 A 
ENDROOT
BRANCH   2   7
HETATM    7  N1  UNK     1      17.887   6.020  31.938  1.00  0.00    -0.365 N 
HETATM    8  C15 UNK     1      17.067   6.515  32.891  1.00  0.00     0.105 C 
HETATM    9  H5  UNK     1      18.349   6.689  31.336  1.00  0.00     0.165 HD
BRANCH   8  10
HETATM   10  C13 UNK     1      16.786   7.795  33.148  1.00  0.00     0.051 A 
HETATM   11  C18 UNK     1      17.973   8.629  33.550  1.00  0.00     0.218 A 
HETATM   12  O4  UNK     1      19.115   8.187  33.634  1.00  0.00    -0.284 OA
HETATM   13  C20 UNK     1      17.704  10.059  33.851  1.00  0.00     0.120 A 
HETATM   14  C22 UNK     1      16.461  10.543  33.756  1.00  0.00     0.061 A 
HETATM   15  C21 UNK     1      15.320   9.737  33.366  1.00  0.00     0.032 A 
HETATM   16 Br2  UNK     1      13.690  10.678  33.314  1.00  0.00    -0.050 Br
HETATM   17  C19 UNK     1      15.459   8.424  33.072  1.00  0.00     0.044 A 
HETATM   18 Br1  UNK     1      13.987   7.355  32.560  1.00  0.00    -0.049 Br
BRANCH  13  19
HETATM   19  O3  UNK     1      18.758  10.866  34.225  1.00  0.00    -0.352 OA
HETATM   20  C23 UNK     1      18.324  12.198  34.427  1.00  0.00     0.210 C 
ENDBRANCH  13  19
ENDBRANCH   8  10
ENDBRANCH   2   7
BRANCH   1  21
HETATM   21  C2  UNK     1      18.337   1.362  33.437  1.00  0.00     0.051 A 
HETATM   22  C4  UNK     1      18.116   1.757  34.701  1.00  0.00     0.032 A 
HETATM   23  C3  UNK     1      18.041   0.792  35.786  1.00  0.00    -0.001 A 
HETATM   24  C12 UNK     1      17.805   1.175  37.109  1.00  0.00     0.014 A 
HETATM   25  C7  UNK     1      18.213  -0.555  35.497  1.00  0.00     0.089 A 
HETATM   26  C16 UNK     1      17.744   0.207  38.115  1.00  0.00     0.001 A 
HETATM   27  C17 UNK     1      17.920  -1.143  37.806  1.00  0.00     0.003 A 
HETATM   28  C14 UNK     1      18.156  -1.532  36.490  1.00  0.00     0.038 A 
HETATM   29  O1  UNK     1      18.452  -0.978  34.176  1.00  0.00    -0.274 OA
HETATM   30  C9  UNK     1      18.515  -0.080  33.113  1.00  0.00     0.299 A 
HETATM   31  O2  UNK     1      18.702  -0.472  31.966  1.00  0.00    -0.259 OA
ENDBRANCH   1  21
TORSDOF 4
ENDMDL
MODEL 5
REMARK VINA RESULT:     -10.0     28.141     31.207
REMARK  4 active torsions:
REMARK  status: ('A' for Active; 'I' for Inactive)
REMARK    1  A    between atoms: C20_27  and  O3_5 
REMARK    2  A    between atoms: C5_12  and  N1_7 
REMARK    3  A    between atoms: C1_8  and  C2_9 
REMARK    4  A    between atoms: C13_20  and  C15_22 
ROOT
HETATM    1  C1  UNK     1      14.828   7.590   9.358  1.00  0.00    -0.018 A 
HETATM    2  C5  UNK     1      16.768   9.021   9.505  1.00  0.00     0.032 A 
HETATM    3  C6  UNK     1      15.432   8.831   9.156  1.00  0.00     0.042 A 
HETATM    4  C8  UNK     1      15.561   6.539   9.909  1.00  0.00     0.012 A 
HETATM    5  C10 UNK     1      17.501   7.970  10.057  1.00  0.00     0.029 A 
HETATM    6  C11 UNK     1      16.897   6.730  10.259  1.00  0.00     0.003 A 
ENDROOT
BRANCH   2   7
HETATM    7  N1  UNK     1      17.380  10.275   9.300  1.00  0.00    -0.365 N 
HETATM    8  C15 UNK     1      17.256  11.113   8.248  1.00  0.00     0.105 C 
HETATM    9  H5  UNK     1      17.990  10.567  10.052  1.00  0.00     0.165 HD
BRANCH   8  10
HETATM   10  C13 UNK     1      17.844  12.299   8.069  1.00  0.00     0.051 A 
HETATM   11  C18 UNK     1      19.349  12.261   8.081  1.00  0.00     0.218 A 
HETATM   12  O4  UNK     1      20.000  11.231   8.233  1.00  0.00    -0.284 OA
HETATM   13  C20 UNK     1      20.044  13.560   7.892  1.00  0.00     0.120 A 
HETATM   14  C22 UNK     1      19.337  14.681   7.721  1.00  0.00     0.061 A 
HETATM   15  C21 UNK     1      17.887  14.715   7.708  1.00  0.00     0.032 A 
HETATM   16 Br2  UNK     1      17.154  16.430   7.447  1.00  0.00    -0.050 Br
HETATM   17  C19 UNK     1      17.160  13.586   7.873  1.00  0.00     0.044 A 
HETATM   18 Br1  UNK     1      15.270  13.605   7.857  1.00  0.00    -0.049 Br
BRANCH  13  19
HETATM   19  O3  UNK     1      21.423  13.579   7.895  1.00  0.00    -0.352 OA
HETATM   20  C23 UNK     1      21.925  13.833   6.596  1.00  0.00     0.210 C 
ENDBRANCH  13  19
ENDBRANCH   8  10
ENDBRANCH   2   7
BRANCH   1  21
HETATM   21  C2  UNK     1      13.415   7.389   8.988  1.00  0.00     0.051 A 
HETATM   22  C4  UNK     1      13.122   6.945   7.755  1.00  0.00     0.032 A 
HETATM   23  C3  UNK     1      11.743   6.746   7.339  1.00  0.00    -0.001 A 
HETATM   24  C12 UNK     1      11.410   6.280   6.065  1.00  0.00     0.014 A 
HETATM   25  C7  UNK     1      10.724   7.032   8.237  1.00  0.00     0.089 A 
HETATM   26  C16 UNK     1      10.068   6.107   5.713  1.00  0.00     0.001 A 
HETATM   27  C17 UNK     1       9.056   6.401   6.630  1.00  0.00     0.003 A 
HETATM   28  C14 UNK     1       9.381   6.867   7.901  1.00  0.00     0.038 A 
HETATM   29  O1  UNK     1      11.022   7.504   9.529  1.00  0.00    -0.274 OA
HETATM   30  C9  UNK     1      12.332   7.691   9.963  1.00  0.00     0.299 A 
HETATM   31  O2  UNK     1      12.570   8.082  11.101  1.00  0.00    -0.259 OA
ENDBRANCH   1  21
TORSDOF 4
ENDMDL
MODEL 6
REMARK VINA RESULT:      -9.9      7.195     10.236
REMARK  4 active torsions:
REMARK  status: ('A' for Active; 'I' for Inactive)
REMARK    1  A    between atoms: C20_27  and  O3_5 
REMARK    2  A    between atoms: C5_12  and  N1_7 
REMARK    3  A    between atoms: C1_8  and  C2_9 
REMARK    4  A    between atoms: C13_20  and  C15_22 
ROOT
HETATM    1  C1  UNK     1      17.572   7.583  33.498  1.00  0.00    -0.018 A 
HETATM    2  C5  UNK     1      18.398   5.317  33.618  1.00  0.00     0.032 A 
HETATM    3  C6  UNK     1      17.330   6.212  33.578  1.00  0.00     0.042 A 
HETATM    4  C8  UNK     1      18.882   8.060  33.457  1.00  0.00     0.012 A 
HETATM    5  C10 UNK     1      19.709   5.793  33.576  1.00  0.00     0.029 A 
HETATM    6  C11 UNK     1      19.951   7.164  33.496  1.00  0.00     0.003 A 
ENDROOT
BRANCH   2   7
HETATM    7  N1  UNK     1      18.155   3.930  33.700  1.00  0.00    -0.365 N 
HETATM    8  C15 UNK     1      18.627   3.042  34.603  1.00  0.00     0.105 C 
HETATM    9  H5  UNK     1      17.544   3.572  32.978  1.00  0.00     0.165 HD
BRANCH   8  10
HETATM   10  C13 UNK     1      18.386   1.730  34.666  1.00  0.00     0.051 A 
HETATM   11  C18 UNK     1      18.440   1.018  33.341  1.00  0.00     0.218 A 
HETATM   12  O4  UNK     1      18.691   1.580  32.279  1.00  0.00    -0.284 OA
HETATM   13  C20 UNK     1      18.172  -0.443  33.364  1.00  0.00     0.120 A 
HETATM   14  C22 UNK     1      17.903  -1.057  34.521  1.00  0.00     0.061 A 
HETATM   15  C21 UNK     1      17.853  -0.369  35.797  1.00  0.00     0.032 A 
HETATM   16 Br2  UNK     1      17.454  -1.482  37.263  1.00  0.00    -0.050 Br
HETATM   17  C19 UNK     1      18.082   0.961  35.882  1.00  0.00     0.044 A 
HETATM   18 Br1  UNK     1      18.025   1.879  37.534  1.00  0.00    -0.049 Br
BRANCH  13  19
HETATM   19  O3  UNK     1      18.209  -1.142  32.177  1.00  0.00    -0.352 OA
HETATM   20  C23 UNK     1      19.489  -1.710  31.967  1.00  0.00     0.210 C 
ENDBRANCH  13  19
ENDBRANCH   8  10
ENDBRANCH   2   7
BRANCH   1  21
HETATM   21  C2  UNK     1      16.443   8.530  33.457  1.00  0.00     0.051 A 
HETATM   22  C4  UNK     1      16.051   9.126  34.595  1.00  0.00     0.032 A 
HETATM   23  C3  UNK     1      14.932  10.054  34.608  1.00  0.00    -0.001 A 
HETATM   24  C12 UNK     1      14.507  10.693  35.776  1.00  0.00     0.014 A 
HETATM   25  C7  UNK     1      14.262  10.313  33.419  1.00  0.00     0.089 A 
HETATM   26  C16 UNK     1      13.425  11.576  35.735  1.00  0.00     0.001 A 
HETATM   27  C17 UNK     1      12.763  11.824  34.530  1.00  0.00     0.003 A 
HETATM   28  C14 UNK     1      13.180  11.191  33.362  1.00  0.00     0.038 A 
HETATM   29  O1  UNK     1      14.662   9.689  32.223  1.00  0.00    -0.274 OA
HETATM   30  C9  UNK     1      15.738   8.805  32.175  1.00  0.00     0.299 A 
HETATM   31  O2  UNK     1      16.084   8.289  31.117  1.00  0.00    -0.259 OA
ENDBRANCH   1  21
TORSDOF 4
ENDMDL
MODEL 7
REMARK VINA RESULT:      -9.9      4.268      9.629
REMARK  4 active torsions:
REMARK  status: ('A' for Active; 'I' for Inactive)
REMARK    1  A    between atoms: C20_27  and  O3_5 
REMARK    2  A    between atoms: C5_12  and  N1_7 
REMARK    3  A    between atoms: C1_8  and  C2_9 
REMARK    4  A    between atoms: C13_20  and  C15_22 
ROOT
HETATM    1  C1  UNK     1      18.923  -2.213  36.631  1.00  0.00    -0.018 A 
HETATM    2  C5  UNK     1      18.629  -0.171  35.376  1.00  0.00     0.032 A 
HETATM    3  C6  UNK     1      19.097  -1.482  35.457  1.00  0.00     0.042 A 
HETATM    4  C8  UNK     1      18.279  -1.636  37.725  1.00  0.00     0.012 A 
HETATM    5  C10 UNK     1      17.984   0.407  36.470  1.00  0.00     0.029 A 
HETATM    6  C11 UNK     1      17.809  -0.325  37.644  1.00  0.00     0.003 A 
ENDROOT
BRANCH   2   7
HETATM    7  N1  UNK     1      18.806   0.570  34.190  1.00  0.00    -0.365 N 
HETATM    8  C15 UNK     1      18.194   1.713  33.809  1.00  0.00     0.105 C 
HETATM    9  H5  UNK     1      19.485   0.177  33.552  1.00  0.00     0.165 HD
BRANCH   8  10
HETATM   10  C13 UNK     1      18.374   2.404  32.680  1.00  0.00     0.051 A 
HETATM   11  C18 UNK     1      18.604   1.556  31.457  1.00  0.00     0.218 A 
HETATM   12  O4  UNK     1      18.621   0.329  31.476  1.00  0.00    -0.284 OA
HETATM   13  C20 UNK     1      18.816   2.284  30.179  1.00  0.00     0.120 A 
HETATM   14  C22 UNK     1      18.793   3.620  30.157  1.00  0.00     0.061 A 
HETATM   15  C21 UNK     1      18.569   4.434  31.336  1.00  0.00     0.032 A 
HETATM   16 Br2  UNK     1      18.587   6.289  31.012  1.00  0.00    -0.050 Br
HETATM   17  C19 UNK     1      18.367   3.868  32.547  1.00  0.00     0.044 A 
HETATM   18 Br1  UNK     1      18.070   4.908  34.098  1.00  0.00    -0.049 Br
BRANCH  13  19
HETATM   19  O3  UNK     1      19.032   1.554  29.030  1.00  0.00    -0.352 OA
HETATM   20  C23 UNK     1      17.836   1.425  28.284  1.00  0.00     0.210 C 
ENDBRANCH  13  19
ENDBRANCH   8  10
ENDBRANCH   2   7
BRANCH   1  21
HETATM   21  C2  UNK     1      19.419  -3.600  36.717  1.00  0.00     0.051 A 
HETATM   22  C4  UNK     1      18.566  -4.611  36.491  1.00  0.00     0.032 A 
HETATM   23  C3  UNK     1      19.004  -5.995  36.580  1.00  0.00    -0.001 A 
HETATM   24  C12 UNK     1      18.139  -7.066  36.343  1.00  0.00     0.014 A 
HETATM   25  C7  UNK     1      20.325  -6.260  36.914  1.00  0.00     0.089 A 
HETATM   26  C16 UNK     1      18.610  -8.379  36.443  1.00  0.00     0.001 A 
HETATM   27  C17 UNK     1      19.942  -8.626  36.781  1.00  0.00     0.003 A 
HETATM   28  C14 UNK     1      20.809  -7.563  37.020  1.00  0.00     0.038 A 
HETATM   29  O1  UNK     1      21.225  -5.205  37.159  1.00  0.00    -0.274 OA
HETATM   30  C9  UNK     1      20.840  -3.870  37.068  1.00  0.00     0.299 A 
HETATM   31  O2  UNK     1      21.646  -2.966  37.264  1.00  0.00    -0.259 OA
ENDBRANCH   1  21
TORSDOF 4
ENDMDL
MODEL 8
REMARK VINA RESULT:      -9.8      6.823     10.004
REMARK  4 active torsions:
REMARK  status: ('A' for Active; 'I' for Inactive)
REMARK    1  A    between atoms: C20_27  and  O3_5 
REMARK    2  A    between atoms: C5_12  and  N1_7 
REMARK    3  A    between atoms: C1_8  and  C2_9 
REMARK    4  A    between atoms: C13_20  and  C15_22 
ROOT
HETATM    1  C1  UNK     1      17.243   6.945  32.390  1.00  0.00    -0.018 A 
HETATM    2  C5  UNK     1      17.933   4.669  31.972  1.00  0.00     0.032 A 
HETATM    3  C6  UNK     1      17.251   5.600  32.755  1.00  0.00     0.042 A 
HETATM    4  C8  UNK     1      17.917   7.362  31.242  1.00  0.00     0.012 A 
HETATM    5  C10 UNK     1      18.607   5.085  30.824  1.00  0.00     0.029 A 
HETATM    6  C11 UNK     1      18.598   6.431  30.458  1.00  0.00     0.003 A 
ENDROOT
BRANCH   2   7
HETATM    7  N1  UNK     1      17.944   3.308  32.341  1.00  0.00    -0.365 N 
HETATM    8  C15 UNK     1      18.388   2.747  33.487  1.00  0.00     0.105 C 
HETATM    9  H5  UNK     1      17.565   2.685  31.640  1.00  0.00     0.165 HD
BRANCH   8  10
HETATM   10  C13 UNK     1      18.390   1.454  33.820  1.00  0.00     0.051 A 
HETATM   11  C18 UNK     1      18.727   0.516  32.692  1.00  0.00     0.218 A 
HETATM   12  O4  UNK     1      18.989   0.893  31.552  1.00  0.00    -0.284 OA
HETATM   13  C20 UNK     1      18.735  -0.933  33.017  1.00  0.00     0.120 A 
HETATM   14  C22 UNK     1      18.455  -1.344  34.258  1.00  0.00     0.061 A 
HETATM   15  C21 UNK     1      18.133  -0.438  35.344  1.00  0.00     0.032 A 
HETATM   16 Br2  UNK     1      17.784  -1.291  36.986  1.00  0.00    -0.050 Br
HETATM   17  C19 UNK     1      18.099   0.900  35.151  1.00  0.00     0.044 A 
HETATM   18 Br1  UNK     1      17.683   2.100  36.551  1.00  0.00    -0.049 Br
BRANCH  13  19
HETATM   19  O3  UNK     1      19.037  -1.834  32.018  1.00  0.00    -0.352 OA
HETATM   20  C23 UNK     1      20.415  -2.157  32.032  1.00  0.00     0.210 C 
ENDBRANCH  13  19
ENDBRANCH   8  10
ENDBRANCH   2   7
BRANCH   1  21
HETATM   21  C2  UNK     1      16.522   7.930  33.218  1.00  0.00     0.051 A 
HETATM   22  C4  UNK     1      15.505   8.618  32.674  1.00  0.00     0.032 A 
HETATM   23  C3  UNK     1      14.775   9.610  33.445  1.00  0.00    -0.001 A 
HETATM   24  C12 UNK     1      13.709  10.335  32.907  1.00  0.00     0.014 A 
HETATM   25  C7  UNK     1      15.151   9.848  34.761  1.00  0.00     0.089 A 
HETATM   26  C16 UNK     1      13.040  11.280  33.690  1.00  0.00     0.001 A 
HETATM   27  C17 UNK     1      13.433  11.506  35.011  1.00  0.00     0.003 A 
HETATM   28  C14 UNK     1      14.495  10.788  35.554  1.00  0.00     0.038 A 
HETATM   29  O1  UNK     1      16.220   9.136  35.337  1.00  0.00    -0.274 OA
HETATM   30  C9  UNK     1      16.930   8.169  34.629  1.00  0.00     0.299 A 
HETATM   31  O2  UNK     1      17.844   7.544  35.158  1.00  0.00    -0.259 OA
ENDBRANCH   1  21
TORSDOF 4
ENDMDL
MODEL 9
REMARK VINA RESULT:      -9.7      5.013     10.919
REMARK  4 active torsions:
REMARK  status: ('A' for Active; 'I' for Inactive)
REMARK    1  A    between atoms: C20_27  and  O3_5 
REMARK    2  A    between atoms: C5_12  and  N1_7 
REMARK    3  A    between atoms: C1_8  and  C2_9 
REMARK    4  A    between atoms: C13_20  and  C15_22 
ROOT
HETATM    1  C1  UNK     1      28.127  -7.997  38.909  1.00  0.00    -0.018 A 
HETATM    2  C5  UNK     1      25.728  -8.144  38.673  1.00  0.00     0.032 A 
HETATM    3  C6  UNK     1      26.926  -7.473  38.432  1.00  0.00     0.042 A 
HETATM    4  C8  UNK     1      28.131  -9.192  39.627  1.00  0.00     0.012 A 
HETATM    5  C10 UNK     1      25.732  -9.340  39.391  1.00  0.00     0.029 A 
HETATM    6  C11 UNK     1      26.933  -9.864  39.868  1.00  0.00     0.003 A 
ENDROOT
BRANCH   2   7
HETATM    7  N1  UNK     1      24.513  -7.614  38.193  1.00  0.00    -0.365 N 
HETATM    8  C15 UNK     1      23.251  -7.925  38.564  1.00  0.00     0.105 C 
HETATM    9  H5  UNK     1      24.621  -6.911  37.474  1.00  0.00     0.165 HD
BRANCH   8  10
HETATM   10  C13 UNK     1      22.110  -7.413  38.098  1.00  0.00     0.051 A 
HETATM   11  C18 UNK     1      22.029  -5.910  38.150  1.00  0.00     0.218 A 
HETATM   12  O4  UNK     1      22.934  -5.197  38.576  1.00  0.00    -0.284 OA
HETATM   13  C20 UNK     1      20.773  -5.297  37.646  1.00  0.00     0.120 A 
HETATM   14  C22 UNK     1      19.790  -6.072  37.177  1.00  0.00     0.061 A 
HETATM   15  C21 UNK     1      19.871  -7.519  37.126  1.00  0.00     0.032 A 
HETATM   16 Br2  UNK     1      18.340  -8.356  36.416  1.00  0.00    -0.050 Br
HETATM   17  C19 UNK     1      20.971  -8.173  37.561  1.00  0.00     0.044 A 
HETATM   18 Br1  UNK     1      21.100 -10.058  37.503  1.00  0.00    -0.049 Br
BRANCH  13  19
HETATM   19  O3  UNK     1      20.649  -3.924  37.673  1.00  0.00    -0.352 OA
HETATM   20  C23 UNK     1      19.856  -3.470  36.592  1.00  0.00     0.210 C 
ENDBRANCH  13  19
ENDBRANCH   8  10
ENDBRANCH   2   7
BRANCH   1  21
HETATM   21  C2  UNK     1      29.395  -7.287  38.654  1.00  0.00     0.051 A 
HETATM   22  C4  UNK     1      30.442  -7.976  38.174  1.00  0.00     0.032 A 
HETATM   23  C3  UNK     1      31.716  -7.324  37.922  1.00  0.00    -0.001 A 
HETATM   24  C12 UNK     1      32.820  -8.016  37.416  1.00  0.00     0.014 A 
HETATM   25  C7  UNK     1      31.842  -5.968  38.196  1.00  0.00     0.089 A 
HETATM   26  C16 UNK     1      34.024  -7.342  37.194  1.00  0.00     0.001 A 
HETATM   27  C17 UNK     1      34.132  -5.979  37.475  1.00  0.00     0.003 A 
HETATM   28  C14 UNK     1      33.036  -5.283  37.980  1.00  0.00     0.038 A 
HETATM   29  O1  UNK     1      30.751  -5.239  38.705  1.00  0.00    -0.274 OA
HETATM   30  C9  UNK     1      29.513  -5.832  38.944  1.00  0.00     0.299 A 
HETATM   31  O2  UNK     1      28.569  -5.172  39.368  1.00  0.00    -0.259 OA
ENDBRANCH   1  21
TORSDOF 4
ENDMDL
MODEL 10
REMARK VINA RESULT:      -9.7      2.015      2.410
REMARK  4 active torsions:
REMARK  status: ('A' for Active; 'I' for Inactive)
REMARK    1  A    between atoms: C20_27  and  O3_5 
REMARK    2  A    between atoms: C5_12  and  N1_7 
REMARK    3  A    between atoms: C1_8  and  C2_9 
REMARK    4  A    between atoms: C13_20  and  C15_22 
ROOT
HETATM    1  C1  UNK     1      18.559  -0.946  35.110  1.00  0.00    -0.018 A 
HETATM    2  C5  UNK     1      18.786  -2.553  36.899  1.00  0.00     0.032 A 
HETATM    3  C6  UNK     1      19.014  -2.180  35.575  1.00  0.00     0.042 A 
HETATM    4  C8  UNK     1      17.878  -0.084  35.969  1.00  0.00     0.012 A 
HETATM    5  C10 UNK     1      18.105  -1.691  37.759  1.00  0.00     0.029 A 
HETATM    6  C11 UNK     1      17.651  -0.457  37.294  1.00  0.00     0.003 A 
ENDROOT
BRANCH   2   7
HETATM    7  N1  UNK     1      19.244  -3.801  37.369  1.00  0.00    -0.365 N 
HETATM    8  C15 UNK     1      19.521  -4.919  36.664  1.00  0.00     0.105 C 
HETATM    9  H5  UNK     1      19.374  -3.845  38.371  1.00  0.00     0.165 HD
BRANCH   8  10
HETATM   10  C13 UNK     1      19.954  -6.095  37.126  1.00  0.00     0.051 A 
HETATM   11  C18 UNK     1      19.050  -7.260  36.821  1.00  0.00     0.218 A 
HETATM   12  O4  UNK     1      18.000  -7.157  36.193  1.00  0.00    -0.284 OA
HETATM   13  C20 UNK     1      19.491  -8.587  37.322  1.00  0.00     0.120 A 
HETATM   14  C22 UNK     1      20.637  -8.701  38.002  1.00  0.00     0.061 A 
HETATM   15  C21 UNK     1      21.507  -7.578  38.292  1.00  0.00     0.032 A 
HETATM   16 Br2  UNK     1      23.056  -8.028  39.264  1.00  0.00    -0.050 Br
HETATM   17  C19 UNK     1      21.194  -6.328  37.880  1.00  0.00     0.044 A 
HETATM   18 Br1  UNK     1      22.313  -4.848  38.245  1.00  0.00    -0.049 Br
BRANCH  13  19
HETATM   19  O3  UNK     1      18.699  -9.687  37.069  1.00  0.00    -0.352 OA
HETATM   20  C23 UNK     1      19.439 -10.885  37.213  1.00  0.00     0.210 C 
ENDBRANCH  13  19
ENDBRANCH   8  10
ENDBRANCH   2   7
BRANCH   1  21
HETATM   21  C2  UNK     1      18.799  -0.551  33.710  1.00  0.00     0.051 A 
HETATM   22  C4  UNK     1      19.356  -1.438  32.870  1.00  0.00     0.032 A 
HETATM   23  C3  UNK     1      19.628  -1.090  31.485  1.00  0.00    -0.001 A 
HETATM   24  C12 UNK     1      20.200  -1.995  30.588  1.00  0.00     0.014 A 
HETATM   25  C7  UNK     1      19.308   0.186  31.039  1.00  0.00     0.089 A 
HETATM   26  C16 UNK     1      20.442  -1.610  29.266  1.00  0.00     0.001 A 
HETATM   27  C17 UNK     1      20.115  -0.323  28.836  1.00  0.00     0.003 A 
HETATM   28  C14 UNK     1      19.545   0.585  29.724  1.00  0.00     0.038 A 
HETATM   29  O1  UNK     1      18.729   1.124  31.914  1.00  0.00    -0.274 OA
HETATM   30  C9  UNK     1      18.445   0.817  33.242  1.00  0.00     0.299 A 
HETATM   31  O2  UNK     1      17.920   1.643  33.982  1.00  0.00    -0.259 OA
ENDBRANCH   1  21
TORSDOF 4
ENDMDL
