MODEL 1
REMARK VINA RESULT:      -7.8      0.000      0.000
REMARK  2 active torsions:
REMARK  status: ('A' for Active; 'I' for Inactive)
REMARK    1  A    between atoms: C6_12  and  S1_1 
REMARK    2  A    between atoms: N1_6  and  S1_1 
ROOT
HETATM    1  O3  UNK     1      15.826   9.373   9.417  1.00  0.00    -0.275 OA
HETATM    2  O4  UNK     1      17.985  10.006   9.847  1.00  0.00    -0.260 OA
HETATM    3  C6  UNK     1      12.942   6.386   9.175  1.00  0.00     0.075 A 
HETATM    4  C7  UNK     1      14.234   6.036   9.547  1.00  0.00     0.039 A 
HETATM    5  C8  UNK     1      12.599   7.699   8.886  1.00  0.00     0.027 A 
HETATM    6  C9  UNK     1      15.213   7.028   9.633  1.00  0.00    -0.001 A 
HETATM    7  C10 UNK     1      14.866   8.345   9.342  1.00  0.00     0.089 A 
HETATM    8  C11 UNK     1      13.570   8.695   8.969  1.00  0.00     0.040 A 
HETATM    9  C12 UNK     1      16.584   6.734  10.016  1.00  0.00     0.020 A 
HETATM   10  C13 UNK     1      17.488   7.715  10.084  1.00  0.00     0.083 A 
HETATM   11  C14 UNK     1      17.144   9.116   9.781  1.00  0.00     0.288 A 
ENDROOT
BRANCH   3  12
HETATM   12  S1  UNK     1      11.708   5.129   9.067  1.00  0.00     0.243 S 
HETATM   13  O1  UNK     1      12.263   4.025   8.315  1.00  0.00    -0.206 OA
HETATM   14  O2  UNK     1      11.158   4.930  10.390  1.00  0.00    -0.206 OA
BRANCH  12  15
HETATM   15  N1  UNK     1      10.546   5.935   8.099  1.00  0.00    -0.206 NA
HETATM   16  C1  UNK     1       9.129   5.784   8.546  1.00  0.00     0.107 C 
HETATM   17  C3  UNK     1       8.254   6.809   7.830  1.00  0.00     0.015 C 
HETATM   18  C5  UNK     1       8.381   6.683   6.314  1.00  0.00     0.002 C 
HETATM   19  C4  UNK     1       9.843   6.764   5.885  1.00  0.00     0.015 C 
HETATM   20  C2  UNK     1      10.695   5.739   6.628  1.00  0.00     0.107 C 
ENDBRANCH  12  15
ENDBRANCH   3  12
TORSDOF 2
ENDMDL
MODEL 2
REMARK VINA RESULT:      -7.5     24.051     25.651
REMARK  2 active torsions:
REMARK  status: ('A' for Active; 'I' for Inactive)
REMARK    1  A    between atoms: C6_12  and  S1_1 
REMARK    2  A    between atoms: N1_6  and  S1_1 
ROOT
HETATM    1  O3  UNK     1      18.997   4.237  29.992  1.00  0.00    -0.275 OA
HETATM    2  O4  UNK     1      18.855   6.515  29.803  1.00  0.00    -0.260 OA
HETATM    3  C6  UNK     1      18.574   0.792  32.284  1.00  0.00     0.075 A 
HETATM    4  C7  UNK     1      18.279   2.019  32.865  1.00  0.00     0.039 A 
HETATM    5  C8  UNK     1      19.001   0.694  30.968  1.00  0.00     0.027 A 
HETATM    6  C9  UNK     1      18.416   3.184  32.108  1.00  0.00    -0.001 A 
HETATM    7  C10 UNK     1      18.846   3.083  30.787  1.00  0.00     0.089 A 
HETATM    8  C11 UNK     1      19.141   1.852  30.205  1.00  0.00     0.040 A 
HETATM    9  C12 UNK     1      18.125   4.501  32.650  1.00  0.00     0.020 A 
HETATM   10  C13 UNK     1      18.271   5.589  31.889  1.00  0.00     0.083 A 
HETATM   11  C14 UNK     1      18.724   5.506  30.489  1.00  0.00     0.288 A 
ENDROOT
BRANCH   3  12
HETATM   12  S1  UNK     1      18.400  -0.679  33.245  1.00  0.00     0.243 S 
HETATM   13  O1  UNK     1      17.412  -1.515  32.601  1.00  0.00    -0.206 OA
HETATM   14  O2  UNK     1      19.726  -1.179  33.537  1.00  0.00    -0.206 OA
BRANCH  12  15
HETATM   15  N1  UNK     1      17.727  -0.020  34.677  1.00  0.00    -0.206 NA
HETATM   16  C1  UNK     1      18.624  -0.042  35.870  1.00  0.00     0.107 C 
HETATM   17  C3  UNK     1      18.054   0.867  36.956  1.00  0.00     0.015 C 
HETATM   18  C5  UNK     1      16.627   0.467  37.320  1.00  0.00     0.002 C 
HETATM   19  C4  UNK     1      15.744   0.420  36.076  1.00  0.00     0.015 C 
HETATM   20  C2  UNK     1      16.347  -0.482  35.003  1.00  0.00     0.107 C 
ENDBRANCH  12  15
ENDBRANCH   3  12
TORSDOF 2
ENDMDL
MODEL 3
REMARK VINA RESULT:      -7.5     23.777     25.429
REMARK  2 active torsions:
REMARK  status: ('A' for Active; 'I' for Inactive)
REMARK    1  A    between atoms: C6_12  and  S1_1 
REMARK    2  A    between atoms: N1_6  and  S1_1 
ROOT
HETATM    1  O3  UNK     1      18.284   0.604  33.076  1.00  0.00    -0.275 OA
HETATM    2  O4  UNK     1      18.252  -1.121  34.583  1.00  0.00    -0.260 OA
HETATM    3  C6  UNK     1      18.346   4.689  32.299  1.00  0.00     0.075 A 
HETATM    4  C7  UNK     1      18.334   4.263  33.621  1.00  0.00     0.039 A 
HETATM    5  C8  UNK     1      18.339   3.789  31.244  1.00  0.00     0.027 A 
HETATM    6  C9  UNK     1      18.314   2.894  33.898  1.00  0.00    -0.001 A 
HETATM    7  C10 UNK     1      18.306   1.992  32.837  1.00  0.00     0.089 A 
HETATM    8  C11 UNK     1      18.318   2.421  31.512  1.00  0.00     0.040 A 
HETATM    9  C12 UNK     1      18.301   2.377  35.256  1.00  0.00     0.020 A 
HETATM   10  C13 UNK     1      18.281   1.060  35.474  1.00  0.00     0.083 A 
HETATM   11  C14 UNK     1      18.272   0.086  34.367  1.00  0.00     0.288 A 
ENDROOT
BRANCH   3  12
HETATM   12  S1  UNK     1      18.371   6.420  31.954  1.00  0.00     0.243 S 
HETATM   13  O1  UNK     1      19.487   6.999  32.669  1.00  0.00    -0.206 OA
HETATM   14  O2  UNK     1      18.231   6.591  30.524  1.00  0.00    -0.206 OA
BRANCH  12  15
HETATM   15  N1  UNK     1      16.911   6.897  32.716  1.00  0.00    -0.206 NA
HETATM   16  C1  UNK     1      15.825   7.336  31.790  1.00  0.00     0.107 C 
HETATM   17  C3  UNK     1      14.501   7.394  32.547  1.00  0.00     0.015 C 
HETATM   18  C5  UNK     1      14.600   8.304  33.769  1.00  0.00     0.002 C 
HETATM   19  C4  UNK     1      15.764   7.885  34.662  1.00  0.00     0.015 C 
HETATM   20  C2  UNK     1      17.070   7.821  33.876  1.00  0.00     0.107 C 
ENDBRANCH  12  15
ENDBRANCH   3  12
TORSDOF 2
ENDMDL
MODEL 4
REMARK VINA RESULT:      -7.5     23.036     24.576
REMARK  2 active torsions:
REMARK  status: ('A' for Active; 'I' for Inactive)
REMARK    1  A    between atoms: C6_12  and  S1_1 
REMARK    2  A    between atoms: N1_6  and  S1_1 
ROOT
HETATM    1  O3  UNK     1      18.684   0.656  32.749  1.00  0.00    -0.275 OA
HETATM    2  O4  UNK     1      19.115  -1.456  31.976  1.00  0.00    -0.260 OA
HETATM    3  C6  UNK     1      18.340   4.739  32.033  1.00  0.00     0.075 A 
HETATM    4  C7  UNK     1      18.676   3.904  30.975  1.00  0.00     0.039 A 
HETATM    5  C8  UNK     1      18.118   4.244  33.310  1.00  0.00     0.027 A 
HETATM    6  C9  UNK     1      18.794   2.530  31.200  1.00  0.00    -0.001 A 
HETATM    7  C10 UNK     1      18.572   2.036  32.483  1.00  0.00     0.089 A 
HETATM    8  C11 UNK     1      18.235   2.875  33.542  1.00  0.00     0.040 A 
HETATM    9  C12 UNK     1      19.143   1.598  30.141  1.00  0.00     0.020 A 
HETATM   10  C13 UNK     1      19.246   0.292  30.402  1.00  0.00     0.083 A 
HETATM   11  C14 UNK     1      19.015  -0.254  31.751  1.00  0.00     0.288 A 
ENDROOT
BRANCH   3  12
HETATM   12  S1  UNK     1      18.191   6.474  31.745  1.00  0.00     0.243 S 
HETATM   13  O1  UNK     1      19.250   7.138  32.474  1.00  0.00    -0.206 OA
HETATM   14  O2  UNK     1      18.024   6.677  30.322  1.00  0.00    -0.206 OA
BRANCH  12  15
HETATM   15  N1  UNK     1      16.697   6.779  32.527  1.00  0.00    -0.206 NA
HETATM   16  C1  UNK     1      15.619   7.327  31.651  1.00  0.00     0.107 C 
HETATM   17  C3  UNK     1      14.276   7.224  32.367  1.00  0.00     0.015 C 
HETATM   18  C5  UNK     1      14.313   7.930  33.720  1.00  0.00     0.002 C 
HETATM   19  C4  UNK     1      15.468   7.410  34.570  1.00  0.00     0.015 C 
HETATM   20  C2  UNK     1      16.795   7.512  33.823  1.00  0.00     0.107 C 
ENDBRANCH  12  15
ENDBRANCH   3  12
TORSDOF 2
ENDMDL
MODEL 5
REMARK VINA RESULT:      -7.3      1.340      1.585
REMARK  2 active torsions:
REMARK  status: ('A' for Active; 'I' for Inactive)
REMARK    1  A    between atoms: C6_12  and  S1_1 
REMARK    2  A    between atoms: N1_6  and  S1_1 
ROOT
HETATM    1  O3  UNK     1      15.111  11.139  10.071  1.00  0.00    -0.275 OA
HETATM    2  O4  UNK     1      16.981  12.446  10.270  1.00  0.00    -0.260 OA
HETATM    3  C6  UNK     1      13.393   7.392   9.514  1.00  0.00     0.075 A 
HETATM    4  C7  UNK     1      14.779   7.493   9.534  1.00  0.00     0.039 A 
HETATM    5  C8  UNK     1      12.580   8.504   9.675  1.00  0.00     0.027 A 
HETATM    6  C9  UNK     1      15.370   8.745   9.721  1.00  0.00    -0.001 A 
HETATM    7  C10 UNK     1      14.551   9.860   9.882  1.00  0.00     0.089 A 
HETATM    8  C11 UNK     1      13.162   9.757   9.861  1.00  0.00     0.040 A 
HETATM    9  C12 UNK     1      16.812   8.925   9.753  1.00  0.00     0.020 A 
HETATM   10  C13 UNK     1      17.333  10.141   9.934  1.00  0.00     0.083 A 
HETATM   11  C14 UNK     1      16.487  11.335  10.106  1.00  0.00     0.288 A 
ENDROOT
BRANCH   3  12
HETATM   12  S1  UNK     1      12.650   5.808   9.277  1.00  0.00     0.243 S 
HETATM   13  O1  UNK     1      13.609   4.965   8.598  1.00  0.00    -0.206 OA
HETATM   14  O2  UNK     1      12.056   5.403  10.532  1.00  0.00    -0.206 OA
BRANCH  12  15
HETATM   15  N1  UNK     1      11.400   6.227   8.181  1.00  0.00    -0.206 NA
HETATM   16  C1  UNK     1      10.020   5.871   8.624  1.00  0.00     0.107 C 
HETATM   17  C3  UNK     1       8.999   6.593   7.749  1.00  0.00     0.015 C 
HETATM   18  C5  UNK     1       9.213   6.278   6.272  1.00  0.00     0.002 C 
HETATM   19  C4  UNK     1      10.651   6.576   5.857  1.00  0.00     0.015 C 
HETATM   20  C2  UNK     1      11.648   5.853   6.759  1.00  0.00     0.107 C 
ENDBRANCH  12  15
ENDBRANCH   3  12
TORSDOF 2
ENDMDL
MODEL 6
REMARK VINA RESULT:      -7.2     24.614     26.404
REMARK  2 active torsions:
REMARK  status: ('A' for Active; 'I' for Inactive)
REMARK    1  A    between atoms: C6_12  and  S1_1 
REMARK    2  A    between atoms: N1_6  and  S1_1 
ROOT
HETATM    1  O3  UNK     1      18.445  -0.912  35.832  1.00  0.00    -0.275 OA
HETATM    2  O4  UNK     1      18.193  -1.291  38.077  1.00  0.00    -0.260 OA
HETATM    3  C6  UNK     1      18.341   1.706  32.602  1.00  0.00     0.075 A 
HETATM    4  C7  UNK     1      18.041   2.197  33.866  1.00  0.00     0.039 A 
HETATM    5  C8  UNK     1      18.671   0.375  32.397  1.00  0.00     0.027 A 
HETATM    6  C9  UNK     1      18.073   1.330  34.961  1.00  0.00    -0.001 A 
HETATM    7  C10 UNK     1      18.404  -0.006  34.753  1.00  0.00     0.089 A 
HETATM    8  C11 UNK     1      18.704  -0.497  33.484  1.00  0.00     0.040 A 
HETATM    9  C12 UNK     1      17.771   1.774  36.312  1.00  0.00     0.020 A 
HETATM   10  C13 UNK     1      17.813   0.910  37.329  1.00  0.00     0.083 A 
HETATM   11  C14 UNK     1      18.160  -0.509  37.133  1.00  0.00     0.288 A 
ENDROOT
BRANCH   3  12
HETATM   12  S1  UNK     1      18.300   2.805  31.221  1.00  0.00     0.243 S 
HETATM   13  O1  UNK     1      19.376   2.437  30.328  1.00  0.00    -0.206 OA
HETATM   14  O2  UNK     1      16.933   2.881  30.752  1.00  0.00    -0.206 OA
BRANCH  12  15
HETATM   15  N1  UNK     1      18.701   4.278  32.001  1.00  0.00    -0.206 NA
HETATM   16  C1  UNK     1      17.537   5.090  32.465  1.00  0.00     0.107 C 
HETATM   17  C3  UNK     1      18.019   6.171  33.429  1.00  0.00     0.015 C 
HETATM   18  C5  UNK     1      19.093   7.046  32.788  1.00  0.00     0.002 C 
HETATM   19  C4  UNK     1      20.237   6.191  32.251  1.00  0.00     0.015 C 
HETATM   20  C2  UNK     1      19.724   5.110  31.304  1.00  0.00     0.107 C 
ENDBRANCH  12  15
ENDBRANCH   3  12
TORSDOF 2
ENDMDL
MODEL 7
REMARK VINA RESULT:      -7.2     29.124     30.887
REMARK  2 active torsions:
REMARK  status: ('A' for Active; 'I' for Inactive)
REMARK    1  A    between atoms: C6_12  and  S1_1 
REMARK    2  A    between atoms: N1_6  and  S1_1 
ROOT
HETATM    1  O3  UNK     1      19.796  -7.475  38.339  1.00  0.00    -0.275 OA
HETATM    2  O4  UNK     1      19.057  -9.639  38.481  1.00  0.00    -0.260 OA
HETATM    3  C6  UNK     1      20.202  -3.957  36.158  1.00  0.00     0.075 A 
HETATM    4  C7  UNK     1      19.561  -5.038  35.565  1.00  0.00     0.039 A 
HETATM    5  C8  UNK     1      20.702  -4.027  37.450  1.00  0.00     0.027 A 
HETATM    6  C9  UNK     1      19.416  -6.226  36.285  1.00  0.00    -0.001 A 
HETATM    7  C10 UNK     1      19.921  -6.293  37.582  1.00  0.00     0.089 A 
HETATM    8  C11 UNK     1      20.563  -5.209  38.175  1.00  0.00     0.040 A 
HETATM    9  C12 UNK     1      18.758  -7.396  35.729  1.00  0.00     0.020 A 
HETATM   10  C13 UNK     1      18.643  -8.511  36.454  1.00  0.00     0.083 A 
HETATM   11  C14 UNK     1      19.169  -8.606  37.827  1.00  0.00     0.288 A 
ENDROOT
BRANCH   3  12
HETATM   12  S1  UNK     1      20.382  -2.458  35.244  1.00  0.00     0.243 S 
HETATM   13  O1  UNK     1      21.423  -1.676  35.875  1.00  0.00    -0.206 OA
HETATM   14  O2  UNK     1      20.452  -2.798  33.839  1.00  0.00    -0.206 OA
BRANCH  12  15
HETATM   15  N1  UNK     1      18.864  -1.729  35.564  1.00  0.00    -0.206 NA
HETATM   16  C1  UNK     1      18.290  -0.933  34.439  1.00  0.00     0.107 C 
HETATM   17  C3  UNK     1      16.819  -0.640  34.718  1.00  0.00     0.015 C 
HETATM   18  C5  UNK     1      16.639   0.070  36.057  1.00  0.00     0.002 C 
HETATM   19  C4  UNK     1      17.299  -0.722  37.182  1.00  0.00     0.015 C 
HETATM   20  C2  UNK     1      18.764  -1.013  36.868  1.00  0.00     0.107 C 
ENDBRANCH  12  15
ENDBRANCH   3  12
TORSDOF 2
ENDMDL
MODEL 8
REMARK VINA RESULT:      -7.1      2.353      3.387
REMARK  2 active torsions:
REMARK  status: ('A' for Active; 'I' for Inactive)
REMARK    1  A    between atoms: C6_12  and  S1_1 
REMARK    2  A    between atoms: N1_6  and  S1_1 
ROOT
HETATM    1  O3  UNK     1      18.161  10.676   8.749  1.00  0.00    -0.275 OA
HETATM    2  O4  UNK     1      19.006  12.479   7.615  1.00  0.00    -0.260 OA
HETATM    3  C6  UNK     1      14.917   8.288   9.785  1.00  0.00     0.075 A 
HETATM    4  C7  UNK     1      14.704   9.372   8.943  1.00  0.00     0.039 A 
HETATM    5  C8  UNK     1      16.178   7.988  10.280  1.00  0.00     0.027 A 
HETATM    6  C9  UNK     1      15.783  10.183   8.586  1.00  0.00    -0.001 A 
HETATM    7  C10 UNK     1      17.048   9.881   9.085  1.00  0.00     0.089 A 
HETATM    8  C11 UNK     1      17.261   8.793   9.929  1.00  0.00     0.040 A 
HETATM    9  C12 UNK     1      15.634  11.333   7.710  1.00  0.00     0.020 A 
HETATM   10  C13 UNK     1      16.694  12.082   7.396  1.00  0.00     0.083 A 
HETATM   11  C14 UNK     1      18.041  11.781   7.912  1.00  0.00     0.288 A 
ENDROOT
BRANCH   3  12
HETATM   12  S1  UNK     1      13.550   7.265  10.234  1.00  0.00     0.243 S 
HETATM   13  O1  UNK     1      14.062   5.945  10.531  1.00  0.00    -0.206 OA
HETATM   14  O2  UNK     1      12.750   7.990  11.196  1.00  0.00    -0.206 OA
BRANCH  12  15
HETATM   15  N1  UNK     1      12.712   7.216   8.740  1.00  0.00    -0.206 NA
HETATM   16  C1  UNK     1      11.236   7.426   8.831  1.00  0.00     0.107 C 
HETATM   17  C3  UNK     1      10.672   7.704   7.440  1.00  0.00     0.015 C 
HETATM   18  C5  UNK     1      11.021   6.583   6.466  1.00  0.00     0.002 C 
HETATM   19  C4  UNK     1      12.526   6.332   6.445  1.00  0.00     0.015 C 
HETATM   20  C2  UNK     1      13.064   6.072   7.849  1.00  0.00     0.107 C 
ENDBRANCH  12  15
ENDBRANCH   3  12
TORSDOF 2
ENDMDL
MODEL 9
REMARK VINA RESULT:      -7.1     34.945     36.314
REMARK  2 active torsions:
REMARK  status: ('A' for Active; 'I' for Inactive)
REMARK    1  A    between atoms: C6_12  and  S1_1 
REMARK    2  A    between atoms: N1_6  and  S1_1 
ROOT
HETATM    1  O3  UNK     1      33.263  -4.984  36.883  1.00  0.00    -0.275 OA
HETATM    2  O4  UNK     1      35.459  -5.556  36.570  1.00  0.00    -0.260 OA
HETATM    3  C6  UNK     1      29.450  -5.981  38.212  1.00  0.00     0.075 A 
HETATM    4  C7  UNK     1      30.465  -6.921  38.335  1.00  0.00     0.039 A 
HETATM    5  C8  UNK     1      29.681  -4.729  37.661  1.00  0.00     0.027 A 
HETATM    6  C9  UNK     1      31.751  -6.601  37.894  1.00  0.00    -0.001 A 
HETATM    7  C10 UNK     1      31.980  -5.343  37.341  1.00  0.00     0.089 A 
HETATM    8  C11 UNK     1      30.961  -4.401  37.218  1.00  0.00     0.040 A 
HETATM    9  C12 UNK     1      32.860  -7.535  37.992  1.00  0.00     0.020 A 
HETATM   10  C13 UNK     1      34.073  -7.186  37.556  1.00  0.00     0.083 A 
HETATM   11  C14 UNK     1      34.339  -5.861  36.967  1.00  0.00     0.288 A 
ENDROOT
BRANCH   3  12
HETATM   12  S1  UNK     1      27.826  -6.390  38.771  1.00  0.00     0.243 S 
HETATM   13  O1  UNK     1      27.892  -6.617  40.198  1.00  0.00    -0.206 OA
HETATM   14  O2  UNK     1      26.906  -5.425  38.210  1.00  0.00    -0.206 OA
BRANCH  12  15
HETATM   15  N1  UNK     1      27.607  -7.892  37.975  1.00  0.00    -0.206 NA
HETATM   16  C1  UNK     1      27.526  -7.818  36.486  1.00  0.00     0.107 C 
HETATM   17  C3  UNK     1      27.683  -9.217  35.895  1.00  0.00     0.015 C 
HETATM   18  C5  UNK     1      26.646 -10.180  36.467  1.00  0.00     0.002 C 
HETATM   19  C4  UNK     1      26.693 -10.183  37.993  1.00  0.00     0.015 C 
HETATM   20  C2  UNK     1      26.550  -8.771  38.553  1.00  0.00     0.107 C 
ENDBRANCH  12  15
ENDBRANCH   3  12
TORSDOF 2
ENDMDL
MODEL 10
REMARK VINA RESULT:      -7.1      2.633      6.674
REMARK  2 active torsions:
REMARK  status: ('A' for Active; 'I' for Inactive)
REMARK    1  A    between atoms: C6_12  and  S1_1 
REMARK    2  A    between atoms: N1_6  and  S1_1 
ROOT
HETATM    1  O3  UNK     1       9.840   6.747   6.729  1.00  0.00    -0.275 OA
HETATM    2  O4  UNK     1       7.556   6.587   6.663  1.00  0.00    -0.260 OA
HETATM    3  C6  UNK     1      13.417   6.211   8.782  1.00  0.00     0.075 A 
HETATM    4  C7  UNK     1      12.229   5.859   9.411  1.00  0.00     0.039 A 
HETATM    5  C8  UNK     1      13.433   6.731   7.496  1.00  0.00     0.027 A 
HETATM    6  C9  UNK     1      11.020   6.033   8.733  1.00  0.00    -0.001 A 
HETATM    7  C10 UNK     1      11.039   6.556   7.443  1.00  0.00     0.089 A 
HETATM    8  C11 UNK     1      12.231   6.908   6.814  1.00  0.00     0.040 A 
HETATM    9  C12 UNK     1       9.740   5.686   9.329  1.00  0.00     0.020 A 
HETATM   10  C13 UNK     1       8.608   5.870   8.645  1.00  0.00     0.083 A 
HETATM   11  C14 UNK     1       8.604   6.423   7.278  1.00  0.00     0.288 A 
ENDROOT
BRANCH   3  12
HETATM   12  S1  UNK     1      14.943   5.990   9.641  1.00  0.00     0.243 S 
HETATM   13  O1  UNK     1      14.643   5.440  10.945  1.00  0.00    -0.206 OA
HETATM   14  O2  UNK     1      15.866   5.328   8.746  1.00  0.00    -0.206 OA
BRANCH  12  15
HETATM   15  N1  UNK     1      15.422   7.626   9.822  1.00  0.00    -0.206 NA
HETATM   16  C1  UNK     1      16.893   7.847   9.953  1.00  0.00     0.107 C 
HETATM   17  C3  UNK     1      17.207   9.328   9.757  1.00  0.00     0.015 C 
HETATM   18  C5  UNK     1      16.419  10.196  10.734  1.00  0.00     0.002 C 
HETATM   19  C4  UNK     1      14.925   9.899  10.640  1.00  0.00     0.015 C 
HETATM   20  C2  UNK     1      14.644   8.410  10.824  1.00  0.00     0.107 C 
ENDBRANCH  12  15
ENDBRANCH   3  12
TORSDOF 2
ENDMDL
