MODEL 1
REMARK VINA RESULT:      -8.7      0.000      0.000
REMARK  2 active torsions:
REMARK  status: ('A' for Active; 'I' for Inactive)
REMARK    1  A    between atoms: C7_13  and  N2_5 
REMARK    2  A    between atoms: C1_7  and  C5_11 
ROOT
HETATM    1  O1  UNK     1      13.692  10.576  11.646  1.00  0.00    -0.274 OA
HETATM    2  O2  UNK     1      12.476   8.652  11.711  1.00  0.00    -0.259 OA
HETATM    3  N1  UNK     1      16.905   8.399  10.036  1.00  0.00    -0.340 N 
HETATM    4  N3  UNK     1      15.761   3.734   9.818  1.00  0.00    -0.191 NA
HETATM    5  C1  UNK     1      14.486   7.014  10.476  1.00  0.00     0.107 C 
HETATM    6  C2  UNK     1      14.665   8.501  10.794  1.00  0.00     0.059 A 
HETATM    7  C3  UNK     1      15.838   9.116  10.539  1.00  0.00     0.060 A 
HETATM    8  C4  UNK     1      15.793   6.316  10.061  1.00  0.00     0.079 C 
HETATM    9  C6  UNK     1      15.985  10.554  10.812  1.00  0.00     0.025 A 
HETATM   10  C7  UNK     1      16.933   7.023   9.838  1.00  0.00     0.117 C 
HETATM   11  C8  UNK     1      13.522   9.219  11.413  1.00  0.00     0.298 A 
HETATM   12  C9  UNK     1      14.897  11.239  11.354  1.00  0.00     0.092 A 
HETATM   13  C12 UNK     1      17.147  11.297  10.557  1.00  0.00     0.016 A 
HETATM   14  C13 UNK     1      14.936  12.606  11.639  1.00  0.00     0.038 A 
HETATM   15  C14 UNK     1      15.776   4.889   9.927  1.00  0.00     0.100 C 
HETATM   16  C15 UNK     1      17.203  12.668  10.839  1.00  0.00     0.001 A 
HETATM   17  C18 UNK     1      16.099  13.321  11.379  1.00  0.00     0.003 A 
HETATM   18  H2  UNK     1      17.777   8.878   9.855  1.00  0.00     0.167 HD
ENDROOT
BRANCH   5  19
HETATM   19  C5  UNK     1      13.453   6.835   9.400  1.00  0.00    -0.044 A 
HETATM   20  C10 UNK     1      12.375   5.985   9.617  1.00  0.00     0.009 A 
HETATM   21  C16 UNK     1      11.416   5.819   8.618  1.00  0.00     0.019 A 
HETATM   22  C19 UNK     1      11.542   6.507   7.411  1.00  0.00     0.011 A 
HETATM   23 Br1  UNK     1      10.240   6.284   6.057  1.00  0.00    -0.051 Br
HETATM   24  C17 UNK     1      12.626   7.358   7.201  1.00  0.00     0.019 A 
HETATM   25  C11 UNK     1      13.586   7.522   8.201  1.00  0.00     0.009 A 
ENDBRANCH   5  19
BRANCH  10  26
HETATM   26  N2  UNK     1      18.108   6.429   9.440  1.00  0.00    -0.384 N 
HETATM   27  H7  UNK     1      18.208   6.035   8.514  1.00  0.00     0.157 HD
HETATM   28  H8  UNK     1      18.880   6.394  10.094  1.00  0.00     0.157 HD
ENDBRANCH  10  26
TORSDOF 2
ENDMDL
MODEL 2
REMARK VINA RESULT:      -8.0     32.798     34.523
REMARK  2 active torsions:
REMARK  status: ('A' for Active; 'I' for Inactive)
REMARK    1  A    between atoms: C7_13  and  N2_5 
REMARK    2  A    between atoms: C1_7  and  C5_11 
ROOT
HETATM    1  O1  UNK     1      30.679  -9.316  37.175  1.00  0.00    -0.274 OA
HETATM    2  O2  UNK     1      32.469  -9.312  35.769  1.00  0.00    -0.259 OA
HETATM    3  N1  UNK     1      30.715  -5.115  37.107  1.00  0.00    -0.340 N 
HETATM    4  N3  UNK     1      34.443  -3.563  34.498  1.00  0.00    -0.191 NA
HETATM    5  C1  UNK     1      32.570  -6.458  35.459  1.00  0.00     0.107 C 
HETATM    6  C2  UNK     1      31.569  -7.191  36.358  1.00  0.00     0.059 A 
HETATM    7  C3  UNK     1      30.689  -6.495  37.105  1.00  0.00     0.060 A 
HETATM    8  C4  UNK     1      32.582  -4.935  35.673  1.00  0.00     0.079 C 
HETATM    9  C6  UNK     1      29.706  -7.211  37.934  1.00  0.00     0.025 A 
HETATM   10  C7  UNK     1      31.656  -4.323  36.460  1.00  0.00     0.117 C 
HETATM   11  C8  UNK     1      31.628  -8.675  36.393  1.00  0.00     0.298 A 
HETATM   12  C9  UNK     1      29.732  -8.606  37.935  1.00  0.00     0.092 A 
HETATM   13  C12 UNK     1      28.729  -6.588  38.725  1.00  0.00     0.016 A 
HETATM   14  C13 UNK     1      28.836  -9.374  38.682  1.00  0.00     0.038 A 
HETATM   15  C14 UNK     1      33.611  -4.176  35.024  1.00  0.00     0.100 C 
HETATM   16  C15 UNK     1      27.823  -7.344  39.480  1.00  0.00     0.001 A 
HETATM   17  C18 UNK     1      27.876  -8.734  39.458  1.00  0.00     0.003 A 
HETATM   18  H2  UNK     1      30.048  -4.612  37.678  1.00  0.00     0.167 HD
ENDROOT
BRANCH   5  19
HETATM   19  C5  UNK     1      32.290  -6.764  34.015  1.00  0.00    -0.044 A 
HETATM   20  C10 UNK     1      31.026  -6.515  33.494  1.00  0.00     0.009 A 
HETATM   21  C16 UNK     1      30.766  -6.798  32.153  1.00  0.00     0.019 A 
HETATM   22  C19 UNK     1      31.772  -7.326  31.344  1.00  0.00     0.011 A 
HETATM   23 Br1  UNK     1      31.419  -7.708  29.526  1.00  0.00    -0.051 Br
HETATM   24  C17 UNK     1      33.038  -7.573  31.876  1.00  0.00     0.019 A 
HETATM   25  C11 UNK     1      33.297  -7.290  33.217  1.00  0.00     0.009 A 
ENDBRANCH   5  19
BRANCH  10  26
HETATM   26  N2  UNK     1      31.626  -2.961  36.647  1.00  0.00    -0.384 N 
HETATM   27  H7  UNK     1      31.603  -2.325  35.862  1.00  0.00     0.157 HD
HETATM   28  H8  UNK     1      31.624  -2.601  37.594  1.00  0.00     0.157 HD
ENDBRANCH  10  26
TORSDOF 2
ENDMDL
MODEL 3
REMARK VINA RESULT:      -7.6     32.192     33.798
REMARK  2 active torsions:
REMARK  status: ('A' for Active; 'I' for Inactive)
REMARK    1  A    between atoms: C7_13  and  N2_5 
REMARK    2  A    between atoms: C1_7  and  C5_11 
ROOT
HETATM    1  O1  UNK     1      30.296  -7.915  36.776  1.00  0.00    -0.274 OA
HETATM    2  O2  UNK     1      31.337  -9.287  35.288  1.00  0.00    -0.259 OA
HETATM    3  N1  UNK     1      32.840  -4.799  35.563  1.00  0.00    -0.340 N 
HETATM    4  N3  UNK     1      36.015  -6.450  32.352  1.00  0.00    -0.191 NA
HETATM    5  C1  UNK     1      33.063  -7.263  34.206  1.00  0.00     0.107 C 
HETATM    6  C2  UNK     1      32.066  -7.025  35.344  1.00  0.00     0.059 A 
HETATM    7  C3  UNK     1      31.988  -5.818  35.939  1.00  0.00     0.060 A 
HETATM    8  C4  UNK     1      34.041  -6.094  33.995  1.00  0.00     0.079 C 
HETATM    9  C6  UNK     1      30.999  -5.589  37.004  1.00  0.00     0.025 A 
HETATM   10  C7  UNK     1      33.886  -4.914  34.654  1.00  0.00     0.117 C 
HETATM   11  C8  UNK     1      31.225  -8.169  35.778  1.00  0.00     0.298 A 
HETATM   12  C9  UNK     1      30.178  -6.652  37.383  1.00  0.00     0.092 A 
HETATM   13  C12 UNK     1      30.812  -4.367  37.668  1.00  0.00     0.016 A 
HETATM   14  C13 UNK     1      29.204  -6.531  38.378  1.00  0.00     0.038 A 
HETATM   15  C14 UNK     1      35.133  -6.291  33.087  1.00  0.00     0.100 C 
HETATM   16  C15 UNK     1      29.841  -4.230  38.668  1.00  0.00     0.001 A 
HETATM   17  C18 UNK     1      29.038  -5.311  39.022  1.00  0.00     0.003 A 
HETATM   18  H2  UNK     1      32.768  -3.902  36.024  1.00  0.00     0.167 HD
ENDROOT
BRANCH   5  19
HETATM   19  C5  UNK     1      32.329  -7.546  32.926  1.00  0.00    -0.044 A 
HETATM   20  C10 UNK     1      31.392  -6.634  32.456  1.00  0.00     0.009 A 
HETATM   21  C16 UNK     1      30.711  -6.896  31.268  1.00  0.00     0.019 A 
HETATM   22  C19 UNK     1      30.974  -8.067  30.557  1.00  0.00     0.011 A 
HETATM   23 Br1  UNK     1      30.053  -8.421  28.945  1.00  0.00    -0.051 Br
HETATM   24  C17 UNK     1      31.917  -8.977  31.035  1.00  0.00     0.019 A 
HETATM   25  C11 UNK     1      32.597  -8.715  32.225  1.00  0.00     0.009 A 
ENDBRANCH   5  19
BRANCH  10  26
HETATM   26  N2  UNK     1      34.728  -3.844  34.465  1.00  0.00    -0.384 N 
HETATM   27  H7  UNK     1      35.698  -3.884  34.749  1.00  0.00     0.157 HD
HETATM   28  H8  UNK     1      34.360  -3.007  34.029  1.00  0.00     0.157 HD
ENDBRANCH  10  26
TORSDOF 2
ENDMDL
MODEL 4
REMARK VINA RESULT:      -7.5      3.707      6.709
REMARK  2 active torsions:
REMARK  status: ('A' for Active; 'I' for Inactive)
REMARK    1  A    between atoms: C7_13  and  N2_5 
REMARK    2  A    between atoms: C1_7  and  C5_11 
ROOT
HETATM    1  O1  UNK     1      13.181   6.048   7.668  1.00  0.00    -0.274 OA
HETATM    2  O2  UNK     1      15.024   6.358   8.968  1.00  0.00    -0.259 OA
HETATM    3  N1  UNK     1      11.174   8.941   9.960  1.00  0.00    -0.340 N 
HETATM    4  N3  UNK     1      14.010  10.429  13.546  1.00  0.00    -0.191 NA
HETATM    5  C1  UNK     1      13.892   8.468  10.554  1.00  0.00     0.107 C 
HETATM    6  C2  UNK     1      13.138   7.725   9.447  1.00  0.00     0.059 A 
HETATM    7  C3  UNK     1      11.845   8.011   9.192  1.00  0.00     0.060 A 
HETATM    8  C4  UNK     1      12.984   9.363  11.416  1.00  0.00     0.079 C 
HETATM    9  C6  UNK     1      11.143   7.319   8.100  1.00  0.00     0.025 A 
HETATM   10  C7  UNK     1      11.683   9.582  11.083  1.00  0.00     0.117 C 
HETATM   11  C8  UNK     1      13.870   6.672   8.698  1.00  0.00     0.298 A 
HETATM   12  C9  UNK     1      11.843   6.359   7.368  1.00  0.00     0.092 A 
HETATM   13  C12 UNK     1       9.811   7.560   7.731  1.00  0.00     0.016 A 
HETATM   14  C13 UNK     1      11.266   5.655   6.308  1.00  0.00     0.038 A 
HETATM   15  C14 UNK     1      13.551   9.952  12.594  1.00  0.00     0.100 C 
HETATM   16  C15 UNK     1       9.218   6.862   6.672  1.00  0.00     0.001 A 
HETATM   17  C18 UNK     1       9.945   5.911   5.961  1.00  0.00     0.003 A 
HETATM   18  H2  UNK     1      10.203   9.139   9.756  1.00  0.00     0.167 HD
ENDROOT
BRANCH   5  19
HETATM   19  C5  UNK     1      15.000   9.293   9.962  1.00  0.00    -0.044 A 
HETATM   20  C10 UNK     1      16.295   9.147  10.443  1.00  0.00     0.009 A 
HETATM   21  C16 UNK     1      17.324   9.911   9.894  1.00  0.00     0.019 A 
HETATM   22  C19 UNK     1      17.050  10.814   8.867  1.00  0.00     0.011 A 
HETATM   23 Br1  UNK     1      18.445  11.850   8.121  1.00  0.00    -0.051 Br
HETATM   24  C17 UNK     1      15.746  10.954   8.390  1.00  0.00     0.019 A 
HETATM   25  C11 UNK     1      14.718  10.189   8.941  1.00  0.00     0.009 A 
ENDBRANCH   5  19
BRANCH  10  26
HETATM   26  N2  UNK     1      10.857  10.398  11.820  1.00  0.00    -0.384 N 
HETATM   27  H7  UNK     1       9.851  10.321  11.755  1.00  0.00     0.157 HD
HETATM   28  H8  UNK     1      11.276  11.082  12.439  1.00  0.00     0.157 HD
ENDBRANCH  10  26
TORSDOF 2
ENDMDL
MODEL 5
REMARK VINA RESULT:      -7.5     32.330     34.194
REMARK  2 active torsions:
REMARK  status: ('A' for Active; 'I' for Inactive)
REMARK    1  A    between atoms: C7_13  and  N2_5 
REMARK    2  A    between atoms: C1_7  and  C5_11 
ROOT
HETATM    1  O1  UNK     1      29.135  -6.753  38.447  1.00  0.00    -0.274 OA
HETATM    2  O2  UNK     1      30.370  -5.100  37.486  1.00  0.00    -0.259 OA
HETATM    3  N1  UNK     1      28.225  -8.199  34.609  1.00  0.00    -0.340 N 
HETATM    4  N3  UNK     1      30.128  -5.294  31.284  1.00  0.00    -0.191 NA
HETATM    5  C1  UNK     1      30.001  -6.014  34.788  1.00  0.00     0.107 C 
HETATM    6  C2  UNK     1      29.372  -6.680  36.015  1.00  0.00     0.059 A 
HETATM    7  C3  UNK     1      28.548  -7.738  35.869  1.00  0.00     0.060 A 
HETATM    8  C4  UNK     1      29.440  -6.537  33.454  1.00  0.00     0.079 C 
HETATM    9  C6  UNK     1      27.981  -8.394  37.058  1.00  0.00     0.025 A 
HETATM   10  C7  UNK     1      28.602  -7.607  33.409  1.00  0.00     0.117 C 
HETATM   11  C8  UNK     1      29.677  -6.103  37.349  1.00  0.00     0.298 A 
HETATM   12  C9  UNK     1      28.301  -7.879  38.314  1.00  0.00     0.092 A 
HETATM   13  C12 UNK     1      27.140  -9.516  37.021  1.00  0.00     0.016 A 
HETATM   14  C13 UNK     1      27.819  -8.436  39.500  1.00  0.00     0.038 A 
HETATM   15  C14 UNK     1      29.820  -5.850  32.255  1.00  0.00     0.100 C 
HETATM   16  C15 UNK     1      26.648 -10.087  38.202  1.00  0.00     0.001 A 
HETATM   17  C18 UNK     1      26.987  -9.548  39.439  1.00  0.00     0.003 A 
HETATM   18  H2  UNK     1      27.602  -8.992  34.521  1.00  0.00     0.167 HD
ENDROOT
BRANCH   5  19
HETATM   19  C5  UNK     1      31.493  -6.190  34.812  1.00  0.00    -0.044 A 
HETATM   20  C10 UNK     1      32.033  -7.466  34.926  1.00  0.00     0.009 A 
HETATM   21  C16 UNK     1      33.417  -7.630  34.947  1.00  0.00     0.019 A 
HETATM   22  C19 UNK     1      34.252  -6.516  34.854  1.00  0.00     0.011 A 
HETATM   23 Br1  UNK     1      36.130  -6.738  34.882  1.00  0.00    -0.051 Br
HETATM   24  C17 UNK     1      33.703  -5.239  34.740  1.00  0.00     0.019 A 
HETATM   25  C11 UNK     1      32.317  -5.076  34.720  1.00  0.00     0.009 A 
ENDBRANCH   5  19
BRANCH  10  26
HETATM   26  N2  UNK     1      28.107  -8.111  32.230  1.00  0.00    -0.384 N 
HETATM   27  H7  UNK     1      28.653  -8.743  31.660  1.00  0.00     0.157 HD
HETATM   28  H8  UNK     1      27.175  -7.840  31.938  1.00  0.00     0.157 HD
ENDBRANCH  10  26
TORSDOF 2
ENDMDL
MODEL 6
REMARK VINA RESULT:      -7.4     31.293     33.217
REMARK  2 active torsions:
REMARK  status: ('A' for Active; 'I' for Inactive)
REMARK    1  A    between atoms: C7_13  and  N2_5 
REMARK    2  A    between atoms: C1_7  and  C5_11 
ROOT
HETATM    1  O1  UNK     1      29.589  -6.020  31.386  1.00  0.00    -0.274 OA
HETATM    2  O2  UNK     1      30.562  -4.341  32.577  1.00  0.00    -0.259 OA
HETATM    3  N1  UNK     1      32.444  -8.677  32.949  1.00  0.00    -0.340 N 
HETATM    4  N3  UNK     1      35.582  -6.269  35.681  1.00  0.00    -0.191 NA
HETATM    5  C1  UNK     1      32.500  -6.013  33.878  1.00  0.00     0.107 C 
HETATM    6  C2  UNK     1      31.485  -6.516  32.847  1.00  0.00     0.059 A 
HETATM    7  C3  UNK     1      31.491  -7.807  32.459  1.00  0.00     0.060 A 
HETATM    8  C4  UNK     1      33.585  -7.049  34.223  1.00  0.00     0.079 C 
HETATM    9  C6  UNK     1      30.485  -8.286  31.497  1.00  0.00     0.025 A 
HETATM   10  C7  UNK     1      33.509  -8.330  33.771  1.00  0.00     0.117 C 
HETATM   11  C8  UNK     1      30.530  -5.530  32.280  1.00  0.00     0.298 A 
HETATM   12  C9  UNK     1      29.560  -7.371  30.996  1.00  0.00     0.092 A 
HETATM   13  C12 UNK     1      30.382  -9.612  31.050  1.00  0.00     0.016 A 
HETATM   14  C13 UNK     1      28.563  -7.731  30.087  1.00  0.00     0.038 A 
HETATM   15  C14 UNK     1      34.689  -6.618  35.029  1.00  0.00     0.100 C 
HETATM   16  C15 UNK     1      29.389  -9.989  30.137  1.00  0.00     0.001 A 
HETATM   17  C18 UNK     1      28.480  -9.050  29.657  1.00  0.00     0.003 A 
HETATM   18  H2  UNK     1      32.433  -9.641  32.641  1.00  0.00     0.167 HD
ENDROOT
BRANCH   5  19
HETATM   19  C5  UNK     1      31.795  -5.584  35.133  1.00  0.00    -0.044 A 
HETATM   20  C10 UNK     1      30.827  -6.409  35.693  1.00  0.00     0.009 A 
HETATM   21  C16 UNK     1      30.172  -6.012  36.858  1.00  0.00     0.019 A 
HETATM   22  C19 UNK     1      30.491  -4.792  37.455  1.00  0.00     0.011 A 
HETATM   23 Br1  UNK     1      29.604  -4.253  39.036  1.00  0.00    -0.051 Br
HETATM   24  C17 UNK     1      31.463  -3.969  36.887  1.00  0.00     0.019 A 
HETATM   25  C11 UNK     1      32.117  -4.368  35.720  1.00  0.00     0.009 A 
ENDBRANCH   5  19
BRANCH  10  26
HETATM   26  N2  UNK     1      34.449  -9.283  34.085  1.00  0.00    -0.384 N 
HETATM   27  H7  UNK     1      34.179 -10.181  34.464  1.00  0.00     0.157 HD
HETATM   28  H8  UNK     1      35.427  -9.072  33.927  1.00  0.00     0.157 HD
ENDBRANCH  10  26
TORSDOF 2
ENDMDL
MODEL 7
REMARK VINA RESULT:      -7.4     32.801     34.447
REMARK  2 active torsions:
REMARK  status: ('A' for Active; 'I' for Inactive)
REMARK    1  A    between atoms: C7_13  and  N2_5 
REMARK    2  A    between atoms: C1_7  and  C5_11 
ROOT
HETATM    1  O1  UNK     1      29.830  -7.213  33.300  1.00  0.00    -0.274 OA
HETATM    2  O2  UNK     1      28.016  -6.694  34.573  1.00  0.00    -0.259 OA
HETATM    3  N1  UNK     1      32.299  -5.653  36.321  1.00  0.00    -0.340 N 
HETATM    4  N3  UNK     1      29.594  -3.811  39.842  1.00  0.00    -0.191 NA
HETATM    5  C1  UNK     1      29.523  -5.726  36.819  1.00  0.00     0.107 C 
HETATM    6  C2  UNK     1      30.150  -6.227  35.514  1.00  0.00     0.059 A 
HETATM    7  C3  UNK     1      31.486  -6.189  35.343  1.00  0.00     0.060 A 
HETATM    8  C4  UNK     1      30.528  -5.026  37.751  1.00  0.00     0.079 C 
HETATM    9  C6  UNK     1      32.080  -6.710  34.100  1.00  0.00     0.025 A 
HETATM   10  C7  UNK     1      31.862  -5.032  37.484  1.00  0.00     0.117 C 
HETATM   11  C8  UNK     1      29.236  -6.719  34.452  1.00  0.00     0.298 A 
HETATM   12  C9  UNK     1      31.225  -7.213  33.119  1.00  0.00     0.092 A 
HETATM   13  C12 UNK     1      33.456  -6.747  33.831  1.00  0.00     0.016 A 
HETATM   14  C13 UNK     1      31.693  -7.735  31.911  1.00  0.00     0.038 A 
HETATM   15  C14 UNK     1      30.012  -4.354  38.906  1.00  0.00     0.100 C 
HETATM   16  C15 UNK     1      33.941  -7.267  32.625  1.00  0.00     0.001 A 
HETATM   17  C18 UNK     1      33.061  -7.761  31.667  1.00  0.00     0.003 A 
HETATM   18  H2  UNK     1      33.300  -5.630  36.170  1.00  0.00     0.167 HD
ENDROOT
BRANCH   5  19
HETATM   19  C5  UNK     1      28.866  -6.864  37.548  1.00  0.00    -0.044 A 
HETATM   20  C10 UNK     1      27.552  -6.734  37.982  1.00  0.00     0.009 A 
HETATM   21  C16 UNK     1      26.942  -7.791  38.657  1.00  0.00     0.019 A 
HETATM   22  C19 UNK     1      27.650  -8.969  38.893  1.00  0.00     0.011 A 
HETATM   23 Br1  UNK     1      26.822 -10.402  39.808  1.00  0.00    -0.051 Br
HETATM   24  C17 UNK     1      28.968  -9.091  38.454  1.00  0.00     0.019 A 
HETATM   25  C11 UNK     1      29.578  -8.034  37.779  1.00  0.00     0.009 A 
ENDBRANCH   5  19
BRANCH  10  26
HETATM   26  N2  UNK     1      32.785  -4.437  38.313  1.00  0.00    -0.384 N 
HETATM   27  H7  UNK     1      33.726  -4.245  37.996  1.00  0.00     0.157 HD
HETATM   28  H8  UNK     1      32.505  -4.189  39.254  1.00  0.00     0.157 HD
ENDBRANCH  10  26
TORSDOF 2
ENDMDL
MODEL 8
REMARK VINA RESULT:      -7.4     31.399     33.096
REMARK  2 active torsions:
REMARK  status: ('A' for Active; 'I' for Inactive)
REMARK    1  A    between atoms: C7_13  and  N2_5 
REMARK    2  A    between atoms: C1_7  and  C5_11 
ROOT
HETATM    1  O1  UNK     1      32.192  -8.596  35.588  1.00  0.00    -0.274 OA
HETATM    2  O2  UNK     1      30.997  -9.836  34.100  1.00  0.00    -0.259 OA
HETATM    3  N1  UNK     1      34.339  -6.951  32.373  1.00  0.00    -0.340 N 
HETATM    4  N3  UNK     1      32.934  -9.003  28.259  1.00  0.00    -0.191 NA
HETATM    5  C1  UNK     1      32.231  -8.723  31.758  1.00  0.00     0.107 C 
HETATM    6  C2  UNK     1      32.611  -8.345  33.193  1.00  0.00     0.059 A 
HETATM    7  C3  UNK     1      33.613  -7.473  33.425  1.00  0.00     0.060 A 
HETATM    8  C4  UNK     1      33.213  -8.183  30.703  1.00  0.00     0.079 C 
HETATM    9  C6  UNK     1      33.943  -7.087  34.806  1.00  0.00     0.025 A 
HETATM   10  C7  UNK     1      34.204  -7.314  31.038  1.00  0.00     0.117 C 
HETATM   11  C8  UNK     1      31.863  -8.992  34.300  1.00  0.00     0.298 A 
HETATM   12  C9  UNK     1      33.211  -7.662  35.846  1.00  0.00     0.092 A 
HETATM   13  C12 UNK     1      34.943  -6.168  35.158  1.00  0.00     0.016 A 
HETATM   14  C13 UNK     1      33.444  -7.354  37.188  1.00  0.00     0.038 A 
HETATM   15  C14 UNK     1      33.059  -8.637  29.352  1.00  0.00     0.100 C 
HETATM   16  C15 UNK     1      35.189  -5.849  36.499  1.00  0.00     0.001 A 
HETATM   17  C18 UNK     1      34.440  -6.441  37.513  1.00  0.00     0.003 A 
HETATM   18  H2  UNK     1      35.090  -6.301  32.569  1.00  0.00     0.167 HD
ENDROOT
BRANCH   5  19
HETATM   19  C5  UNK     1      30.842  -8.244  31.447  1.00  0.00    -0.044 A 
HETATM   20  C10 UNK     1      29.870  -9.159  31.061  1.00  0.00     0.009 A 
HETATM   21  C16 UNK     1      28.580  -8.715  30.773  1.00  0.00     0.019 A 
HETATM   22  C19 UNK     1      28.271  -7.358  30.875  1.00  0.00     0.011 A 
HETATM   23 Br1  UNK     1      26.522  -6.756  30.486  1.00  0.00    -0.051 Br
HETATM   24  C17 UNK     1      29.253  -6.446  31.263  1.00  0.00     0.019 A 
HETATM   25  C11 UNK     1      30.543  -6.892  31.550  1.00  0.00     0.009 A 
ENDBRANCH   5  19
BRANCH  10  26
HETATM   26  N2  UNK     1      35.079  -6.795  30.113  1.00  0.00    -0.384 N 
HETATM   27  H7  UNK     1      34.993  -5.841  29.788  1.00  0.00     0.157 HD
HETATM   28  H8  UNK     1      35.820  -7.387  29.759  1.00  0.00     0.157 HD
ENDBRANCH  10  26
TORSDOF 2
ENDMDL
MODEL 9
REMARK VINA RESULT:      -7.3      3.438      6.700
REMARK  2 active torsions:
REMARK  status: ('A' for Active; 'I' for Inactive)
REMARK    1  A    between atoms: C7_13  and  N2_5 
REMARK    2  A    between atoms: C1_7  and  C5_11 
ROOT
HETATM    1  O1  UNK     1      15.410   6.342   9.302  1.00  0.00    -0.274 OA
HETATM    2  O2  UNK     1      17.112   7.612  10.122  1.00  0.00    -0.259 OA
HETATM    3  N1  UNK     1      12.734   9.424  10.300  1.00  0.00    -0.340 N 
HETATM    4  N3  UNK     1      15.096  12.967  12.533  1.00  0.00    -0.191 NA
HETATM    5  C1  UNK     1      15.482   9.895  10.737  1.00  0.00     0.107 C 
HETATM    6  C2  UNK     1      14.942   8.584  10.158  1.00  0.00     0.059 A 
HETATM    7  C3  UNK     1      13.620   8.426   9.949  1.00  0.00     0.060 A 
HETATM    8  C4  UNK     1      14.377  10.854  11.214  1.00  0.00     0.079 C 
HETATM    9  C6  UNK     1      13.117   7.176   9.356  1.00  0.00     0.025 A 
HETATM   10  C7  UNK     1      13.064  10.600  10.965  1.00  0.00     0.117 C 
HETATM   11  C8  UNK     1      15.917   7.501   9.871  1.00  0.00     0.298 A 
HETATM   12  C9  UNK     1      14.037   6.174   9.045  1.00  0.00     0.092 A 
HETATM   13  C12 UNK     1      11.768   6.919   9.068  1.00  0.00     0.016 A 
HETATM   14  C13 UNK     1      13.659   4.958   8.473  1.00  0.00     0.038 A 
HETATM   15  C14 UNK     1      14.774  12.022  11.943  1.00  0.00     0.100 C 
HETATM   16  C15 UNK     1      11.372   5.704   8.494  1.00  0.00     0.001 A 
HETATM   17  C18 UNK     1      12.316   4.725   8.197  1.00  0.00     0.003 A 
HETATM   18  H2  UNK     1      11.745   9.284  10.138  1.00  0.00     0.167 HD
ENDROOT
BRANCH   5  19
HETATM   19  C5  UNK     1      16.350  10.589   9.725  1.00  0.00    -0.044 A 
HETATM   20  C10 UNK     1      15.807  10.978   8.506  1.00  0.00     0.009 A 
HETATM   21  C16 UNK     1      16.612  11.622   7.568  1.00  0.00     0.019 A 
HETATM   22  C19 UNK     1      17.954  11.873   7.856  1.00  0.00     0.011 A 
HETATM   23 Br1  UNK     1      19.045  12.748   6.583  1.00  0.00    -0.051 Br
HETATM   24  C17 UNK     1      18.491  11.480   9.081  1.00  0.00     0.019 A 
HETATM   25  C11 UNK     1      17.685  10.834  10.019  1.00  0.00     0.009 A 
ENDBRANCH   5  19
BRANCH  10  26
HETATM   26  N2  UNK     1      12.058  11.452  11.356  1.00  0.00    -0.384 N 
HETATM   27  H7  UNK     1      11.396  11.823  10.686  1.00  0.00     0.157 HD
HETATM   28  H8  UNK     1      11.985  11.702  12.334  1.00  0.00     0.157 HD
ENDBRANCH  10  26
TORSDOF 2
ENDMDL
MODEL 10
REMARK VINA RESULT:      -7.3     33.190     34.703
REMARK  2 active torsions:
REMARK  status: ('A' for Active; 'I' for Inactive)
REMARK    1  A    between atoms: C7_13  and  N2_5 
REMARK    2  A    between atoms: C1_7  and  C5_11 
ROOT
HETATM    1  O1  UNK     1      32.697  -6.740  32.810  1.00  0.00    -0.274 OA
HETATM    2  O2  UNK     1      30.565  -6.078  33.250  1.00  0.00    -0.259 OA
HETATM    3  N1  UNK     1      33.675  -5.996  36.828  1.00  0.00    -0.340 N 
HETATM    4  N3  UNK     1      29.866  -4.160  39.115  1.00  0.00    -0.191 NA
HETATM    5  C1  UNK     1      30.981  -5.657  36.061  1.00  0.00     0.107 C 
HETATM    6  C2  UNK     1      32.077  -6.097  35.085  1.00  0.00     0.059 A 
HETATM    7  C3  UNK     1      33.344  -6.266  35.515  1.00  0.00     0.060 A 
HETATM    8  C4  UNK     1      31.520  -5.255  37.445  1.00  0.00     0.079 C 
HETATM    9  C6  UNK     1      34.380  -6.726  34.577  1.00  0.00     0.025 A 
HETATM   10  C7  UNK     1      32.822  -5.455  37.782  1.00  0.00     0.117 C 
HETATM   11  C8  UNK     1      31.699  -6.295  33.663  1.00  0.00     0.298 A 
HETATM   12  C9  UNK     1      34.016  -6.955  33.250  1.00  0.00     0.092 A 
HETATM   13  C12 UNK     1      35.718  -6.963  34.925  1.00  0.00     0.016 A 
HETATM   14  C13 UNK     1      34.925  -7.400  32.288  1.00  0.00     0.038 A 
HETATM   15  C14 UNK     1      30.606  -4.649  38.368  1.00  0.00     0.100 C 
HETATM   16  C15 UNK     1      36.642  -7.409  33.971  1.00  0.00     0.001 A 
HETATM   17  C18 UNK     1      36.246  -7.628  32.655  1.00  0.00     0.003 A 
HETATM   18  H2  UNK     1      34.632  -6.126  37.130  1.00  0.00     0.167 HD
ENDROOT
BRANCH   5  19
HETATM   19  C5  UNK     1      29.957  -6.747  36.214  1.00  0.00    -0.044 A 
HETATM   20  C10 UNK     1      30.355  -8.006  36.648  1.00  0.00     0.009 A 
HETATM   21  C16 UNK     1      29.405  -9.017  36.791  1.00  0.00     0.019 A 
HETATM   22  C19 UNK     1      28.065  -8.761  36.500  1.00  0.00     0.011 A 
HETATM   23 Br1  UNK     1      26.777 -10.131  36.695  1.00  0.00    -0.051 Br
HETATM   24  C17 UNK     1      27.675  -7.494  36.064  1.00  0.00     0.019 A 
HETATM   25  C11 UNK     1      28.626  -6.484  35.921  1.00  0.00     0.009 A 
ENDBRANCH   5  19
BRANCH  10  26
HETATM   26  N2  UNK     1      33.325  -5.130  39.020  1.00  0.00    -0.384 N 
HETATM   27  H7  UNK     1      32.840  -4.483  39.629  1.00  0.00     0.157 HD
HETATM   28  H8  UNK     1      34.194  -5.554  39.319  1.00  0.00     0.157 HD
ENDBRANCH  10  26
TORSDOF 2
ENDMDL
