MODEL 1
REMARK VINA RESULT:      -8.1      0.000      0.000
REMARK  4 active torsions:
REMARK  status: ('A' for Active; 'I' for Inactive)
REMARK    1  A    between atoms: C9_14  and  O2_2 
REMARK    2  A    between atoms: C5_10  and  O3_3 
REMARK    3  A    between atoms: C14_19  and  O5_5 
REMARK    4  A    between atoms: C2_7  and  C4_9 
ROOT
HETATM    1  O1  UNK     1      16.558   5.963  32.379  1.00  0.00    -0.306 OA
HETATM    2  O4  UNK     1      19.071   7.853  34.971  1.00  0.00    -0.284 OA
HETATM    3  C1  UNK     1      16.916   7.712  34.023  1.00  0.00     0.051 A 
HETATM    4  C2  UNK     1      17.870   5.549  32.547  1.00  0.00     0.126 A 
HETATM    5  C3  UNK     1      16.109   7.025  33.120  1.00  0.00     0.090 A 
HETATM    6  C5  UNK     1      18.754   6.130  33.379  1.00  0.00     0.152 A 
HETATM    7  C6  UNK     1      18.313   7.285  34.197  1.00  0.00     0.220 A 
HETATM    8  C7  UNK     1      16.402   8.789  34.751  1.00  0.00     0.025 A 
HETATM    9  C8  UNK     1      15.074   9.173  34.566  1.00  0.00    -0.061 A 
HETATM   10  C10 UNK     1      14.781   7.412  32.936  1.00  0.00     0.039 A 
HETATM   11  C11 UNK     1      14.264   8.487  33.661  1.00  0.00     0.009 A 
HETATM   12  C16 UNK     1      14.517  10.322  35.339  1.00  0.00     0.048 C 
ENDROOT
BRANCH   4  13
HETATM   13  C4  UNK     1      18.224   4.400  31.693  1.00  0.00     0.034 A 
HETATM   14  C12 UNK     1      18.613   4.633  30.373  1.00  0.00     0.020 A 
HETATM   15  C15 UNK     1      18.953   3.563  29.545  1.00  0.00     0.038 A 
HETATM   16  C14 UNK     1      18.903   2.258  30.036  1.00  0.00     0.070 A 
HETATM   17  C13 UNK     1      18.515   2.024  31.354  1.00  0.00     0.074 A 
HETATM   18  C9  UNK     1      18.175   3.093  32.182  1.00  0.00     0.084 A 
BRANCH  16  19
HETATM   19  O5  UNK     1      19.235   1.214  29.227  1.00  0.00    -0.356 OA
HETATM   20  C18 UNK     1      20.044   0.185  29.796  1.00  0.00     0.210 C 
ENDBRANCH  16  19
BRANCH  18  21
HETATM   21  O2  UNK     1      17.799   2.836  33.468  1.00  0.00    -0.355 OA
HETATM   22  C17 UNK     1      18.131   1.553  33.995  1.00  0.00     0.210 C 
ENDBRANCH  18  21
ENDBRANCH   4  13
BRANCH   6  23
HETATM   23  O3  UNK     1      20.061   5.713  33.497  1.00  0.00    -0.355 OA
HETATM   24  H10 UNK     1      20.192   4.890  33.000  1.00  0.00     0.218 HD
ENDBRANCH   6  23
TORSDOF 4
ENDMDL
MODEL 2
REMARK VINA RESULT:      -7.8      1.127      2.048
REMARK  4 active torsions:
REMARK  status: ('A' for Active; 'I' for Inactive)
REMARK    1  A    between atoms: C9_14  and  O2_2 
REMARK    2  A    between atoms: C5_10  and  O3_3 
REMARK    3  A    between atoms: C14_19  and  O5_5 
REMARK    4  A    between atoms: C2_7  and  C4_9 
ROOT
HETATM    1  O1  UNK     1      16.605   6.195  33.033  1.00  0.00    -0.306 OA
HETATM    2  O4  UNK     1      19.470   8.688  34.510  1.00  0.00    -0.284 OA
HETATM    3  C1  UNK     1      17.182   8.304  34.088  1.00  0.00     0.051 A 
HETATM    4  C2  UNK     1      17.945   5.842  33.026  1.00  0.00     0.126 A 
HETATM    5  C3  UNK     1      16.252   7.408  33.566  1.00  0.00     0.090 A 
HETATM    6  C5  UNK     1      18.942   6.617  33.490  1.00  0.00     0.152 A 
HETATM    7  C6  UNK     1      18.607   7.940  34.071  1.00  0.00     0.220 A 
HETATM    8  C7  UNK     1      16.763   9.528  34.617  1.00  0.00     0.025 A 
HETATM    9  C8  UNK     1      15.405   9.848  34.619  1.00  0.00    -0.061 A 
HETATM   10  C10 UNK     1      14.895   7.731  33.568  1.00  0.00     0.039 A 
HETATM   11  C11 UNK     1      14.472   8.952  34.096  1.00  0.00     0.009 A 
HETATM   12  C16 UNK     1      14.949  11.152  35.181  1.00  0.00     0.048 C 
ENDROOT
BRANCH   4  13
HETATM   13  C4  UNK     1      18.187   4.517  32.427  1.00  0.00     0.034 A 
HETATM   14  C12 UNK     1      18.082   3.381  33.232  1.00  0.00     0.020 A 
HETATM   15  C15 UNK     1      18.306   2.116  32.688  1.00  0.00     0.038 A 
HETATM   16  C14 UNK     1      18.635   1.984  31.340  1.00  0.00     0.070 A 
HETATM   17  C13 UNK     1      18.741   3.118  30.534  1.00  0.00     0.074 A 
HETATM   18  C9  UNK     1      18.517   4.383  31.076  1.00  0.00     0.084 A 
BRANCH  16  19
HETATM   19  O5  UNK     1      18.854   0.749  30.809  1.00  0.00    -0.356 OA
HETATM   20  C18 UNK     1      19.761   0.666  29.711  1.00  0.00     0.210 C 
ENDBRANCH  16  19
BRANCH  18  21
HETATM   21  O2  UNK     1      18.625   5.475  30.267  1.00  0.00    -0.355 OA
HETATM   22  C17 UNK     1      19.945   5.912  29.944  1.00  0.00     0.210 C 
ENDBRANCH  18  21
ENDBRANCH   4  13
BRANCH   6  23
HETATM   23  O3  UNK     1      20.268   6.249  33.438  1.00  0.00    -0.355 OA
HETATM   24  H10 UNK     1      20.800   6.979  33.084  1.00  0.00     0.218 HD
ENDBRANCH   6  23
TORSDOF 4
ENDMDL
MODEL 3
REMARK VINA RESULT:      -7.7      1.947      6.970
REMARK  4 active torsions:
REMARK  status: ('A' for Active; 'I' for Inactive)
REMARK    1  A    between atoms: C9_14  and  O2_2 
REMARK    2  A    between atoms: C5_10  and  O3_3 
REMARK    3  A    between atoms: C14_19  and  O5_5 
REMARK    4  A    between atoms: C2_7  and  C4_9 
ROOT
HETATM    1  O1  UNK     1      18.336   4.166  34.540  1.00  0.00    -0.306 OA
HETATM    2  O4  UNK     1      18.286   1.992  31.094  1.00  0.00    -0.284 OA
HETATM    3  C1  UNK     1      18.342   1.997  33.452  1.00  0.00     0.051 A 
HETATM    4  C2  UNK     1      18.283   4.779  33.298  1.00  0.00     0.126 A 
HETATM    5  C3  UNK     1      18.359   2.796  34.592  1.00  0.00     0.090 A 
HETATM    6  C5  UNK     1      18.269   4.124  32.123  1.00  0.00     0.152 A 
HETATM    7  C6  UNK     1      18.297   2.642  32.131  1.00  0.00     0.220 A 
HETATM    8  C7  UNK     1      18.367   0.604  33.566  1.00  0.00     0.025 A 
HETATM    9  C8  UNK     1      18.411   0.018  34.832  1.00  0.00    -0.061 A 
HETATM   10  C10 UNK     1      18.404   2.208  35.856  1.00  0.00     0.039 A 
HETATM   11  C11 UNK     1      18.429   0.818  35.975  1.00  0.00     0.009 A 
HETATM   12  C16 UNK     1      18.439  -1.468  34.964  1.00  0.00     0.048 C 
ENDROOT
BRANCH   4  13
HETATM   13  C4  UNK     1      18.263   6.251  33.385  1.00  0.00     0.034 A 
HETATM   14  C12 UNK     1      19.367   6.911  33.925  1.00  0.00     0.020 A 
HETATM   15  C15 UNK     1      19.373   8.304  34.018  1.00  0.00     0.038 A 
HETATM   16  C14 UNK     1      18.274   9.037  33.570  1.00  0.00     0.070 A 
HETATM   17  C13 UNK     1      17.170   8.378  33.029  1.00  0.00     0.074 A 
HETATM   18  C9  UNK     1      17.164   6.987  32.937  1.00  0.00     0.084 A 
BRANCH  16  19
HETATM   19  O5  UNK     1      18.280  10.395  33.660  1.00  0.00    -0.356 OA
HETATM   20  C18 UNK     1      17.096  11.018  34.156  1.00  0.00     0.210 C 
ENDBRANCH  16  19
BRANCH  18  21
HETATM   21  O2  UNK     1      16.072   6.368  32.404  1.00  0.00    -0.355 OA
HETATM   22  C17 UNK     1      14.975   7.199  32.029  1.00  0.00     0.210 C 
ENDBRANCH  18  21
ENDBRANCH   4  13
BRANCH   6  23
HETATM   23  O3  UNK     1      18.248   4.766  30.905  1.00  0.00    -0.355 OA
HETATM   24  H10 UNK     1      17.490   4.459  30.382  1.00  0.00     0.218 HD
ENDBRANCH   6  23
TORSDOF 4
ENDMDL
MODEL 4
REMARK VINA RESULT:      -7.6      7.162     10.883
REMARK  4 active torsions:
REMARK  status: ('A' for Active; 'I' for Inactive)
REMARK    1  A    between atoms: C9_14  and  O2_2 
REMARK    2  A    between atoms: C5_10  and  O3_3 
REMARK    3  A    between atoms: C14_19  and  O5_5 
REMARK    4  A    between atoms: C2_7  and  C4_9 
ROOT
HETATM    1  O1  UNK     1      20.423  -3.590  34.850  1.00  0.00    -0.306 OA
HETATM    2  O4  UNK     1      18.002  -0.500  35.947  1.00  0.00    -0.284 OA
HETATM    3  C1  UNK     1      19.294  -1.523  34.260  1.00  0.00     0.051 A 
HETATM    4  C2  UNK     1      19.881  -3.512  36.123  1.00  0.00     0.126 A 
HETATM    5  C3  UNK     1      20.116  -2.604  33.948  1.00  0.00     0.090 A 
HETATM    6  C5  UNK     1      19.081  -2.519  36.553  1.00  0.00     0.152 A 
HETATM    7  C6  UNK     1      18.726  -1.429  35.613  1.00  0.00     0.220 A 
HETATM    8  C7  UNK     1      19.017  -0.547  33.299  1.00  0.00     0.025 A 
HETATM    9  C8  UNK     1      19.571  -0.661  32.023  1.00  0.00    -0.061 A 
HETATM   10  C10 UNK     1      20.669  -2.714  32.672  1.00  0.00     0.039 A 
HETATM   11  C11 UNK     1      20.395  -1.741  31.710  1.00  0.00     0.009 A 
HETATM   12  C16 UNK     1      19.281   0.377  30.991  1.00  0.00     0.048 C 
ENDROOT
BRANCH   4  13
HETATM   13  C4  UNK     1      20.289  -4.632  36.991  1.00  0.00     0.034 A 
HETATM   14  C12 UNK     1      21.512  -4.560  37.658  1.00  0.00     0.020 A 
HETATM   15  C15 UNK     1      21.921  -5.607  38.485  1.00  0.00     0.038 A 
HETATM   16  C14 UNK     1      21.106  -6.727  38.645  1.00  0.00     0.070 A 
HETATM   17  C13 UNK     1      19.883  -6.801  37.978  1.00  0.00     0.074 A 
HETATM   18  C9  UNK     1      19.475  -5.755  37.152  1.00  0.00     0.084 A 
BRANCH  16  19
HETATM   19  O5  UNK     1      21.505  -7.749  39.452  1.00  0.00    -0.356 OA
HETATM   20  C18 UNK     1      21.150  -9.070  39.049  1.00  0.00     0.210 C 
ENDBRANCH  16  19
BRANCH  18  21
HETATM   21  O2  UNK     1      18.274  -5.852  36.513  1.00  0.00    -0.355 OA
HETATM   22  C17 UNK     1      17.974  -7.099  35.887  1.00  0.00     0.210 C 
ENDBRANCH  18  21
ENDBRANCH   4  13
BRANCH   6  23
HETATM   23  O3  UNK     1      18.584  -2.456  37.837  1.00  0.00    -0.355 OA
HETATM   24  H10 UNK     1      18.647  -1.547  38.171  1.00  0.00     0.218 HD
ENDBRANCH   6  23
TORSDOF 4
ENDMDL
MODEL 5
REMARK VINA RESULT:      -7.6     22.711     24.696
REMARK  4 active torsions:
REMARK  status: ('A' for Active; 'I' for Inactive)
REMARK    1  A    between atoms: C9_14  and  O2_2 
REMARK    2  A    between atoms: C5_10  and  O3_3 
REMARK    3  A    between atoms: C14_19  and  O5_5 
REMARK    4  A    between atoms: C2_7  and  C4_9 
ROOT
HETATM    1  O1  UNK     1      14.254   9.179   8.308  1.00  0.00    -0.306 OA
HETATM    2  O4  UNK     1      16.736   7.545  11.096  1.00  0.00    -0.284 OA
HETATM    3  C1  UNK     1      16.294   9.325   9.615  1.00  0.00     0.051 A 
HETATM    4  C2  UNK     1      13.957   7.973   8.923  1.00  0.00     0.126 A 
HETATM    5  C3  UNK     1      15.405   9.829   8.668  1.00  0.00     0.090 A 
HETATM    6  C5  UNK     1      14.733   7.374   9.845  1.00  0.00     0.152 A 
HETATM    7  C6  UNK     1      15.990   8.040  10.262  1.00  0.00     0.220 A 
HETATM    8  C7  UNK     1      17.454  10.034   9.942  1.00  0.00     0.025 A 
HETATM    9  C8  UNK     1      17.717  11.250   9.312  1.00  0.00    -0.061 A 
HETATM   10  C10 UNK     1      15.672  11.046   8.039  1.00  0.00     0.039 A 
HETATM   11  C11 UNK     1      16.829  11.756   8.362  1.00  0.00     0.009 A 
HETATM   12  C16 UNK     1      18.954  12.013   9.653  1.00  0.00     0.048 C 
ENDROOT
BRANCH   4  13
HETATM   13  C4  UNK     1      12.694   7.380   8.446  1.00  0.00     0.034 A 
HETATM   14  C12 UNK     1      12.727   6.496   7.367  1.00  0.00     0.020 A 
HETATM   15  C15 UNK     1      11.545   5.922   6.897  1.00  0.00     0.038 A 
HETATM   16  C14 UNK     1      10.329   6.232   7.506  1.00  0.00     0.070 A 
HETATM   17  C13 UNK     1      10.294   7.116   8.584  1.00  0.00     0.074 A 
HETATM   18  C9  UNK     1      11.475   7.689   9.054  1.00  0.00     0.084 A 
BRANCH  16  19
HETATM   19  O5  UNK     1       9.176   5.672   7.047  1.00  0.00    -0.356 OA
HETATM   20  C18 UNK     1       8.063   5.655   7.939  1.00  0.00     0.210 C 
ENDBRANCH  16  19
BRANCH  18  21
HETATM   21  O2  UNK     1      11.414   8.550  10.111  1.00  0.00    -0.355 OA
HETATM   22  C17 UNK     1      10.788   9.811   9.882  1.00  0.00     0.210 C 
ENDBRANCH  18  21
ENDBRANCH   4  13
BRANCH   6  23
HETATM   23  O3  UNK     1      14.423   6.158  10.414  1.00  0.00    -0.355 OA
HETATM   24  H10 UNK     1      14.044   5.567   9.744  1.00  0.00     0.218 HD
ENDBRANCH   6  23
TORSDOF 4
ENDMDL
MODEL 6
REMARK VINA RESULT:      -7.6      1.639      7.149
REMARK  4 active torsions:
REMARK  status: ('A' for Active; 'I' for Inactive)
REMARK    1  A    between atoms: C9_14  and  O2_2 
REMARK    2  A    between atoms: C5_10  and  O3_3 
REMARK    3  A    between atoms: C14_19  and  O5_5 
REMARK    4  A    between atoms: C2_7  and  C4_9 
ROOT
HETATM    1  O1  UNK     1      18.460   3.793  31.150  1.00  0.00    -0.306 OA
HETATM    2  O4  UNK     1      18.679   1.048  34.154  1.00  0.00    -0.284 OA
HETATM    3  C1  UNK     1      18.884   1.508  31.850  1.00  0.00     0.051 A 
HETATM    4  C2  UNK     1      18.219   4.143  32.470  1.00  0.00     0.126 A 
HETATM    5  C3  UNK     1      18.791   2.492  30.870  1.00  0.00     0.090 A 
HETATM    6  C5  UNK     1      18.268   3.288  33.508  1.00  0.00     0.152 A 
HETATM    7  C6  UNK     1      18.618   1.871  33.250  1.00  0.00     0.220 A 
HETATM    8  C7  UNK     1      19.226   0.197  31.504  1.00  0.00     0.025 A 
HETATM    9  C8  UNK     1      19.472  -0.120  30.168  1.00  0.00    -0.061 A 
HETATM   10  C10 UNK     1      19.037   2.172  29.534  1.00  0.00     0.039 A 
HETATM   11  C11 UNK     1      19.378   0.865  29.184  1.00  0.00     0.009 A 
HETATM   12  C16 UNK     1      19.836  -1.516  29.789  1.00  0.00     0.048 C 
ENDROOT
BRANCH   4  13
HETATM   13  C4  UNK     1      17.874   5.567  32.632  1.00  0.00     0.034 A 
HETATM   14  C12 UNK     1      16.603   6.002  32.257  1.00  0.00     0.020 A 
HETATM   15  C15 UNK     1      16.252   7.345  32.401  1.00  0.00     0.038 A 
HETATM   16  C14 UNK     1      17.173   8.254  32.921  1.00  0.00     0.070 A 
HETATM   17  C13 UNK     1      18.445   7.821  33.296  1.00  0.00     0.074 A 
HETATM   18  C9  UNK     1      18.795   6.479  33.152  1.00  0.00     0.084 A 
BRANCH  16  19
HETATM   19  O5  UNK     1      16.831   9.564  33.061  1.00  0.00    -0.356 OA
HETATM   20  C18 UNK     1      16.371   9.980  34.346  1.00  0.00     0.210 C 
ENDBRANCH  16  19
BRANCH  18  21
HETATM   21  O2  UNK     1      20.045   6.082  33.527  1.00  0.00    -0.355 OA
HETATM   22  C17 UNK     1      21.124   6.443  32.667  1.00  0.00     0.210 C 
ENDBRANCH  18  21
ENDBRANCH   4  13
BRANCH   6  23
HETATM   23  O3  UNK     1      17.992   3.663  34.804  1.00  0.00    -0.355 OA
HETATM   24  H10 UNK     1      18.456   4.489  35.015  1.00  0.00     0.218 HD
ENDBRANCH   6  23
TORSDOF 4
ENDMDL
MODEL 7
REMARK VINA RESULT:      -7.6     23.399     24.891
REMARK  4 active torsions:
REMARK  status: ('A' for Active; 'I' for Inactive)
REMARK    1  A    between atoms: C9_14  and  O2_2 
REMARK    2  A    between atoms: C5_10  and  O3_3 
REMARK    3  A    between atoms: C14_19  and  O5_5 
REMARK    4  A    between atoms: C2_7  and  C4_9 
ROOT
HETATM    1  O1  UNK     1      11.726   7.263   9.708  1.00  0.00    -0.306 OA
HETATM    2  O4  UNK     1      14.944   5.150   8.373  1.00  0.00    -0.284 OA
HETATM    3  C1  UNK     1      14.121   7.140   9.331  1.00  0.00     0.051 A 
HETATM    4  C2  UNK     1      11.589   5.981   9.198  1.00  0.00     0.126 A 
HETATM    5  C3  UNK     1      12.981   7.811   9.769  1.00  0.00     0.090 A 
HETATM    6  C5  UNK     1      12.606   5.231   8.736  1.00  0.00     0.152 A 
HETATM    7  C6  UNK     1      13.981   5.785   8.778  1.00  0.00     0.220 A 
HETATM    8  C7  UNK     1      15.375   7.751   9.418  1.00  0.00     0.025 A 
HETATM    9  C8  UNK     1      15.479   9.038   9.946  1.00  0.00    -0.061 A 
HETATM   10  C10 UNK     1      13.088   9.099  10.295  1.00  0.00     0.039 A 
HETATM   11  C11 UNK     1      14.339   9.711  10.384  1.00  0.00     0.009 A 
HETATM   12  C16 UNK     1      16.814   9.697  10.042  1.00  0.00     0.048 C 
ENDROOT
BRANCH   4  13
HETATM   13  C4  UNK     1      10.192   5.513   9.188  1.00  0.00     0.034 A 
HETATM   14  C12 UNK     1       9.767   4.630  10.181  1.00  0.00     0.020 A 
HETATM   15  C15 UNK     1       8.449   4.172  10.194  1.00  0.00     0.038 A 
HETATM   16  C14 UNK     1       7.554   4.597   9.212  1.00  0.00     0.070 A 
HETATM   17  C13 UNK     1       7.977   5.479   8.218  1.00  0.00     0.074 A 
HETATM   18  C9  UNK     1       9.294   5.937   8.206  1.00  0.00     0.084 A 
BRANCH  16  19
HETATM   19  O5  UNK     1       6.268   4.150   9.224  1.00  0.00    -0.356 OA
HETATM   20  C18 UNK     1       5.920   3.204  10.233  1.00  0.00     0.210 C 
ENDBRANCH  16  19
BRANCH  18  21
HETATM   21  O2  UNK     1       9.682   6.800   7.223  1.00  0.00    -0.355 OA
HETATM   22  C17 UNK     1       9.840   6.259   5.913  1.00  0.00     0.210 C 
ENDBRANCH  18  21
ENDBRANCH   4  13
BRANCH   6  23
HETATM   23  O3  UNK     1      12.430   3.971   8.206  1.00  0.00    -0.355 OA
HETATM   24  H10 UNK     1      11.521   3.670   8.362  1.00  0.00     0.218 HD
ENDBRANCH   6  23
TORSDOF 4
ENDMDL
MODEL 8
REMARK VINA RESULT:      -7.5     22.927     24.915
REMARK  4 active torsions:
REMARK  status: ('A' for Active; 'I' for Inactive)
REMARK    1  A    between atoms: C9_14  and  O2_2 
REMARK    2  A    between atoms: C5_10  and  O3_3 
REMARK    3  A    between atoms: C14_19  and  O5_5 
REMARK    4  A    between atoms: C2_7  and  C4_9 
ROOT
HETATM    1  O1  UNK     1      13.410   8.106   7.968  1.00  0.00    -0.306 OA
HETATM    2  O4  UNK     1      10.413   9.238  10.486  1.00  0.00    -0.284 OA
HETATM    3  C1  UNK     1      11.090   7.916   8.655  1.00  0.00     0.051 A 
HETATM    4  C2  UNK     1      13.628   9.018   8.988  1.00  0.00     0.126 A 
HETATM    5  C3  UNK     1      12.155   7.572   7.827  1.00  0.00     0.090 A 
HETATM    6  C5  UNK     1      12.685   9.440   9.850  1.00  0.00     0.152 A 
HETATM    7  C6  UNK     1      11.312   8.893   9.731  1.00  0.00     0.220 A 
HETATM    8  C7  UNK     1       9.831   7.339   8.462  1.00  0.00     0.025 A 
HETATM    9  C8  UNK     1       9.649   6.415   7.432  1.00  0.00    -0.061 A 
HETATM   10  C10 UNK     1      11.969   6.649   6.797  1.00  0.00     0.039 A 
HETATM   11  C11 UNK     1      10.714   6.071   6.601  1.00  0.00     0.009 A 
HETATM   12  C16 UNK     1       8.309   5.795   7.218  1.00  0.00     0.048 C 
ENDROOT
BRANCH   4  13
HETATM   13  C4  UNK     1      15.016   9.514   9.029  1.00  0.00     0.034 A 
HETATM   14  C12 UNK     1      15.351  10.651   8.294  1.00  0.00     0.020 A 
HETATM   15  C15 UNK     1      16.658  11.139   8.316  1.00  0.00     0.038 A 
HETATM   16  C14 UNK     1      17.631  10.490   9.074  1.00  0.00     0.070 A 
HETATM   17  C13 UNK     1      17.299   9.352   9.810  1.00  0.00     0.074 A 
HETATM   18  C9  UNK     1      15.993   8.864   9.788  1.00  0.00     0.084 A 
BRANCH  16  19
HETATM   19  O5  UNK     1      18.907  10.967   9.097  1.00  0.00    -0.356 OA
HETATM   20  C18 UNK     1      19.284  11.857   8.048  1.00  0.00     0.210 C 
ENDBRANCH  16  19
BRANCH  18  21
HETATM   21  O2  UNK     1      15.694   7.751  10.516  1.00  0.00    -0.355 OA
HETATM   22  C17 UNK     1      16.211   6.509  10.041  1.00  0.00     0.210 C 
ENDBRANCH  18  21
ENDBRANCH   4  13
BRANCH   6  23
HETATM   23  O3  UNK     1      12.928  10.374  10.833  1.00  0.00    -0.355 OA
HETATM   24  H10 UNK     1      13.065  11.248  10.433  1.00  0.00     0.218 HD
ENDBRANCH   6  23
TORSDOF 4
ENDMDL
MODEL 9
REMARK VINA RESULT:      -7.4      2.921      5.015
REMARK  4 active torsions:
REMARK  status: ('A' for Active; 'I' for Inactive)
REMARK    1  A    between atoms: C9_14  and  O2_2 
REMARK    2  A    between atoms: C5_10  and  O3_3 
REMARK    3  A    between atoms: C14_19  and  O5_5 
REMARK    4  A    between atoms: C2_7  and  C4_9 
ROOT
HETATM    1  O1  UNK     1      17.866  10.629  33.509  1.00  0.00    -0.306 OA
HETATM    2  O4  UNK     1      14.625  10.392  35.969  1.00  0.00    -0.284 OA
HETATM    3  C1  UNK     1      16.248  11.750  34.929  1.00  0.00     0.051 A 
HETATM    4  C2  UNK     1      17.248   9.417  33.778  1.00  0.00     0.126 A 
HETATM    5  C3  UNK     1      17.353  11.764  34.082  1.00  0.00     0.090 A 
HETATM    6  C5  UNK     1      16.180   9.266  34.583  1.00  0.00     0.152 A 
HETATM    7  C6  UNK     1      15.596  10.467  35.227  1.00  0.00     0.220 A 
HETATM    8  C7  UNK     1      15.770  12.941  35.485  1.00  0.00     0.025 A 
HETATM    9  C8  UNK     1      16.409  14.145  35.186  1.00  0.00    -0.061 A 
HETATM   10  C10 UNK     1      17.991  12.969  33.786  1.00  0.00     0.039 A 
HETATM   11  C11 UNK     1      17.517  14.160  34.339  1.00  0.00     0.009 A 
HETATM   12  C16 UNK     1      15.907  15.420  35.776  1.00  0.00     0.048 C 
ENDROOT
BRANCH   4  13
HETATM   13  C4  UNK     1      17.896   8.279  33.101  1.00  0.00     0.034 A 
HETATM   14  C12 UNK     1      19.076   7.759  33.634  1.00  0.00     0.020 A 
HETATM   15  C15 UNK     1      19.709   6.682  33.012  1.00  0.00     0.038 A 
HETATM   16  C14 UNK     1      19.163   6.125  31.856  1.00  0.00     0.070 A 
HETATM   17  C13 UNK     1      17.984   6.644  31.322  1.00  0.00     0.074 A 
HETATM   18  C9  UNK     1      17.351   7.720  31.943  1.00  0.00     0.084 A 
BRANCH  16  19
HETATM   19  O5  UNK     1      19.780   5.074  31.250  1.00  0.00    -0.356 OA
HETATM   20  C18 UNK     1      18.967   4.217  30.449  1.00  0.00     0.210 C 
ENDBRANCH  16  19
BRANCH  18  21
HETATM   21  O2  UNK     1      16.199   8.209  31.400  1.00  0.00    -0.355 OA
HETATM   22  C17 UNK     1      15.010   7.449  31.613  1.00  0.00     0.210 C 
ENDBRANCH  18  21
ENDBRANCH   4  13
BRANCH   6  23
HETATM   23  O3  UNK     1      15.610   8.042  34.853  1.00  0.00    -0.355 OA
HETATM   24  H10 UNK     1      15.543   7.521  34.037  1.00  0.00     0.218 HD
ENDBRANCH   6  23
TORSDOF 4
ENDMDL
MODEL 10
REMARK VINA RESULT:      -7.4     13.000     17.074
REMARK  4 active torsions:
REMARK  status: ('A' for Active; 'I' for Inactive)
REMARK    1  A    between atoms: C9_14  and  O2_2 
REMARK    2  A    between atoms: C5_10  and  O3_3 
REMARK    3  A    between atoms: C14_19  and  O5_5 
REMARK    4  A    between atoms: C2_7  and  C4_9 
ROOT
HETATM    1  O1  UNK     1      23.471  -8.479  37.374  1.00  0.00    -0.306 OA
HETATM    2  O4  UNK     1      25.163 -11.800  35.727  1.00  0.00    -0.284 OA
HETATM    3  C1  UNK     1      25.406  -9.925  37.136  1.00  0.00     0.051 A 
HETATM    4  C2  UNK     1      22.756  -9.311  36.527  1.00  0.00     0.126 A 
HETATM    5  C3  UNK     1      24.771  -8.804  37.664  1.00  0.00     0.090 A 
HETATM    6  C5  UNK     1      23.253 -10.418  35.945  1.00  0.00     0.152 A 
HETATM    7  C6  UNK     1      24.657 -10.805  36.226  1.00  0.00     0.220 A 
HETATM    8  C7  UNK     1      26.735 -10.205  37.467  1.00  0.00     0.025 A 
HETATM    9  C8  UNK     1      27.423  -9.353  38.332  1.00  0.00    -0.061 A 
HETATM   10  C10 UNK     1      25.462  -7.953  38.528  1.00  0.00     0.039 A 
HETATM   11  C11 UNK     1      26.788  -8.229  38.861  1.00  0.00     0.009 A 
HETATM   12  C16 UNK     1      28.841  -9.644  38.690  1.00  0.00     0.048 C 
ENDROOT
BRANCH   4  13
HETATM   13  C4  UNK     1      21.375  -8.849  36.299  1.00  0.00     0.034 A 
HETATM   14  C12 UNK     1      21.120  -7.976  35.241  1.00  0.00     0.020 A 
HETATM   15  C15 UNK     1      19.821  -7.524  35.004  1.00  0.00     0.038 A 
HETATM   16  C14 UNK     1      18.776  -7.945  35.826  1.00  0.00     0.070 A 
HETATM   17  C13 UNK     1      19.029  -8.818  36.884  1.00  0.00     0.074 A 
HETATM   18  C9  UNK     1      20.327  -9.270  37.121  1.00  0.00     0.084 A 
BRANCH  16  19
HETATM   19  O5  UNK     1      17.509  -7.505  35.595  1.00  0.00    -0.356 OA
HETATM   20  C18 UNK     1      17.079  -6.355  36.322  1.00  0.00     0.210 C 
ENDBRANCH  16  19
BRANCH  18  21
HETATM   21  O2  UNK     1      20.547 -10.123  38.161  1.00  0.00    -0.355 OA
HETATM   22  C17 UNK     1      20.156  -9.676  39.459  1.00  0.00     0.210 C 
ENDBRANCH  18  21
ENDBRANCH   4  13
BRANCH   6  23
HETATM   23  O3  UNK     1      22.524 -11.205  35.081  1.00  0.00    -0.355 OA
HETATM   24  H10 UNK     1      22.481 -12.114  35.419  1.00  0.00     0.218 HD
ENDBRANCH   6  23
TORSDOF 4
ENDMDL
