MODEL 1
REMARK VINA RESULT:      -9.2      0.000      0.000
REMARK  4 active torsions:
REMARK  status: ('A' for Active; 'I' for Inactive)
REMARK    1  A    between atoms: C9_18  and  O2_5 
REMARK       I    between atoms: C11_20  and  N1_9 
REMARK    2  A    between atoms: C4_13  and  N1_9 
REMARK    3  A    between atoms: C2_11  and  C9_18 
REMARK    4  A    between atoms: C10_19  and  C11_20 
ROOT
HETATM    1 Cl1  UNK     1      17.753   4.285  33.789  1.00  0.00    -0.083 Cl
HETATM    2 Cl2  UNK     1      18.673   1.933  29.045  1.00  0.00    -0.084 Cl
HETATM    3  S1  UNK     1      19.591   8.699  33.936  1.00  0.00    -0.075 SA
HETATM    4  C1  UNK     1      18.697   6.859  32.382  1.00  0.00     0.008 A 
HETATM    5  C2  UNK     1      17.637   7.800  32.531  1.00  0.00     0.085 A 
HETATM    6  C3  UNK     1      19.818   7.226  33.094  1.00  0.00    -0.007 A 
HETATM    7  C4  UNK     1      18.004   8.826  33.341  1.00  0.00     0.094 A 
HETATM    8  C5  UNK     1      18.679   5.647  31.602  1.00  0.00    -0.002 A 
HETATM    9  C6  UNK     1      21.125   6.538  33.212  1.00  0.00     0.057 C 
HETATM   10  C7  UNK     1      18.269   4.430  32.145  1.00  0.00     0.046 A 
HETATM   11  C8  UNK     1      19.087   5.718  30.271  1.00  0.00     0.016 A 
HETATM   12  C15 UNK     1      18.268   3.281  31.354  1.00  0.00     0.048 A 
HETATM   13  C16 UNK     1      19.085   4.569  29.480  1.00  0.00     0.025 A 
HETATM   14  C18 UNK     1      18.676   3.351  30.021  1.00  0.00     0.035 A 
ENDROOT
BRANCH   7  15
HETATM   15  N1  UNK     1      17.290   9.955  33.756  1.00  0.00    -0.316 N 
HETATM   16  C11 UNK     1      16.296   9.984  34.725  1.00  0.00     0.262 C 
HETATM   17  O4  UNK     1      15.852   9.055  35.396  1.00  0.00    -0.267 OA
HETATM   18  H1  UNK     1      17.563  10.819  33.299  1.00  0.00     0.169 HD
BRANCH  16  19
HETATM   19  C10 UNK     1      15.755  11.335  34.912  1.00  0.00     0.108 A 
HETATM   20  C13 UNK     1      14.422  11.432  34.991  1.00  0.00     0.037 A 
HETATM   21  C12 UNK     1      13.793  12.730  35.177  1.00  0.00    -0.001 A 
HETATM   22  C14 UNK     1      14.595  13.862  35.268  1.00  0.00     0.089 A 
HETATM   23  C19 UNK     1      12.406  12.879  35.266  1.00  0.00     0.014 A 
HETATM   24  O1  UNK     1      15.998  13.753  35.183  1.00  0.00    -0.274 OA
HETATM   25  C20 UNK     1      14.055  15.134  35.444  1.00  0.00     0.038 A 
HETATM   26  C17 UNK     1      16.630  12.526  35.007  1.00  0.00     0.304 A 
HETATM   27  O5  UNK     1      17.851  12.440  34.933  1.00  0.00    -0.259 OA
HETATM   28  C22 UNK     1      12.672  15.273  35.532  1.00  0.00     0.003 A 
HETATM   29  C21 UNK     1      11.849  14.149  35.443  1.00  0.00     0.001 A 
ENDBRANCH  16  19
ENDBRANCH   7  15
BRANCH   5  30
HETATM   30  C9  UNK     1      16.336   7.704  31.915  1.00  0.00     0.296 C 
HETATM   31  O3  UNK     1      16.037   8.255  30.846  1.00  0.00    -0.259 OA
BRANCH  30  32
HETATM   32  O2  UNK     1      15.438   6.937  32.623  1.00  0.00    -0.322 OA
HETATM   33  C23 UNK     1      14.065   7.339  32.574  1.00  0.00     0.213 C 
ENDBRANCH  30  32
ENDBRANCH   5  30
TORSDOF 4
ENDMDL
MODEL 2
REMARK VINA RESULT:      -8.9     17.950     20.501
REMARK  4 active torsions:
REMARK  status: ('A' for Active; 'I' for Inactive)
REMARK    1  A    between atoms: C9_18  and  O2_5 
REMARK       I    between atoms: C11_20  and  N1_9 
REMARK    2  A    between atoms: C4_13  and  N1_9 
REMARK    3  A    between atoms: C2_11  and  C9_18 
REMARK    4  A    between atoms: C10_19  and  C11_20 
ROOT
HETATM    1 Cl1  UNK     1      30.703  -6.037  34.200  1.00  0.00    -0.083 Cl
HETATM    2 Cl2  UNK     1      35.563  -5.849  36.487  1.00  0.00    -0.084 Cl
HETATM    3  S1  UNK     1      27.920  -9.327  36.277  1.00  0.00    -0.075 SA
HETATM    4  C1  UNK     1      29.933  -7.769  36.629  1.00  0.00     0.008 A 
HETATM    5  C2  UNK     1      28.820  -7.120  37.237  1.00  0.00     0.085 A 
HETATM    6  C3  UNK     1      29.583  -8.979  36.068  1.00  0.00    -0.007 A 
HETATM    7  C4  UNK     1      27.690  -7.864  37.110  1.00  0.00     0.094 A 
HETATM    8  C5  UNK     1      31.290  -7.287  36.562  1.00  0.00    -0.002 A 
HETATM    9  C6  UNK     1      30.427  -9.960  35.345  1.00  0.00     0.057 C 
HETATM   10  C7  UNK     1      31.739  -6.497  35.506  1.00  0.00     0.046 A 
HETATM   11  C8  UNK     1      32.159  -7.634  37.596  1.00  0.00     0.016 A 
HETATM   12  C15 UNK     1      33.061  -6.053  35.482  1.00  0.00     0.048 A 
HETATM   13  C16 UNK     1      33.481  -7.189  37.573  1.00  0.00     0.025 A 
HETATM   14  C18 UNK     1      33.932  -6.399  36.516  1.00  0.00     0.035 A 
ENDROOT
BRANCH   7  15
HETATM   15  N1  UNK     1      26.386  -7.616  37.551  1.00  0.00    -0.316 N 
HETATM   16  C11 UNK     1      25.810  -8.102  38.716  1.00  0.00     0.262 C 
HETATM   17  O4  UNK     1      26.310  -8.827  39.574  1.00  0.00    -0.267 OA
HETATM   18  H1  UNK     1      25.846  -7.004  36.947  1.00  0.00     0.169 HD
BRANCH  16  19
HETATM   19  C10 UNK     1      24.424  -7.646  38.871  1.00  0.00     0.108 A 
HETATM   20  C13 UNK     1      23.491  -8.604  38.932  1.00  0.00     0.037 A 
HETATM   21  C12 UNK     1      22.088  -8.250  39.085  1.00  0.00    -0.001 A 
HETATM   22  C14 UNK     1      21.736  -6.907  39.165  1.00  0.00     0.089 A 
HETATM   23  C19 UNK     1      21.080  -9.215  39.154  1.00  0.00     0.014 A 
HETATM   24  O1  UNK     1      22.723  -5.904  39.100  1.00  0.00    -0.274 OA
HETATM   25  C20 UNK     1      20.411  -6.502  39.310  1.00  0.00     0.038 A 
HETATM   26  C17 UNK     1      24.073  -6.210  38.955  1.00  0.00     0.304 A 
HETATM   27  O5  UNK     1      24.926  -5.330  38.898  1.00  0.00    -0.259 OA
HETATM   28  C22 UNK     1      19.413  -7.472  39.379  1.00  0.00     0.003 A 
HETATM   29  C21 UNK     1      19.746  -8.825  39.300  1.00  0.00     0.001 A 
ENDBRANCH  16  19
ENDBRANCH   7  15
BRANCH   5  30
HETATM   30  C9  UNK     1      28.855  -5.844  37.908  1.00  0.00     0.296 C 
HETATM   31  O3  UNK     1      28.338  -5.631  39.014  1.00  0.00    -0.259 OA
BRANCH  30  32
HETATM   32  O2  UNK     1      29.523  -4.864  37.209  1.00  0.00    -0.322 OA
HETATM   33  C23 UNK     1      30.300  -3.938  37.976  1.00  0.00     0.213 C 
ENDBRANCH  30  32
ENDBRANCH   5  30
TORSDOF 4
ENDMDL
MODEL 3
REMARK VINA RESULT:      -8.8     19.385     23.766
REMARK  4 active torsions:
REMARK  status: ('A' for Active; 'I' for Inactive)
REMARK    1  A    between atoms: C9_18  and  O2_5 
REMARK       I    between atoms: C11_20  and  N1_9 
REMARK    2  A    between atoms: C4_13  and  N1_9 
REMARK    3  A    between atoms: C2_11  and  C9_18 
REMARK    4  A    between atoms: C10_19  and  C11_20 
ROOT
HETATM    1 Cl1  UNK     1      17.522  -7.219  11.236  1.00  0.00    -0.083 Cl
HETATM    2 Cl2  UNK     1      19.983  -8.556   6.649  1.00  0.00    -0.084 Cl
HETATM    3  S1  UNK     1      20.621  -5.483  14.440  1.00  0.00    -0.075 SA
HETATM    4  C1  UNK     1      20.181  -5.826  11.932  1.00  0.00     0.008 A 
HETATM    5  C2  UNK     1      19.852  -4.468  12.209  1.00  0.00     0.085 A 
HETATM    6  C3  UNK     1      20.613  -6.494  13.058  1.00  0.00    -0.007 A 
HETATM    7  C4  UNK     1      20.050  -4.174  13.520  1.00  0.00     0.094 A 
HETATM    8  C5  UNK     1      20.098  -6.498  10.659  1.00  0.00    -0.002 A 
HETATM    9  C6  UNK     1      21.047  -7.903  13.208  1.00  0.00     0.057 C 
HETATM   10  C7  UNK     1      18.941  -7.158  10.250  1.00  0.00     0.046 A 
HETATM   11  C8  UNK     1      21.220  -6.473   9.832  1.00  0.00     0.016 A 
HETATM   12  C15 UNK     1      18.906  -7.795   9.010  1.00  0.00     0.048 A 
HETATM   13  C16 UNK     1      21.184  -7.109   8.591  1.00  0.00     0.025 A 
HETATM   14  C18 UNK     1      20.027  -7.771   8.180  1.00  0.00     0.035 A 
ENDROOT
BRANCH   7  15
HETATM   15  N1  UNK     1      19.860  -2.978  14.221  1.00  0.00    -0.316 N 
HETATM   16  C11 UNK     1      18.833  -2.708  15.114  1.00  0.00     0.262 C 
HETATM   17  O4  UNK     1      17.908  -3.439  15.463  1.00  0.00    -0.267 OA
HETATM   18  H1  UNK     1      20.569  -2.272  14.050  1.00  0.00     0.169 HD
BRANCH  16  19
HETATM   19  C10 UNK     1      18.935  -1.354  15.670  1.00  0.00     0.108 A 
HETATM   20  C13 UNK     1      18.780  -1.246  16.996  1.00  0.00     0.037 A 
HETATM   21  C12 UNK     1      18.863   0.056  17.639  1.00  0.00    -0.001 A 
HETATM   22  C14 UNK     1      19.104   1.180  16.857  1.00  0.00     0.089 A 
HETATM   23  C19 UNK     1      18.709   0.216  19.018  1.00  0.00     0.014 A 
HETATM   24  O1  UNK     1      19.267   1.060  15.463  1.00  0.00    -0.274 OA
HETATM   25  C20 UNK     1      19.195   2.455  17.411  1.00  0.00     0.038 A 
HETATM   26  C17 UNK     1      19.192  -0.171  14.818  1.00  0.00     0.304 A 
HETATM   27  O5  UNK     1      19.334  -0.267  13.603  1.00  0.00    -0.259 OA
HETATM   28  C22 UNK     1      19.040   2.605  18.788  1.00  0.00     0.003 A 
HETATM   29  C21 UNK     1      18.798   1.488  19.590  1.00  0.00     0.001 A 
ENDBRANCH  16  19
ENDBRANCH   7  15
BRANCH   5  30
HETATM   30  C9  UNK     1      19.372  -3.506  11.247  1.00  0.00     0.296 C 
HETATM   31  O3  UNK     1      18.291  -3.608  10.650  1.00  0.00    -0.259 OA
BRANCH  30  32
HETATM   32  O2  UNK     1      20.228  -2.447  11.041  1.00  0.00    -0.322 OA
HETATM   33  C23 UNK     1      21.234  -2.614  10.037  1.00  0.00     0.213 C 
ENDBRANCH  30  32
ENDBRANCH   5  30
TORSDOF 4
ENDMDL
MODEL 4
REMARK VINA RESULT:      -8.7     17.166     21.677
REMARK  4 active torsions:
REMARK  status: ('A' for Active; 'I' for Inactive)
REMARK    1  A    between atoms: C9_18  and  O2_5 
REMARK       I    between atoms: C11_20  and  N1_9 
REMARK    2  A    between atoms: C4_13  and  N1_9 
REMARK    3  A    between atoms: C2_11  and  C9_18 
REMARK    4  A    between atoms: C10_19  and  C11_20 
ROOT
HETATM    1 Cl1  UNK     1      19.325  -4.423  11.061  1.00  0.00    -0.083 Cl
HETATM    2 Cl2  UNK     1      22.381  -8.808  10.501  1.00  0.00    -0.084 Cl
HETATM    3  S1  UNK     1      17.545  -4.087  15.488  1.00  0.00    -0.075 SA
HETATM    4  C1  UNK     1      19.461  -5.053  14.074  1.00  0.00     0.008 A 
HETATM    5  C2  UNK     1      19.981  -3.881  14.697  1.00  0.00     0.085 A 
HETATM    6  C3  UNK     1      18.146  -5.281  14.418  1.00  0.00    -0.007 A 
HETATM    7  C4  UNK     1      19.043  -3.285  15.477  1.00  0.00     0.094 A 
HETATM    8  C5  UNK     1      20.158  -5.943  13.179  1.00  0.00    -0.002 A 
HETATM    9  C6  UNK     1      17.240  -6.375  13.997  1.00  0.00     0.057 C 
HETATM   10  C7  UNK     1      20.158  -5.747  11.800  1.00  0.00     0.046 A 
HETATM   11  C8  UNK     1      20.843  -7.023  13.733  1.00  0.00     0.016 A 
HETATM   12  C15 UNK     1      20.845  -6.633  10.971  1.00  0.00     0.048 A 
HETATM   13  C16 UNK     1      21.531  -7.909  12.904  1.00  0.00     0.025 A 
HETATM   14  C18 UNK     1      21.532  -7.715  11.523  1.00  0.00     0.035 A 
ENDROOT
BRANCH   7  15
HETATM   15  N1  UNK     1      19.117  -2.129  16.262  1.00  0.00    -0.316 N 
HETATM   16  C11 UNK     1      19.120  -0.822  15.795  1.00  0.00     0.262 C 
HETATM   17  O4  UNK     1      19.062  -0.422  14.634  1.00  0.00    -0.267 OA
HETATM   18  H1  UNK     1      19.151  -2.300  17.262  1.00  0.00     0.169 HD
BRANCH  16  19
HETATM   19  C10 UNK     1      19.209   0.149  16.891  1.00  0.00     0.108 A 
HETATM   20  C13 UNK     1      19.289  -0.361  18.127  1.00  0.00     0.037 A 
HETATM   21  C12 UNK     1      19.380   0.523  19.279  1.00  0.00    -0.001 A 
HETATM   22  C14 UNK     1      19.380   1.899  19.075  1.00  0.00     0.089 A 
HETATM   23  C19 UNK     1      19.466   0.036  20.586  1.00  0.00     0.014 A 
HETATM   24  O1  UNK     1      19.295   2.428  17.772  1.00  0.00    -0.274 OA
HETATM   25  C20 UNK     1      19.464   2.799  20.135  1.00  0.00     0.038 A 
HETATM   26  C17 UNK     1      19.208   1.609  16.650  1.00  0.00     0.304 A 
HETATM   27  O5  UNK     1      19.133   2.079  15.520  1.00  0.00    -0.259 OA
HETATM   28  C22 UNK     1      19.550   2.304  21.435  1.00  0.00     0.003 A 
HETATM   29  C21 UNK     1      19.551   0.926  21.660  1.00  0.00     0.001 A 
ENDBRANCH  16  19
ENDBRANCH   7  15
BRANCH   5  30
HETATM   30  C9  UNK     1      21.321  -3.372  14.541  1.00  0.00     0.296 C 
HETATM   31  O3  UNK     1      21.601  -2.348  13.902  1.00  0.00    -0.259 OA
BRANCH  30  32
HETATM   32  O2  UNK     1      22.283  -4.128  15.173  1.00  0.00    -0.322 OA
HETATM   33  C23 UNK     1      22.967  -3.518  16.273  1.00  0.00     0.213 C 
ENDBRANCH  30  32
ENDBRANCH   5  30
TORSDOF 4
ENDMDL
MODEL 5
REMARK VINA RESULT:      -8.4     17.765     20.484
REMARK  4 active torsions:
REMARK  status: ('A' for Active; 'I' for Inactive)
REMARK    1  A    between atoms: C9_18  and  O2_5 
REMARK       I    between atoms: C11_20  and  N1_9 
REMARK    2  A    between atoms: C4_13  and  N1_9 
REMARK    3  A    between atoms: C2_11  and  C9_18 
REMARK    4  A    between atoms: C10_19  and  C11_20 
ROOT
HETATM    1 Cl1  UNK     1      29.924  -9.961  35.749  1.00  0.00    -0.083 Cl
HETATM    2 Cl2  UNK     1      34.254  -6.938  36.749  1.00  0.00    -0.084 Cl
HETATM    3  S1  UNK     1      26.908  -9.975  39.462  1.00  0.00    -0.075 SA
HETATM    4  C1  UNK     1      28.765  -8.647  38.284  1.00  0.00     0.008 A 
HETATM    5  C2  UNK     1      27.536  -8.045  37.887  1.00  0.00     0.085 A 
HETATM    6  C3  UNK     1      28.568  -9.710  39.140  1.00  0.00    -0.007 A 
HETATM    7  C4  UNK     1      26.477  -8.674  38.458  1.00  0.00     0.094 A 
HETATM    8  C5  UNK     1      30.094  -8.256  37.883  1.00  0.00    -0.002 A 
HETATM    9  C6  UNK     1      29.565 -10.600  39.779  1.00  0.00     0.057 C 
HETATM   10  C7  UNK     1      30.708  -8.792  36.753  1.00  0.00     0.046 A 
HETATM   11  C8  UNK     1      30.762  -7.314  38.664  1.00  0.00     0.016 A 
HETATM   12  C15 UNK     1      31.995  -8.384  36.402  1.00  0.00     0.048 A 
HETATM   13  C16 UNK     1      32.049  -6.906  38.313  1.00  0.00     0.025 A 
HETATM   14  C18 UNK     1      32.666  -7.442  37.182  1.00  0.00     0.035 A 
ENDROOT
BRANCH   7  15
HETATM   15  N1  UNK     1      25.105  -8.421  38.349  1.00  0.00    -0.316 N 
HETATM   16  C11 UNK     1      24.228  -9.031  37.464  1.00  0.00     0.262 C 
HETATM   17  O4  UNK     1      24.467  -9.892  36.619  1.00  0.00    -0.267 OA
HETATM   18  H1  UNK     1      24.749  -7.735  39.009  1.00  0.00     0.169 HD
BRANCH  16  19
HETATM   19  C10 UNK     1      22.858  -8.529  37.619  1.00  0.00     0.108 A 
HETATM   20  C13 UNK     1      22.167  -8.340  36.488  1.00  0.00     0.037 A 
HETATM   21  C12 UNK     1      20.801  -7.844  36.539  1.00  0.00    -0.001 A 
HETATM   22  C14 UNK     1      20.229  -7.569  37.777  1.00  0.00     0.089 A 
HETATM   23  C19 UNK     1      20.041  -7.632  35.386  1.00  0.00     0.014 A 
HETATM   24  O1  UNK     1      20.962  -7.771  38.963  1.00  0.00    -0.274 OA
HETATM   25  C20 UNK     1      18.926  -7.091  37.895  1.00  0.00     0.038 A 
HETATM   26  C17 UNK     1      22.270  -8.244  38.947  1.00  0.00     0.304 A 
HETATM   27  O5  UNK     1      22.902  -8.415  39.985  1.00  0.00    -0.259 OA
HETATM   28  C22 UNK     1      18.176  -6.884  36.739  1.00  0.00     0.003 A 
HETATM   29  C21 UNK     1      18.732  -7.153  35.487  1.00  0.00     0.001 A 
ENDBRANCH  16  19
ENDBRANCH   7  15
BRANCH   5  30
HETATM   30  C9  UNK     1      27.402  -6.915  37.001  1.00  0.00     0.296 C 
HETATM   31  O3  UNK     1      27.686  -6.946  35.795  1.00  0.00    -0.259 OA
BRANCH  30  32
HETATM   32  O2  UNK     1      26.924  -5.779  37.613  1.00  0.00    -0.322 OA
HETATM   33  C23 UNK     1      27.754  -5.187  38.618  1.00  0.00     0.213 C 
ENDBRANCH  30  32
ENDBRANCH   5  30
TORSDOF 4
ENDMDL
MODEL 6
REMARK VINA RESULT:      -8.3     19.061     20.786
REMARK  4 active torsions:
REMARK  status: ('A' for Active; 'I' for Inactive)
REMARK    1  A    between atoms: C9_18  and  O2_5 
REMARK       I    between atoms: C11_20  and  N1_9 
REMARK    2  A    between atoms: C4_13  and  N1_9 
REMARK    3  A    between atoms: C2_11  and  C9_18 
REMARK    4  A    between atoms: C10_19  and  C11_20 
ROOT
HETATM    1 Cl1  UNK     1      32.192  -8.287  38.531  1.00  0.00    -0.083 Cl
HETATM    2 Cl2  UNK     1      35.624  -7.040  34.587  1.00  0.00    -0.084 Cl
HETATM    3  S1  UNK     1      28.385  -5.392  38.515  1.00  0.00    -0.075 SA
HETATM    4  C1  UNK     1      30.252  -6.395  37.064  1.00  0.00     0.008 A 
HETATM    5  C2  UNK     1      29.084  -7.164  36.792  1.00  0.00     0.085 A 
HETATM    6  C3  UNK     1      30.013  -5.398  37.984  1.00  0.00    -0.007 A 
HETATM    7  C4  UNK     1      28.024  -6.715  37.513  1.00  0.00     0.094 A 
HETATM    8  C5  UNK     1      31.563  -6.575  36.491  1.00  0.00    -0.002 A 
HETATM    9  C6  UNK     1      30.942  -4.387  38.540  1.00  0.00     0.057 C 
HETATM   10  C7  UNK     1      32.514  -7.408  37.077  1.00  0.00     0.046 A 
HETATM   11  C8  UNK     1      31.865  -5.884  35.318  1.00  0.00     0.016 A 
HETATM   12  C15 UNK     1      33.770  -7.552  36.489  1.00  0.00     0.048 A 
HETATM   13  C16 UNK     1      33.121  -6.029  34.729  1.00  0.00     0.025 A 
HETATM   14  C18 UNK     1      34.074  -6.862  35.314  1.00  0.00     0.035 A 
ENDROOT
BRANCH   7  15
HETATM   15  N1  UNK     1      26.701  -7.167  37.558  1.00  0.00    -0.316 N 
HETATM   16  C11 UNK     1      26.155  -8.006  38.518  1.00  0.00     0.262 C 
HETATM   17  O4  UNK     1      26.703  -8.511  39.496  1.00  0.00    -0.267 OA
HETATM   18  H1  UNK     1      26.109  -6.811  36.813  1.00  0.00     0.169 HD
BRANCH  16  19
HETATM   19  C10 UNK     1      24.736  -8.279  38.262  1.00  0.00     0.108 A 
HETATM   20  C13 UNK     1      23.859  -7.618  39.028  1.00  0.00     0.037 A 
HETATM   21  C12 UNK     1      22.431  -7.822  38.849  1.00  0.00    -0.001 A 
HETATM   22  C14 UNK     1      21.994  -8.714  37.874  1.00  0.00     0.089 A 
HETATM   23  C19 UNK     1      21.480  -7.153  39.624  1.00  0.00     0.014 A 
HETATM   24  O1  UNK     1      22.922  -9.407  37.072  1.00  0.00    -0.274 OA
HETATM   25  C20 UNK     1      20.640  -8.956  37.653  1.00  0.00     0.038 A 
HETATM   26  C17 UNK     1      24.295  -9.232  37.219  1.00  0.00     0.304 A 
HETATM   27  O5  UNK     1      25.096  -9.841  36.517  1.00  0.00    -0.259 OA
HETATM   28  C22 UNK     1      19.699  -8.284  38.431  1.00  0.00     0.003 A 
HETATM   29  C21 UNK     1      20.117  -7.385  39.413  1.00  0.00     0.001 A 
ENDBRANCH  16  19
ENDBRANCH   7  15
BRANCH   5  30
HETATM   30  C9  UNK     1      29.004  -8.276  35.877  1.00  0.00     0.296 C 
HETATM   31  O3  UNK     1      29.630  -9.336  36.022  1.00  0.00    -0.259 OA
BRANCH  30  32
HETATM   32  O2  UNK     1      28.161  -8.062  34.809  1.00  0.00    -0.322 OA
HETATM   33  C23 UNK     1      28.457  -6.943  33.966  1.00  0.00     0.213 C 
ENDBRANCH  30  32
ENDBRANCH   5  30
TORSDOF 4
ENDMDL
MODEL 7
REMARK VINA RESULT:      -8.1     18.155     20.526
REMARK  4 active torsions:
REMARK  status: ('A' for Active; 'I' for Inactive)
REMARK    1  A    between atoms: C9_18  and  O2_5 
REMARK       I    between atoms: C11_20  and  N1_9 
REMARK    2  A    between atoms: C4_13  and  N1_9 
REMARK    3  A    between atoms: C2_11  and  C9_18 
REMARK    4  A    between atoms: C10_19  and  C11_20 
ROOT
HETATM    1 Cl1  UNK     1      31.398 -10.029  37.356  1.00  0.00    -0.083 Cl
HETATM    2 Cl2  UNK     1      34.370  -8.979  33.003  1.00  0.00    -0.084 Cl
HETATM    3  S1  UNK     1      29.110  -6.120  38.894  1.00  0.00    -0.075 SA
HETATM    4  C1  UNK     1      30.167  -7.251  36.844  1.00  0.00     0.008 A 
HETATM    5  C2  UNK     1      28.762  -7.458  36.729  1.00  0.00     0.085 A 
HETATM    6  C3  UNK     1      30.494  -6.537  37.976  1.00  0.00    -0.007 A 
HETATM    7  C4  UNK     1      28.097  -6.895  37.771  1.00  0.00     0.094 A 
HETATM    8  C5  UNK     1      31.189  -7.701  35.932  1.00  0.00    -0.002 A 
HETATM    9  C6  UNK     1      31.825  -6.110  38.468  1.00  0.00     0.057 C 
HETATM   10  C7  UNK     1      31.808  -8.941  36.076  1.00  0.00     0.046 A 
HETATM   11  C8  UNK     1      31.550  -6.855  34.884  1.00  0.00     0.016 A 
HETATM   12  C15 UNK     1      32.793  -9.336  35.170  1.00  0.00     0.048 A 
HETATM   13  C16 UNK     1      32.534  -7.250  33.978  1.00  0.00     0.025 A 
HETATM   14  C18 UNK     1      33.156  -8.491  34.121  1.00  0.00     0.035 A 
ENDROOT
BRANCH   7  15
HETATM   15  N1  UNK     1      26.729  -6.855  38.060  1.00  0.00    -0.316 N 
HETATM   16  C11 UNK     1      26.011  -7.819  38.753  1.00  0.00     0.262 C 
HETATM   17  O4  UNK     1      26.414  -8.874  39.240  1.00  0.00    -0.267 OA
HETATM   18  H1  UNK     1      26.254  -6.020  37.734  1.00  0.00     0.169 HD
BRANCH  16  19
HETATM   19  C10 UNK     1      24.594  -7.460  38.877  1.00  0.00     0.108 A 
HETATM   20  C13 UNK     1      23.721  -8.475  38.836  1.00  0.00     0.037 A 
HETATM   21  C12 UNK     1      22.294  -8.219  38.950  1.00  0.00    -0.001 A 
HETATM   22  C14 UNK     1      21.854  -6.908  39.101  1.00  0.00     0.089 A 
HETATM   23  C19 UNK     1      21.348  -9.246  38.913  1.00  0.00     0.014 A 
HETATM   24  O1  UNK     1      22.778  -5.844  39.143  1.00  0.00    -0.274 OA
HETATM   25  C20 UNK     1      20.502  -6.595  39.215  1.00  0.00     0.038 A 
HETATM   26  C17 UNK     1      24.149  -6.057  39.037  1.00  0.00     0.304 A 
HETATM   27  O5  UNK     1      24.946  -5.126  39.074  1.00  0.00    -0.259 OA
HETATM   28  C22 UNK     1      19.565  -7.625  39.177  1.00  0.00     0.003 A 
HETATM   29  C21 UNK     1      19.987  -8.948  39.027  1.00  0.00     0.001 A 
ENDBRANCH  16  19
ENDBRANCH   7  15
BRANCH   5  30
HETATM   30  C9  UNK     1      28.102  -8.167  35.660  1.00  0.00     0.296 C 
HETATM   31  O3  UNK     1      27.504  -9.242  35.810  1.00  0.00    -0.259 OA
BRANCH  30  32
HETATM   32  O2  UNK     1      28.190  -7.539  34.437  1.00  0.00    -0.322 OA
HETATM   33  C23 UNK     1      28.593  -8.345  33.325  1.00  0.00     0.213 C 
ENDBRANCH  30  32
ENDBRANCH   5  30
TORSDOF 4
ENDMDL
MODEL 8
REMARK VINA RESULT:      -8.0     22.795     25.080
REMARK  4 active torsions:
REMARK  status: ('A' for Active; 'I' for Inactive)
REMARK    1  A    between atoms: C9_18  and  O2_5 
REMARK       I    between atoms: C11_20  and  N1_9 
REMARK    2  A    between atoms: C4_13  and  N1_9 
REMARK    3  A    between atoms: C2_11  and  C9_18 
REMARK    4  A    between atoms: C10_19  and  C11_20 
ROOT
HETATM    1 Cl1  UNK     1      17.685  13.026  11.751  1.00  0.00    -0.083 Cl
HETATM    2 Cl2  UNK     1      22.968  12.625  10.850  1.00  0.00    -0.084 Cl
HETATM    3  S1  UNK     1      15.168  12.267   7.755  1.00  0.00    -0.075 SA
HETATM    4  C1  UNK     1      17.394  11.787   8.945  1.00  0.00     0.008 A 
HETATM    5  C2  UNK     1      16.596  10.619   9.112  1.00  0.00     0.085 A 
HETATM    6  C3  UNK     1      16.738  12.762   8.225  1.00  0.00    -0.007 A 
HETATM    7  C4  UNK     1      15.385  10.763   8.515  1.00  0.00     0.094 A 
HETATM    8  C5  UNK     1      18.732  12.004   9.438  1.00  0.00    -0.002 A 
HETATM    9  C6  UNK     1      17.202  14.114   7.831  1.00  0.00     0.057 C 
HETATM   10  C7  UNK     1      18.971  12.559  10.693  1.00  0.00     0.046 A 
HETATM   11  C8  UNK     1      19.799  11.641   8.617  1.00  0.00     0.016 A 
HETATM   12  C15 UNK     1      20.282  12.752  11.130  1.00  0.00     0.048 A 
HETATM   13  C16 UNK     1      21.109  11.833   9.054  1.00  0.00     0.025 A 
HETATM   14  C18 UNK     1      21.351  12.389  10.311  1.00  0.00     0.035 A 
ENDROOT
BRANCH   7  15
HETATM   15  N1  UNK     1      14.304   9.879   8.431  1.00  0.00    -0.316 N 
HETATM   16  C11 UNK     1      13.372   9.630   9.428  1.00  0.00     0.262 C 
HETATM   17  O4  UNK     1      13.306  10.116  10.555  1.00  0.00    -0.267 OA
HETATM   18  H1  UNK     1      14.213   9.409   7.535  1.00  0.00     0.169 HD
BRANCH  16  19
HETATM   19  C10 UNK     1      12.370   8.645   9.004  1.00  0.00     0.108 A 
HETATM   20  C13 UNK     1      11.100   8.917   9.329  1.00  0.00     0.037 A 
HETATM   21  C12 UNK     1      10.035   8.000   8.953  1.00  0.00    -0.001 A 
HETATM   22  C14 UNK     1      10.358   6.842   8.254  1.00  0.00     0.089 A 
HETATM   23  C19 UNK     1       8.696   8.244   9.270  1.00  0.00     0.014 A 
HETATM   24  O1  UNK     1      11.697   6.562   7.915  1.00  0.00    -0.274 OA
HETATM   25  C20 UNK     1       9.387   5.923   7.865  1.00  0.00     0.038 A 
HETATM   26  C17 UNK     1      12.738   7.419   8.261  1.00  0.00     0.304 A 
HETATM   27  O5  UNK     1      13.900   7.166   7.963  1.00  0.00    -0.259 OA
HETATM   28  C22 UNK     1       8.054   6.174   8.185  1.00  0.00     0.003 A 
HETATM   29  C21 UNK     1       7.709   7.331   8.886  1.00  0.00     0.001 A 
ENDBRANCH  16  19
ENDBRANCH   7  15
BRANCH   5  30
HETATM   30  C9  UNK     1      16.995   9.423   9.815  1.00  0.00     0.296 C 
HETATM   31  O3  UNK     1      17.815   8.605   9.376  1.00  0.00    -0.259 OA
BRANCH  30  32
HETATM   32  O2  UNK     1      16.379   9.263  11.036  1.00  0.00    -0.322 OA
HETATM   33  C23 UNK     1      15.984   7.933  11.391  1.00  0.00     0.213 C 
ENDBRANCH  30  32
ENDBRANCH   5  30
TORSDOF 4
ENDMDL
MODEL 9
REMARK VINA RESULT:      -8.0     23.437     26.213
REMARK  4 active torsions:
REMARK  status: ('A' for Active; 'I' for Inactive)
REMARK    1  A    between atoms: C9_18  and  O2_5 
REMARK       I    between atoms: C11_20  and  N1_9 
REMARK    2  A    between atoms: C4_13  and  N1_9 
REMARK    3  A    between atoms: C2_11  and  C9_18 
REMARK    4  A    between atoms: C10_19  and  C11_20 
ROOT
HETATM    1 Cl1  UNK     1      18.927  15.170   9.595  1.00  0.00    -0.083 Cl
HETATM    2 Cl2  UNK     1      23.187  16.190   6.480  1.00  0.00    -0.084 Cl
HETATM    3  S1  UNK     1      15.410  13.081   7.116  1.00  0.00    -0.075 SA
HETATM    4  C1  UNK     1      17.947  13.469   7.220  1.00  0.00     0.008 A 
HETATM    5  C2  UNK     1      17.725  12.160   7.740  1.00  0.00     0.085 A 
HETATM    6  C3  UNK     1      16.772  14.082   6.844  1.00  0.00    -0.007 A 
HETATM    7  C4  UNK     1      16.404  11.848   7.730  1.00  0.00     0.094 A 
HETATM    8  C5  UNK     1      19.214  14.142   7.075  1.00  0.00    -0.002 A 
HETATM    9  C6  UNK     1      16.557  15.429   6.265  1.00  0.00     0.057 C 
HETATM   10  C7  UNK     1      19.745  14.936   8.090  1.00  0.00     0.046 A 
HETATM   11  C8  UNK     1      19.908  13.980   5.877  1.00  0.00     0.016 A 
HETATM   12  C15 UNK     1      20.974  15.570   7.905  1.00  0.00     0.048 A 
HETATM   13  C16 UNK     1      21.137  14.613   5.693  1.00  0.00     0.025 A 
HETATM   14  C18 UNK     1      21.670  15.409   6.707  1.00  0.00     0.035 A 
ENDROOT
BRANCH   7  15
HETATM   15  N1  UNK     1      15.743  10.686   8.142  1.00  0.00    -0.316 N 
HETATM   16  C11 UNK     1      15.088  10.502   9.351  1.00  0.00     0.262 C 
HETATM   17  O4  UNK     1      14.957  11.296  10.281  1.00  0.00    -0.267 OA
HETATM   18  H1  UNK     1      15.748   9.934   7.460  1.00  0.00     0.169 HD
BRANCH  16  19
HETATM   19  C10 UNK     1      14.504   9.160   9.457  1.00  0.00     0.108 A 
HETATM   20  C13 UNK     1      13.883   8.698   8.364  1.00  0.00     0.037 A 
HETATM   21  C12 UNK     1      13.273   7.378   8.372  1.00  0.00    -0.001 A 
HETATM   22  C14 UNK     1      13.343   6.609   9.530  1.00  0.00     0.089 A 
HETATM   23  C19 UNK     1      12.616   6.854   7.256  1.00  0.00     0.014 A 
HETATM   24  O1  UNK     1      13.997   7.102  10.676  1.00  0.00    -0.274 OA
HETATM   25  C20 UNK     1      12.777   5.338   9.603  1.00  0.00     0.038 A 
HETATM   26  C17 UNK     1      14.591   8.360  10.700  1.00  0.00     0.304 A 
HETATM   27  O5  UNK     1      15.158   8.782  11.703  1.00  0.00    -0.259 OA
HETATM   28  C22 UNK     1      12.125   4.824   8.485  1.00  0.00     0.003 A 
HETATM   29  C21 UNK     1      12.044   5.580   7.313  1.00  0.00     0.001 A 
ENDBRANCH  16  19
ENDBRANCH   7  15
BRANCH   5  30
HETATM   30  C9  UNK     1      18.748  11.262   8.217  1.00  0.00     0.296 C 
HETATM   31  O3  UNK     1      19.586  10.718   7.485  1.00  0.00    -0.259 OA
BRANCH  30  32
HETATM   32  O2  UNK     1      18.717  11.054   9.578  1.00  0.00    -0.322 OA
HETATM   33  C23 UNK     1      19.678  11.768  10.363  1.00  0.00     0.213 C 
ENDBRANCH  30  32
ENDBRANCH   5  30
TORSDOF 4
ENDMDL
MODEL 10
REMARK VINA RESULT:      -7.9     23.915     26.144
REMARK  4 active torsions:
REMARK  status: ('A' for Active; 'I' for Inactive)
REMARK    1  A    between atoms: C9_18  and  O2_5 
REMARK       I    between atoms: C11_20  and  N1_9 
REMARK    2  A    between atoms: C4_13  and  N1_9 
REMARK    3  A    between atoms: C2_11  and  C9_18 
REMARK    4  A    between atoms: C10_19  and  C11_20 
ROOT
HETATM    1 Cl1  UNK     1      22.035  13.290   6.404  1.00  0.00    -0.083 Cl
HETATM    2 Cl2  UNK     1      21.027  18.472   5.399  1.00  0.00    -0.084 Cl
HETATM    3  S1  UNK     1      19.774  11.803  10.349  1.00  0.00    -0.075 SA
HETATM    4  C1  UNK     1      19.737  13.525   8.442  1.00  0.00     0.008 A 
HETATM    5  C2  UNK     1      18.791  12.520   8.086  1.00  0.00     0.085 A 
HETATM    6  C3  UNK     1      20.344  13.259   9.650  1.00  0.00    -0.007 A 
HETATM    7  C4  UNK     1      18.728  11.550   9.034  1.00  0.00     0.094 A 
HETATM    8  C5  UNK     1      20.076  14.706   7.687  1.00  0.00    -0.002 A 
HETATM    9  C6  UNK     1      21.375  14.036  10.377  1.00  0.00     0.057 C 
HETATM   10  C7  UNK     1      21.099  14.704   6.742  1.00  0.00     0.046 A 
HETATM   11  C8  UNK     1      19.346  15.869   7.928  1.00  0.00     0.016 A 
HETATM   12  C15 UNK     1      21.394  15.870   6.034  1.00  0.00     0.048 A 
HETATM   13  C16 UNK     1      19.640  17.034   7.219  1.00  0.00     0.025 A 
HETATM   14  C18 UNK     1      20.664  17.035   6.273  1.00  0.00     0.035 A 
ENDROOT
BRANCH   7  15
HETATM   15  N1  UNK     1      17.947  10.391   9.095  1.00  0.00    -0.316 N 
HETATM   16  C11 UNK     1      16.827  10.200   9.891  1.00  0.00     0.262 C 
HETATM   17  O4  UNK     1      16.306  10.983  10.682  1.00  0.00    -0.267 OA
HETATM   18  H1  UNK     1      18.246   9.647   8.471  1.00  0.00     0.169 HD
BRANCH  16  19
HETATM   19  C10 UNK     1      16.248   8.864   9.708  1.00  0.00     0.108 A 
HETATM   20  C13 UNK     1      15.001   8.822   9.221  1.00  0.00     0.037 A 
HETATM   21  C12 UNK     1      14.342   7.544   9.004  1.00  0.00    -0.001 A 
HETATM   22  C14 UNK     1      15.026   6.372   9.312  1.00  0.00     0.089 A 
HETATM   23  C19 UNK     1      13.044   7.452   8.497  1.00  0.00     0.014 A 
HETATM   24  O1  UNK     1      16.337   6.423   9.825  1.00  0.00    -0.274 OA
HETATM   25  C20 UNK     1      14.451   5.117   9.130  1.00  0.00     0.038 A 
HETATM   26  C17 UNK     1      16.995   7.631  10.042  1.00  0.00     0.304 A 
HETATM   27  O5  UNK     1      18.136   7.666  10.490  1.00  0.00    -0.259 OA
HETATM   28  C22 UNK     1      13.156   5.035   8.623  1.00  0.00     0.003 A 
HETATM   29  C21 UNK     1      12.453   6.199   8.308  1.00  0.00     0.001 A 
ENDBRANCH  16  19
ENDBRANCH   7  15
BRANCH   5  30
HETATM   30  C9  UNK     1      17.990  12.508   6.886  1.00  0.00     0.296 C 
HETATM   31  O3  UNK     1      18.463  12.513   5.741  1.00  0.00    -0.259 OA
BRANCH  30  32
HETATM   32  O2  UNK     1      16.634  12.489   7.121  1.00  0.00    -0.322 OA
HETATM   33  C23 UNK     1      16.049  13.692   7.634  1.00  0.00     0.213 C 
ENDBRANCH  30  32
ENDBRANCH   5  30
TORSDOF 4
ENDMDL
