MODEL 1
REMARK VINA RESULT:      -9.1      0.000      0.000
REMARK  2 active torsions:
REMARK  status: ('A' for Active; 'I' for Inactive)
REMARK    1  A    between atoms: C11_16  and  O3_3 
REMARK    2  A    between atoms: C2_7  and  C5_10 
ROOT
HETATM    1  O2  UNK     1      17.168  -3.903  15.533  1.00  0.00    -0.274 OA
HETATM    2  O4  UNK     1      16.294  -2.092  16.612  1.00  0.00    -0.259 OA
HETATM    3  C1  UNK     1      19.572  -4.109  15.260  1.00  0.00     0.002 A 
HETATM    4  C2  UNK     1      18.664  -2.159  16.392  1.00  0.00     0.093 A 
HETATM    5  C3  UNK     1      18.291  -4.613  15.068  1.00  0.00     0.089 A 
HETATM    6  C4  UNK     1      19.732  -2.837  15.946  1.00  0.00     0.036 A 
HETATM    7  C8  UNK     1      20.664  -4.842  14.787  1.00  0.00     0.051 A 
HETATM    8  C9  UNK     1      17.285  -2.687  16.201  1.00  0.00     0.303 A 
HETATM    9  C10 UNK     1      18.069  -5.825  14.417  1.00  0.00     0.041 A 
HETATM   10  C11 UNK     1      20.456  -6.059  14.132  1.00  0.00     0.069 A 
HETATM   11  C12 UNK     1      19.162  -6.550  13.948  1.00  0.00     0.039 A 
ENDROOT
BRANCH   4  12
HETATM   12  C5  UNK     1      18.855  -0.907  17.055  1.00  0.00     0.187 A 
HETATM   13  O1  UNK     1      18.934  -0.843  18.420  1.00  0.00    -0.289 OA
HETATM   14  C6  UNK     1      19.114   0.486  18.678  1.00  0.00     0.106 A 
HETATM   15  C13 UNK     1      19.253   1.094  19.920  1.00  0.00     0.040 A 
HETATM   16  C7  UNK     1      19.132   1.155  17.463  1.00  0.00     0.093 A 
HETATM   17  C15 UNK     1      19.425   2.483  19.897  1.00  0.00     0.003 A 
HETATM   18  C16 UNK     1      19.450   3.197  18.693  1.00  0.00     0.002 A 
HETATM   19  C14 UNK     1      19.305   2.546  17.459  1.00  0.00     0.034 A 
HETATM   20  N1  UNK     1      18.967   0.255  16.438  1.00  0.00    -0.221 NA
ENDBRANCH   4  12
BRANCH  10  21
HETATM   21  O3  UNK     1      21.523  -6.770  13.670  1.00  0.00    -0.356 OA
HETATM   22  C17 UNK     1      21.242  -7.978  12.965  1.00  0.00     0.210 C 
ENDBRANCH  10  21
TORSDOF 2
ENDMDL
MODEL 2
REMARK VINA RESULT:      -9.0      2.004      7.753
REMARK  2 active torsions:
REMARK  status: ('A' for Active; 'I' for Inactive)
REMARK    1  A    between atoms: C11_16  and  O3_3 
REMARK    2  A    between atoms: C2_7  and  C5_10 
ROOT
HETATM    1  O2  UNK     1      19.321   1.182  15.575  1.00  0.00    -0.274 OA
HETATM    2  O4  UNK     1      19.434  -0.324  13.863  1.00  0.00    -0.259 OA
HETATM    3  C1  UNK     1      18.925   0.411  17.843  1.00  0.00     0.002 A 
HETATM    4  C2  UNK     1      19.017  -1.209  16.034  1.00  0.00     0.093 A 
HETATM    5  C3  UNK     1      19.155   1.448  16.947  1.00  0.00     0.089 A 
HETATM    6  C4  UNK     1      18.857  -0.952  17.340  1.00  0.00     0.036 A 
HETATM    7  C8  UNK     1      18.767   0.713  19.199  1.00  0.00     0.051 A 
HETATM    8  C9  UNK     1      19.271  -0.112  15.061  1.00  0.00     0.303 A 
HETATM    9  C10 UNK     1      19.229   2.775  17.363  1.00  0.00     0.041 A 
HETATM   10  C11 UNK     1      18.839   2.040  19.631  1.00  0.00     0.069 A 
HETATM   11  C12 UNK     1      19.070   3.069  18.715  1.00  0.00     0.039 A 
ENDROOT
BRANCH   4  12
HETATM   12  C5  UNK     1      18.936  -2.560  15.570  1.00  0.00     0.187 A 
HETATM   13  O1  UNK     1      20.070  -3.265  15.269  1.00  0.00    -0.289 OA
HETATM   14  C6  UNK     1      19.603  -4.484  14.870  1.00  0.00     0.106 A 
HETATM   15  C13 UNK     1      20.350  -5.579  14.452  1.00  0.00     0.040 A 
HETATM   16  C7  UNK     1      18.219  -4.455  14.949  1.00  0.00     0.093 A 
HETATM   17  C15 UNK     1      19.612  -6.714  14.095  1.00  0.00     0.003 A 
HETATM   18  C16 UNK     1      18.213  -6.727  14.161  1.00  0.00     0.002 A 
HETATM   19  C14 UNK     1      17.495  -5.600  14.588  1.00  0.00     0.034 A 
HETATM   20  N1  UNK     1      17.807  -3.223  15.397  1.00  0.00    -0.221 NA
ENDBRANCH   4  12
BRANCH  10  21
HETATM   21  O3  UNK     1      18.682   2.331  20.953  1.00  0.00    -0.356 OA
HETATM   22  C17 UNK     1      19.783   2.048  21.815  1.00  0.00     0.210 C 
ENDBRANCH  10  21
TORSDOF 2
ENDMDL
MODEL 3
REMARK VINA RESULT:      -8.8     13.289     15.777
REMARK  2 active torsions:
REMARK  status: ('A' for Active; 'I' for Inactive)
REMARK    1  A    between atoms: C11_16  and  O3_3 
REMARK    2  A    between atoms: C2_7  and  C5_10 
ROOT
HETATM    1  O2  UNK     1      18.893   1.636  28.573  1.00  0.00    -0.274 OA
HETATM    2  O4  UNK     1      18.145   3.792  28.587  1.00  0.00    -0.259 OA
HETATM    3  C1  UNK     1      19.549   0.567  30.653  1.00  0.00     0.002 A 
HETATM    4  C2  UNK     1      18.778   2.871  30.689  1.00  0.00     0.093 A 
HETATM    5  C3  UNK     1      19.372   0.513  29.275  1.00  0.00     0.089 A 
HETATM    6  C4  UNK     1      19.236   1.801  31.355  1.00  0.00     0.036 A 
HETATM    7  C8  UNK     1      20.024  -0.568  31.316  1.00  0.00     0.051 A 
HETATM    8  C9  UNK     1      18.575   2.830  29.215  1.00  0.00     0.303 A 
HETATM    9  C10 UNK     1      19.655  -0.637  28.542  1.00  0.00     0.041 A 
HETATM   10  C11 UNK     1      20.313  -1.730  30.594  1.00  0.00     0.069 A 
HETATM   11  C12 UNK     1      20.128  -1.764  29.210  1.00  0.00     0.039 A 
ENDROOT
BRANCH   4  12
HETATM   12  C5  UNK     1      18.487   4.073  31.409  1.00  0.00     0.187 A 
HETATM   13  O1  UNK     1      19.467   4.997  31.653  1.00  0.00    -0.289 OA
HETATM   14  C6  UNK     1      18.825   5.982  32.348  1.00  0.00     0.106 A 
HETATM   15  C13 UNK     1      19.370   7.160  32.841  1.00  0.00     0.040 A 
HETATM   16  C7  UNK     1      17.497   5.604  32.490  1.00  0.00     0.093 A 
HETATM   17  C15 UNK     1      18.481   8.000  33.523  1.00  0.00     0.003 A 
HETATM   18  C16 UNK     1      17.133   7.657  33.688  1.00  0.00     0.002 A 
HETATM   19  C14 UNK     1      16.620   6.457  33.175  1.00  0.00     0.034 A 
HETATM   20  N1  UNK     1      17.296   4.386  31.887  1.00  0.00    -0.221 NA
ENDBRANCH   4  12
BRANCH  10  21
HETATM   21  O3  UNK     1      20.778  -2.833  31.245  1.00  0.00    -0.356 OA
HETATM   22  C17 UNK     1      21.014  -2.707  32.646  1.00  0.00     0.210 C 
ENDBRANCH  10  21
TORSDOF 2
ENDMDL
MODEL 4
REMARK VINA RESULT:      -8.3      2.059      2.654
REMARK  2 active torsions:
REMARK  status: ('A' for Active; 'I' for Inactive)
REMARK    1  A    between atoms: C11_16  and  O3_3 
REMARK    2  A    between atoms: C2_7  and  C5_10 
ROOT
HETATM    1  O2  UNK     1      19.427  -2.710  13.212  1.00  0.00    -0.274 OA
HETATM    2  O4  UNK     1      19.949  -0.581  13.847  1.00  0.00    -0.259 OA
HETATM    3  C1  UNK     1      18.256  -4.181  14.749  1.00  0.00     0.002 A 
HETATM    4  C2  UNK     1      18.824  -1.926  15.457  1.00  0.00     0.093 A 
HETATM    5  C3  UNK     1      18.839  -3.955  13.508  1.00  0.00     0.089 A 
HETATM    6  C4  UNK     1      18.267  -3.114  15.737  1.00  0.00     0.036 A 
HETATM    7  C8  UNK     1      17.682  -5.429  15.007  1.00  0.00     0.051 A 
HETATM    8  C9  UNK     1      19.446  -1.663  14.131  1.00  0.00     0.303 A 
HETATM    9  C10 UNK     1      18.865  -4.935  12.519  1.00  0.00     0.041 A 
HETATM   10  C11 UNK     1      17.700  -6.423  14.024  1.00  0.00     0.069 A 
HETATM   11  C12 UNK     1      18.290  -6.176  12.782  1.00  0.00     0.039 A 
ENDROOT
BRANCH   4  12
HETATM   12  C5  UNK     1      18.824  -0.900  16.454  1.00  0.00     0.187 A 
HETATM   13  O1  UNK     1      19.084   0.401  16.118  1.00  0.00    -0.289 OA
HETATM   14  C6  UNK     1      18.997   1.071  17.305  1.00  0.00     0.106 A 
HETATM   15  C13 UNK     1      19.178   2.431  17.522  1.00  0.00     0.040 A 
HETATM   16  C7  UNK     1      18.693   0.146  18.292  1.00  0.00     0.093 A 
HETATM   17  C15 UNK     1      19.031   2.857  18.847  1.00  0.00     0.003 A 
HETATM   18  C16 UNK     1      18.723   1.957  19.875  1.00  0.00     0.002 A 
HETATM   19  C14 UNK     1      18.549   0.590  19.615  1.00  0.00     0.034 A 
HETATM   20  N1  UNK     1      18.585  -1.106  17.736  1.00  0.00    -0.221 NA
ENDBRANCH   4  12
BRANCH  10  21
HETATM   21  O3  UNK     1      17.140  -7.638  14.280  1.00  0.00    -0.356 OA
HETATM   22  C17 UNK     1      16.778  -8.435  13.153  1.00  0.00     0.210 C 
ENDBRANCH  10  21
TORSDOF 2
ENDMDL
MODEL 5
REMARK VINA RESULT:      -8.1     16.953     19.993
REMARK  2 active torsions:
REMARK  status: ('A' for Active; 'I' for Inactive)
REMARK    1  A    between atoms: C11_16  and  O3_3 
REMARK    2  A    between atoms: C2_7  and  C5_10 
ROOT
HETATM    1  O2  UNK     1      18.642  -1.122  35.330  1.00  0.00    -0.274 OA
HETATM    2  O4  UNK     1      18.555  -2.061  37.408  1.00  0.00    -0.259 OA
HETATM    3  C1  UNK     1      19.938  -2.185  33.572  1.00  0.00     0.002 A 
HETATM    4  C2  UNK     1      19.880  -3.191  35.784  1.00  0.00     0.093 A 
HETATM    5  C3  UNK     1      19.106  -1.157  34.001  1.00  0.00     0.089 A 
HETATM    6  C4  UNK     1      20.323  -3.220  34.518  1.00  0.00     0.036 A 
HETATM    7  C8  UNK     1      20.377  -2.188  32.245  1.00  0.00     0.051 A 
HETATM    8  C9  UNK     1      18.983  -2.102  36.259  1.00  0.00     0.303 A 
HETATM    9  C10 UNK     1      18.702  -0.134  33.146  1.00  0.00     0.041 A 
HETATM   10  C11 UNK     1      19.981  -1.168  31.376  1.00  0.00     0.069 A 
HETATM   11  C12 UNK     1      19.145  -0.143  31.826  1.00  0.00     0.039 A 
ENDROOT
BRANCH   4  12
HETATM   12  C5  UNK     1      20.284  -4.220  36.691  1.00  0.00     0.187 A 
HETATM   13  O1  UNK     1      19.404  -5.195  37.079  1.00  0.00    -0.289 OA
HETATM   14  C6  UNK     1      20.133  -5.978  37.928  1.00  0.00     0.106 A 
HETATM   15  C13 UNK     1      19.708  -7.114  38.605  1.00  0.00     0.040 A 
HETATM   16  C7  UNK     1      21.409  -5.439  38.011  1.00  0.00     0.093 A 
HETATM   17  C15 UNK     1      20.667  -7.730  39.417  1.00  0.00     0.003 A 
HETATM   18  C16 UNK     1      21.966  -7.219  39.529  1.00  0.00     0.002 A 
HETATM   19  C14 UNK     1      22.358  -6.069  38.829  1.00  0.00     0.034 A 
HETATM   20  N1  UNK     1      21.491  -4.320  37.218  1.00  0.00    -0.221 NA
ENDBRANCH   4  12
BRANCH  10  21
HETATM   21  O3  UNK     1      20.413  -1.173  30.084  1.00  0.00    -0.356 OA
HETATM   22  C17 UNK     1      20.233   0.028  29.335  1.00  0.00     0.210 C 
ENDBRANCH  10  21
TORSDOF 2
ENDMDL
MODEL 6
REMARK VINA RESULT:      -8.0     13.207     14.964
REMARK  2 active torsions:
REMARK  status: ('A' for Active; 'I' for Inactive)
REMARK    1  A    between atoms: C11_16  and  O3_3 
REMARK    2  A    between atoms: C2_7  and  C5_10 
ROOT
HETATM    1  O2  UNK     1       9.867   6.744   7.280  1.00  0.00    -0.274 OA
HETATM    2  O4  UNK     1       7.627   6.559   7.675  1.00  0.00    -0.259 OA
HETATM    3  C1  UNK     1      11.449   5.553   8.687  1.00  0.00     0.002 A 
HETATM    4  C2  UNK     1       9.069   5.360   9.143  1.00  0.00     0.093 A 
HETATM    5  C3  UNK     1      11.191   6.399   7.615  1.00  0.00     0.089 A 
HETATM    6  C4  UNK     1      10.331   5.035   9.460  1.00  0.00     0.036 A 
HETATM    7  C8  UNK     1      12.775   5.232   8.988  1.00  0.00     0.051 A 
HETATM    8  C9  UNK     1       8.774   6.258   7.993  1.00  0.00     0.303 A 
HETATM    9  C10 UNK     1      12.216   6.932   6.836  1.00  0.00     0.041 A 
HETATM   10  C11 UNK     1      13.815   5.759   8.216  1.00  0.00     0.069 A 
HETATM   11  C12 UNK     1      13.535   6.607   7.142  1.00  0.00     0.039 A 
ENDROOT
BRANCH   4  12
HETATM   12  C5  UNK     1       7.993   4.839   9.927  1.00  0.00     0.187 A 
HETATM   13  O1  UNK     1       7.610   5.456  11.087  1.00  0.00    -0.289 OA
HETATM   14  C6  UNK     1       6.579   4.687  11.545  1.00  0.00     0.106 A 
HETATM   15  C13 UNK     1       5.831   4.878  12.700  1.00  0.00     0.040 A 
HETATM   16  C7  UNK     1       6.392   3.649  10.644  1.00  0.00     0.093 A 
HETATM   17  C15 UNK     1       4.825   3.933  12.933  1.00  0.00     0.003 A 
HETATM   18  C16 UNK     1       4.602   2.870  12.049  1.00  0.00     0.002 A 
HETATM   19  C14 UNK     1       5.380   2.711  10.892  1.00  0.00     0.034 A 
HETATM   20  N1  UNK     1       7.300   3.758   9.618  1.00  0.00    -0.221 NA
ENDBRANCH   4  12
BRANCH  10  21
HETATM   21  O3  UNK     1      15.106   5.444   8.515  1.00  0.00    -0.356 OA
HETATM   22  C17 UNK     1      15.346   4.818   9.774  1.00  0.00     0.210 C 
ENDBRANCH  10  21
TORSDOF 2
ENDMDL
MODEL 7
REMARK VINA RESULT:      -8.0     17.265     19.086
REMARK  2 active torsions:
REMARK  status: ('A' for Active; 'I' for Inactive)
REMARK    1  A    between atoms: C11_16  and  O3_3 
REMARK    2  A    between atoms: C2_7  and  C5_10 
ROOT
HETATM    1  O2  UNK     1      18.293   1.885  32.290  1.00  0.00    -0.274 OA
HETATM    2  O4  UNK     1      18.191   3.925  31.272  1.00  0.00    -0.259 OA
HETATM    3  C1  UNK     1      18.437   1.744  34.710  1.00  0.00     0.002 A 
HETATM    4  C2  UNK     1      18.354   3.928  33.647  1.00  0.00     0.093 A 
HETATM    5  C3  UNK     1      18.370   1.120  33.469  1.00  0.00     0.089 A 
HETATM    6  C4  UNK     1      18.429   3.197  34.769  1.00  0.00     0.036 A 
HETATM    7  C8  UNK     1      18.511   0.952  35.859  1.00  0.00     0.051 A 
HETATM    8  C9  UNK     1      18.274   3.278  32.311  1.00  0.00     0.303 A 
HETATM    9  C10 UNK     1      18.375  -0.267  33.343  1.00  0.00     0.041 A 
HETATM   10  C11 UNK     1      18.517  -0.441  35.748  1.00  0.00     0.069 A 
HETATM   11  C12 UNK     1      18.449  -1.049  34.493  1.00  0.00     0.039 A 
ENDROOT
BRANCH   4  12
HETATM   12  C5  UNK     1      18.356   5.355  33.740  1.00  0.00     0.187 A 
HETATM   13  O1  UNK     1      19.501   6.033  34.062  1.00  0.00    -0.289 OA
HETATM   14  C6  UNK     1      19.120   7.345  34.054  1.00  0.00     0.106 A 
HETATM   15  C13 UNK     1      19.911   8.456  34.319  1.00  0.00     0.040 A 
HETATM   16  C7  UNK     1      17.771   7.393  33.732  1.00  0.00     0.093 A 
HETATM   17  C15 UNK     1      19.261   9.694  34.242  1.00  0.00     0.003 A 
HETATM   18  C16 UNK     1      17.902   9.787  33.920  1.00  0.00     0.002 A 
HETATM   19  C14 UNK     1      17.136   8.641  33.659  1.00  0.00     0.034 A 
HETATM   20  N1  UNK     1      17.298   6.118  33.533  1.00  0.00    -0.221 NA
ENDBRANCH   4  12
BRANCH  10  21
HETATM   21  O3  UNK     1      18.591  -1.209  36.871  1.00  0.00    -0.356 OA
HETATM   22  C17 UNK     1      19.258  -2.465  36.755  1.00  0.00     0.210 C 
ENDBRANCH  10  21
TORSDOF 2
ENDMDL
MODEL 8
REMARK VINA RESULT:      -7.9     17.017     19.798
REMARK  2 active torsions:
REMARK  status: ('A' for Active; 'I' for Inactive)
REMARK    1  A    between atoms: C11_16  and  O3_3 
REMARK    2  A    between atoms: C2_7  and  C5_10 
ROOT
HETATM    1  O2  UNK     1      18.294   3.495  31.439  1.00  0.00    -0.274 OA
HETATM    2  O4  UNK     1      18.358   1.248  31.833  1.00  0.00    -0.259 OA
HETATM    3  C1  UNK     1      18.272   5.053  33.302  1.00  0.00     0.002 A 
HETATM    4  C2  UNK     1      18.315   2.664  33.747  1.00  0.00     0.093 A 
HETATM    5  C3  UNK     1      18.272   4.813  31.933  1.00  0.00     0.089 A 
HETATM    6  C4  UNK     1      18.291   3.921  34.214  1.00  0.00     0.036 A 
HETATM    7  C8  UNK     1      18.251   6.375  33.755  1.00  0.00     0.051 A 
HETATM    8  C9  UNK     1      18.323   2.388  32.284  1.00  0.00     0.303 A 
HETATM    9  C10 UNK     1      18.251   5.852  31.005  1.00  0.00     0.041 A 
HETATM   10  C11 UNK     1      18.230   7.428  32.836  1.00  0.00     0.069 A 
HETATM   11  C12 UNK     1      18.230   7.167  31.464  1.00  0.00     0.039 A 
ENDROOT
BRANCH   4  12
HETATM   12  C5  UNK     1      18.326   1.572  34.672  1.00  0.00     0.187 A 
HETATM   13  O1  UNK     1      19.056   0.444  34.413  1.00  0.00    -0.289 OA
HETATM   14  C6  UNK     1      18.823  -0.354  35.496  1.00  0.00     0.106 A 
HETATM   15  C13 UNK     1      19.332  -1.625  35.733  1.00  0.00     0.040 A 
HETATM   16  C7  UNK     1      17.968   0.327  36.349  1.00  0.00     0.093 A 
HETATM   17  C15 UNK     1      18.928  -2.225  36.932  1.00  0.00     0.003 A 
HETATM   18  C16 UNK     1      18.066  -1.572  37.822  1.00  0.00     0.002 A 
HETATM   19  C14 UNK     1      17.573  -0.288  37.546  1.00  0.00     0.034 A 
HETATM   20  N1  UNK     1      17.659   1.553  35.811  1.00  0.00    -0.221 NA
ENDBRANCH   4  12
BRANCH  10  21
HETATM   21  O3  UNK     1      18.207   8.715  33.283  1.00  0.00    -0.356 OA
HETATM   22  C17 UNK     1      17.002   9.167  33.898  1.00  0.00     0.210 C 
ENDBRANCH  10  21
TORSDOF 2
ENDMDL
MODEL 9
REMARK VINA RESULT:      -7.9     13.974     18.049
REMARK  2 active torsions:
REMARK  status: ('A' for Active; 'I' for Inactive)
REMARK    1  A    between atoms: C11_16  and  O3_3 
REMARK    2  A    between atoms: C2_7  and  C5_10 
ROOT
HETATM    1  O2  UNK     1      18.164   5.666  30.072  1.00  0.00    -0.274 OA
HETATM    2  O4  UNK     1      18.861   3.922  28.776  1.00  0.00    -0.259 OA
HETATM    3  C1  UNK     1      17.862   5.357  32.462  1.00  0.00     0.002 A 
HETATM    4  C2  UNK     1      18.582   3.478  31.098  1.00  0.00     0.093 A 
HETATM    5  C3  UNK     1      17.823   6.176  31.340  1.00  0.00     0.089 A 
HETATM    6  C4  UNK     1      18.256   3.966  32.304  1.00  0.00     0.036 A 
HETATM    7  C8  UNK     1      17.519   5.898  33.704  1.00  0.00     0.051 A 
HETATM    8  C9  UNK     1      18.554   4.342  29.887  1.00  0.00     0.303 A 
HETATM    9  C10 UNK     1      17.453   7.516  31.421  1.00  0.00     0.041 A 
HETATM   10  C11 UNK     1      17.145   7.241  33.801  1.00  0.00     0.069 A 
HETATM   11  C12 UNK     1      17.112   8.049  32.662  1.00  0.00     0.039 A 
ENDROOT
BRANCH   4  12
HETATM   12  C5  UNK     1      18.958   2.103  30.977  1.00  0.00     0.187 A 
HETATM   13  O1  UNK     1      19.533   1.634  29.827  1.00  0.00    -0.289 OA
HETATM   14  C6  UNK     1      19.745   0.309  30.081  1.00  0.00     0.106 A 
HETATM   15  C13 UNK     1      20.310  -0.634  29.232  1.00  0.00     0.040 A 
HETATM   16  C7  UNK     1      19.288   0.046  31.364  1.00  0.00     0.093 A 
HETATM   17  C15 UNK     1      20.409  -1.932  29.749  1.00  0.00     0.003 A 
HETATM   18  C16 UNK     1      19.961  -2.241  31.039  1.00  0.00     0.002 A 
HETATM   19  C14 UNK     1      19.395  -1.259  31.866  1.00  0.00     0.034 A 
HETATM   20  N1  UNK     1      18.790   1.197  31.923  1.00  0.00    -0.221 NA
ENDBRANCH   4  12
BRANCH  10  21
HETATM   21  O3  UNK     1      16.810   7.764  35.014  1.00  0.00    -0.356 OA
HETATM   22  C17 UNK     1      16.042   8.966  35.011  1.00  0.00     0.210 C 
ENDBRANCH  10  21
TORSDOF 2
ENDMDL
MODEL 10
REMARK VINA RESULT:      -7.9     14.869     16.222
REMARK  2 active torsions:
REMARK  status: ('A' for Active; 'I' for Inactive)
REMARK    1  A    between atoms: C11_16  and  O3_3 
REMARK    2  A    between atoms: C2_7  and  C5_10 
ROOT
HETATM    1  O2  UNK     1       5.519   2.862  10.379  1.00  0.00    -0.274 OA
HETATM    2  O4  UNK     1       6.644   2.847   8.394  1.00  0.00    -0.259 OA
HETATM    3  C1  UNK     1       6.022   4.555  12.046  1.00  0.00     0.002 A 
HETATM    4  C2  UNK     1       7.250   4.546   9.948  1.00  0.00     0.093 A 
HETATM    5  C3  UNK     1       5.290   3.446  11.640  1.00  0.00     0.089 A 
HETATM    6  C4  UNK     1       7.030   5.099  11.150  1.00  0.00     0.036 A 
HETATM    7  C8  UNK     1       5.765   5.109  13.303  1.00  0.00     0.051 A 
HETATM    8  C9  UNK     1       6.470   3.363   9.494  1.00  0.00     0.303 A 
HETATM    9  C10 UNK     1       4.311   2.875  12.450  1.00  0.00     0.041 A 
HETATM   10  C11 UNK     1       4.786   4.548  14.127  1.00  0.00     0.069 A 
HETATM   11  C12 UNK     1       4.061   3.433  13.702  1.00  0.00     0.039 A 
ENDROOT
BRANCH   4  12
HETATM   12  C5  UNK     1       8.255   5.101   9.095  1.00  0.00     0.187 A 
HETATM   13  O1  UNK     1       7.955   5.473   7.812  1.00  0.00    -0.289 OA
HETATM   14  C6  UNK     1       9.138   5.946   7.321  1.00  0.00     0.106 A 
HETATM   15  C13 UNK     1       9.384   6.452   6.051  1.00  0.00     0.040 A 
HETATM   16  C7  UNK     1      10.089   5.835   8.326  1.00  0.00     0.093 A 
HETATM   17  C15 UNK     1      10.698   6.870   5.810  1.00  0.00     0.003 A 
HETATM   18  C16 UNK     1      11.688   6.776   6.796  1.00  0.00     0.002 A 
HETATM   19  C14 UNK     1      11.400   6.259   8.067  1.00  0.00     0.034 A 
HETATM   20  N1  UNK     1       9.512   5.295   9.450  1.00  0.00    -0.221 NA
ENDBRANCH   4  12
BRANCH  10  21
HETATM   21  O3  UNK     1       4.541   5.090  15.353  1.00  0.00    -0.356 OA
HETATM   22  C17 UNK     1       5.310   4.594  16.447  1.00  0.00     0.210 C 
ENDBRANCH  10  21
TORSDOF 2
ENDMDL
