MODEL 1
REMARK VINA RESULT:      -8.8      0.000      0.000
REMARK  7 active torsions:
REMARK  status: ('A' for Active; 'I' for Inactive)
REMARK    1  A    between atoms: C12_20  and  O2_2 
REMARK    2  A    between atoms: C13_21  and  O3_3 
REMARK    3  A    between atoms: C19_27  and  O3_3 
REMARK    4  A    between atoms: C12_20  and  C2_10 
REMARK    5  A    between atoms: C11_19  and  C6_14 
REMARK    6  A    between atoms: C13_21  and  C8_16 
REMARK    7  A    between atoms: C19_27  and  C22_30 
ROOT
HETATM    1  O1  UNK     1      28.973  -9.477  36.478  1.00  0.00    -0.292 OA
HETATM    2  N1  UNK     1      30.343  -5.098  37.653  1.00  0.00    -0.362 N 
HETATM    3  C1  UNK     1      27.642  -7.328  39.076  1.00  0.00     0.008 C 
HETATM    4  C2  UNK     1      28.229  -8.668  38.615  1.00  0.00     0.164 C 
HETATM    5  C3  UNK     1      28.767  -6.280  39.119  1.00  0.00     0.063 C 
HETATM    6  C4  UNK     1      29.641  -7.255  36.969  1.00  0.00     0.025 C 
HETATM    7  C5  UNK     1      29.596  -6.243  37.860  1.00  0.00     0.020 C 
HETATM    8  C6  UNK     1      30.448  -7.135  35.678  1.00  0.00     0.104 C 
HETATM    9  C7  UNK     1      28.930  -8.538  37.272  1.00  0.00     0.172 C 
HETATM   10  C8  UNK     1      31.365  -5.909  35.678  1.00  0.00     0.052 C 
HETATM   11  C9  UNK     1      26.469  -6.843  38.209  1.00  0.00     0.011 C 
HETATM   12  C10 UNK     1      31.257  -4.946  36.623  1.00  0.00     0.018 C 
HETATM   13  C14 UNK     1      32.069  -3.680  36.675  1.00  0.00     0.069 C 
HETATM   14  H9  UNK     1      30.287  -4.364  38.348  1.00  0.00     0.165 HD
ENDROOT
BRANCH   8  15
HETATM   15  C11 UNK     1      29.530  -7.098  34.481  1.00  0.00     0.029 A 
HETATM   16  C15 UNK     1      29.757  -8.068  33.381  1.00  0.00     0.194 A 
HETATM   17  O7  UNK     1      30.661  -8.893  33.418  1.00  0.00    -0.287 OA
HETATM   18  C17 UNK     1      28.832  -7.987  32.236  1.00  0.00     0.049 A 
HETATM   19  C18 UNK     1      27.820  -7.026  32.248  1.00  0.00     0.089 A 
HETATM   20  C20 UNK     1      28.962  -8.857  31.151  1.00  0.00     0.025 A 
HETATM   21  O4  UNK     1      27.646  -6.147  33.287  1.00  0.00    -0.321 OA
HETATM   22  C23 UNK     1      26.934  -6.931  31.175  1.00  0.00     0.039 A 
HETATM   23  C16 UNK     1      28.515  -6.234  34.347  1.00  0.00     0.154 A 
HETATM   24  C26 UNK     1      27.062  -7.799  30.092  1.00  0.00     0.009 A 
HETATM   25  C24 UNK     1      28.074  -8.760  30.079  1.00  0.00    -0.061 A 
HETATM   26  C28 UNK     1      28.205  -9.686  28.917  1.00  0.00     0.048 C 
ENDBRANCH   8  15
BRANCH  10  27
HETATM   27  C13 UNK     1      32.406  -5.860  34.637  1.00  0.00     0.292 C 
HETATM   28  O6  UNK     1      32.277  -5.254  33.590  1.00  0.00    -0.259 OA
BRANCH  27  29
HETATM   29  O3  UNK     1      33.469  -6.583  35.063  1.00  0.00    -0.313 OA
BRANCH  29  30
HETATM   30  C19 UNK     1      34.697  -5.855  35.165  1.00  0.00     0.127 C 
HETATM   31  C25 UNK     1      35.752  -6.549  34.314  1.00  0.00     0.040 C 
BRANCH  30  32
HETATM   32  C22 UNK     1      35.123  -5.792  36.633  1.00  0.00     0.027 C 
HETATM   33  C27 UNK     1      34.391  -6.815  37.491  1.00  0.00     0.007 C 
ENDBRANCH  30  32
ENDBRANCH  29  30
ENDBRANCH  27  29
ENDBRANCH  10  27
BRANCH   4  34
HETATM   34  C12 UNK     1      27.188  -9.745  38.652  1.00  0.00     0.270 C 
HETATM   35  O5  UNK     1      26.513 -10.079  37.687  1.00  0.00    -0.264 OA
BRANCH  34  36
HETATM   36  O2  UNK     1      27.121 -10.272  39.908  1.00  0.00    -0.326 OA
HETATM   37  C21 UNK     1      28.380 -10.484  40.553  1.00  0.00     0.213 C 
ENDBRANCH  34  36
ENDBRANCH   4  34
TORSDOF 7
ENDMDL
MODEL 2
REMARK VINA RESULT:      -8.4      2.248      3.338
REMARK  7 active torsions:
REMARK  status: ('A' for Active; 'I' for Inactive)
REMARK    1  A    between atoms: C12_20  and  O2_2 
REMARK    2  A    between atoms: C13_21  and  O3_3 
REMARK    3  A    between atoms: C19_27  and  O3_3 
REMARK    4  A    between atoms: C12_20  and  C2_10 
REMARK    5  A    between atoms: C11_19  and  C6_14 
REMARK    6  A    between atoms: C13_21  and  C8_16 
REMARK    7  A    between atoms: C19_27  and  C22_30 
ROOT
HETATM    1  O1  UNK     1      29.496  -7.940  36.690  1.00  0.00    -0.292 OA
HETATM    2  N1  UNK     1      33.759  -5.876  36.695  1.00  0.00    -0.362 N 
HETATM    3  C1  UNK     1      30.612  -5.092  38.636  1.00  0.00     0.008 C 
HETATM    4  C2  UNK     1      29.969  -6.482  38.541  1.00  0.00     0.164 C 
HETATM    5  C3  UNK     1      32.127  -5.227  38.410  1.00  0.00     0.063 C 
HETATM    6  C4  UNK     1      31.621  -6.892  36.591  1.00  0.00     0.025 C 
HETATM    7  C5  UNK     1      32.478  -6.038  37.189  1.00  0.00     0.020 C 
HETATM    8  C6  UNK     1      32.010  -7.638  35.317  1.00  0.00     0.104 C 
HETATM    9  C7  UNK     1      30.283  -7.153  37.214  1.00  0.00     0.172 C 
HETATM   10  C8  UNK     1      33.503  -7.512  35.003  1.00  0.00     0.052 C 
HETATM   11  C9  UNK     1      29.998  -4.067  37.668  1.00  0.00     0.011 C 
HETATM   12  C10 UNK     1      34.292  -6.634  35.665  1.00  0.00     0.018 C 
HETATM   13  C14 UNK     1      35.753  -6.395  35.390  1.00  0.00     0.069 C 
HETATM   14  H9  UNK     1      34.374  -5.231  37.175  1.00  0.00     0.165 HD
ENDROOT
BRANCH   8  15
HETATM   15  C11 UNK     1      31.190  -7.153  34.147  1.00  0.00     0.029 A 
HETATM   16  C15 UNK     1      30.441  -8.150  33.342  1.00  0.00     0.194 A 
HETATM   17  O7  UNK     1      30.469  -9.347  33.598  1.00  0.00    -0.287 OA
HETATM   18  C17 UNK     1      29.657  -7.621  32.210  1.00  0.00     0.049 A 
HETATM   19  C18 UNK     1      29.662  -6.248  31.965  1.00  0.00     0.089 A 
HETATM   20  C20 UNK     1      28.917  -8.479  31.393  1.00  0.00     0.025 A 
HETATM   21  O4  UNK     1      30.370  -5.359  32.735  1.00  0.00    -0.321 OA
HETATM   22  C23 UNK     1      28.927  -5.725  30.900  1.00  0.00     0.039 A 
HETATM   23  C16 UNK     1      31.096  -5.866  33.785  1.00  0.00     0.154 A 
HETATM   24  C26 UNK     1      28.189  -6.580  30.083  1.00  0.00     0.009 A 
HETATM   25  C24 UNK     1      28.184  -7.953  30.328  1.00  0.00    -0.061 A 
HETATM   26  C28 UNK     1      27.390  -8.863  29.451  1.00  0.00     0.048 C 
ENDBRANCH   8  15
BRANCH  10  27
HETATM   27  C13 UNK     1      34.047  -8.432  33.989  1.00  0.00     0.292 C 
HETATM   28  O6  UNK     1      34.198  -9.624  34.180  1.00  0.00    -0.259 OA
BRANCH  27  29
HETATM   29  O3  UNK     1      34.327  -7.718  32.873  1.00  0.00    -0.313 OA
BRANCH  29  30
HETATM   30  C19 UNK     1      33.958  -8.349  31.642  1.00  0.00     0.127 C 
HETATM   31  C25 UNK     1      35.224  -8.704  30.872  1.00  0.00     0.040 C 
BRANCH  30  32
HETATM   32  C22 UNK     1      33.069  -7.398  30.837  1.00  0.00     0.027 C 
HETATM   33  C27 UNK     1      32.314  -8.115  29.726  1.00  0.00     0.007 C 
ENDBRANCH  30  32
ENDBRANCH  29  30
ENDBRANCH  27  29
ENDBRANCH  10  27
BRANCH   4  34
HETATM   34  C12 UNK     1      28.505  -6.412  38.852  1.00  0.00     0.270 C 
HETATM   35  O5  UNK     1      27.712  -5.693  38.259  1.00  0.00    -0.264 OA
BRANCH  34  36
HETATM   36  O2  UNK     1      28.216  -7.261  39.879  1.00  0.00    -0.326 OA
HETATM   37  C21 UNK     1      27.507  -8.449  39.514  1.00  0.00     0.213 C 
ENDBRANCH  34  36
ENDBRANCH   4  34
TORSDOF 7
ENDMDL
MODEL 3
REMARK VINA RESULT:      -8.3      1.495      2.217
REMARK  7 active torsions:
REMARK  status: ('A' for Active; 'I' for Inactive)
REMARK    1  A    between atoms: C12_20  and  O2_2 
REMARK    2  A    between atoms: C13_21  and  O3_3 
REMARK    3  A    between atoms: C19_27  and  O3_3 
REMARK    4  A    between atoms: C12_20  and  C2_10 
REMARK    5  A    between atoms: C11_19  and  C6_14 
REMARK    6  A    between atoms: C13_21  and  C8_16 
REMARK    7  A    between atoms: C19_27  and  C22_30 
ROOT
HETATM    1  O1  UNK     1      28.194  -9.270  36.655  1.00  0.00    -0.292 OA
HETATM    2  N1  UNK     1      31.498  -5.990  37.525  1.00  0.00    -0.362 N 
HETATM    3  C1  UNK     1      28.076  -6.537  39.034  1.00  0.00     0.008 C 
HETATM    4  C2  UNK     1      27.947  -8.028  38.698  1.00  0.00     0.164 C 
HETATM    5  C3  UNK     1      29.564  -6.151  39.030  1.00  0.00     0.063 C 
HETATM    6  C4  UNK     1      29.846  -7.601  36.991  1.00  0.00     0.025 C 
HETATM    7  C5  UNK     1      30.298  -6.619  37.799  1.00  0.00     0.020 C 
HETATM    8  C6  UNK     1      30.600  -7.989  35.721  1.00  0.00     0.104 C 
HETATM    9  C7  UNK     1      28.612  -8.361  37.372  1.00  0.00     0.172 C 
HETATM   10  C8  UNK     1      31.990  -7.352  35.653  1.00  0.00     0.052 C 
HETATM   11  C9  UNK     1      27.267  -5.627  38.096  1.00  0.00     0.011 C 
HETATM   12  C10 UNK     1      32.364  -6.379  36.516  1.00  0.00     0.018 C 
HETATM   13  C14 UNK     1      33.682  -5.653  36.494  1.00  0.00     0.069 C 
HETATM   14  H9  UNK     1      31.806  -5.262  38.159  1.00  0.00     0.165 HD
ENDROOT
BRANCH   8  15
HETATM   15  C11 UNK     1      29.799  -7.620  34.496  1.00  0.00     0.029 A 
HETATM   16  C15 UNK     1      29.652  -8.625  33.414  1.00  0.00     0.194 A 
HETATM   17  O7  UNK     1      30.157  -9.737  33.486  1.00  0.00    -0.287 OA
HETATM   18  C17 UNK     1      28.860  -8.210  32.240  1.00  0.00     0.049 A 
HETATM   19  C18 UNK     1      28.307  -6.930  32.213  1.00  0.00     0.089 A 
HETATM   20  C20 UNK     1      28.663  -9.085  31.170  1.00  0.00     0.025 A 
HETATM   21  O4  UNK     1      28.468  -6.031  33.237  1.00  0.00    -0.321 OA
HETATM   22  C23 UNK     1      27.555  -6.518  31.113  1.00  0.00     0.039 A 
HETATM   23  C16 UNK     1      29.208  -6.430  34.323  1.00  0.00     0.154 A 
HETATM   24  C26 UNK     1      27.357  -7.389  30.042  1.00  0.00     0.009 A 
HETATM   25  C24 UNK     1      27.910  -8.670  30.070  1.00  0.00    -0.061 A 
HETATM   26  C28 UNK     1      27.694  -9.598  28.922  1.00  0.00     0.048 C 
ENDBRANCH   8  15
BRANCH  10  27
HETATM   27  C13 UNK     1      32.918  -7.892  34.645  1.00  0.00     0.292 C 
HETATM   28  O6  UNK     1      33.554  -8.917  34.802  1.00  0.00    -0.259 OA
BRANCH  27  29
HETATM   29  O3  UNK     1      32.916  -7.061  33.576  1.00  0.00    -0.313 OA
BRANCH  29  30
HETATM   30  C19 UNK     1      33.361  -7.649  32.349  1.00  0.00     0.127 C 
HETATM   31  C25 UNK     1      34.742  -7.101  32.014  1.00  0.00     0.040 C 
BRANCH  30  32
HETATM   32  C22 UNK     1      32.354  -7.328  31.243  1.00  0.00     0.027 C 
HETATM   33  C27 UNK     1      32.137  -8.503  30.300  1.00  0.00     0.007 C 
ENDBRANCH  30  32
ENDBRANCH  29  30
ENDBRANCH  27  29
ENDBRANCH  10  27
BRANCH   4  34
HETATM   34  C12 UNK     1      26.519  -8.472  38.787  1.00  0.00     0.270 C 
HETATM   35  O5  UNK     1      25.648  -8.140  37.994  1.00  0.00    -0.264 OA
BRANCH  34  36
HETATM   36  O2  UNK     1      26.360  -9.283  39.872  1.00  0.00    -0.326 OA
HETATM   37  C21 UNK     1      27.297 -10.359  39.977  1.00  0.00     0.213 C 
ENDBRANCH  34  36
ENDBRANCH   4  34
TORSDOF 7
ENDMDL
MODEL 4
REMARK VINA RESULT:      -8.1      2.169      6.320
REMARK  7 active torsions:
REMARK  status: ('A' for Active; 'I' for Inactive)
REMARK    1  A    between atoms: C12_20  and  O2_2 
REMARK    2  A    between atoms: C13_21  and  O3_3 
REMARK    3  A    between atoms: C19_27  and  O3_3 
REMARK    4  A    between atoms: C12_20  and  C2_10 
REMARK    5  A    between atoms: C11_19  and  C6_14 
REMARK    6  A    between atoms: C13_21  and  C8_16 
REMARK    7  A    between atoms: C19_27  and  C22_30 
ROOT
HETATM    1  O1  UNK     1      30.166  -9.210  31.930  1.00  0.00    -0.292 OA
HETATM    2  N1  UNK     1      28.294  -6.315  35.177  1.00  0.00    -0.362 N 
HETATM    3  C1  UNK     1      27.850  -6.466  31.427  1.00  0.00     0.008 C 
HETATM    4  C2  UNK     1      28.248  -7.936  31.239  1.00  0.00     0.164 C 
HETATM    5  C3  UNK     1      27.416  -6.250  32.885  1.00  0.00     0.063 C 
HETATM    6  C4  UNK     1      29.324  -7.735  33.585  1.00  0.00     0.025 C 
HETATM    7  C5  UNK     1      28.395  -6.804  33.888  1.00  0.00     0.020 C 
HETATM    8  C6  UNK     1      30.334  -8.212  34.627  1.00  0.00     0.104 C 
HETATM    9  C7  UNK     1      29.336  -8.349  32.218  1.00  0.00     0.172 C 
HETATM   10  C8  UNK     1      29.981  -7.735  36.038  1.00  0.00     0.052 C 
HETATM   11  C9  UNK     1      28.957  -5.478  31.028  1.00  0.00     0.011 C 
HETATM   12  C10 UNK     1      29.022  -6.804  36.250  1.00  0.00     0.018 C 
HETATM   13  C14 UNK     1      28.644  -6.231  37.590  1.00  0.00     0.069 C 
HETATM   14  H9  UNK     1      27.580  -5.622  35.366  1.00  0.00     0.165 HD
ENDROOT
BRANCH   8  15
HETATM   15  C11 UNK     1      31.727  -7.763  34.259  1.00  0.00     0.029 A 
HETATM   16  C15 UNK     1      32.786  -8.791  34.101  1.00  0.00     0.194 A 
HETATM   17  O7  UNK     1      32.563  -9.984  34.259  1.00  0.00    -0.287 OA
HETATM   18  C17 UNK     1      34.128  -8.297  33.743  1.00  0.00     0.049 A 
HETATM   19  C18 UNK     1      34.324  -6.926  33.576  1.00  0.00     0.089 A 
HETATM   20  C20 UNK     1      35.192  -9.185  33.571  1.00  0.00     0.025 A 
HETATM   21  O4  UNK     1      33.315  -6.008  33.733  1.00  0.00    -0.321 OA
HETATM   22  C23 UNK     1      35.586  -6.436  33.237  1.00  0.00     0.039 A 
HETATM   23  C16 UNK     1      32.071  -6.483  34.067  1.00  0.00     0.154 A 
HETATM   24  C26 UNK     1      36.649  -7.322  33.065  1.00  0.00     0.009 A 
HETATM   25  C24 UNK     1      36.453  -8.693  33.232  1.00  0.00    -0.061 A 
HETATM   26  C28 UNK     1      37.595  -9.635  33.045  1.00  0.00     0.048 C 
ENDBRANCH   8  15
BRANCH  10  27
HETATM   27  C13 UNK     1      30.693  -8.382  37.154  1.00  0.00     0.292 C 
HETATM   28  O6  UNK     1      30.777  -9.588  37.284  1.00  0.00    -0.259 OA
BRANCH  27  29
HETATM   29  O3  UNK     1      31.203  -7.413  37.952  1.00  0.00    -0.313 OA
BRANCH  29  30
HETATM   30  C19 UNK     1      32.328  -6.712  37.412  1.00  0.00     0.127 C 
HETATM   31  C25 UNK     1      33.593  -7.504  37.714  1.00  0.00     0.040 C 
BRANCH  30  32
HETATM   32  C22 UNK     1      32.390  -5.313  38.028  1.00  0.00     0.027 C 
HETATM   33  C27 UNK     1      31.811  -4.249  37.105  1.00  0.00     0.007 C 
ENDBRANCH  30  32
ENDBRANCH  29  30
ENDBRANCH  27  29
ENDBRANCH  10  27
BRANCH   4  34
HETATM   34  C12 UNK     1      28.586  -8.217  29.807  1.00  0.00     0.270 C 
HETATM   35  O5  UNK     1      29.477  -7.648  29.189  1.00  0.00    -0.264 OA
BRANCH  34  36
HETATM   36  O2  UNK     1      27.755  -9.184  29.323  1.00  0.00    -0.326 OA
HETATM   37  C21 UNK     1      28.338 -10.071  28.364  1.00  0.00     0.213 C 
ENDBRANCH  34  36
ENDBRANCH   4  34
TORSDOF 7
ENDMDL
MODEL 5
REMARK VINA RESULT:      -7.9      2.407      3.416
REMARK  7 active torsions:
REMARK  status: ('A' for Active; 'I' for Inactive)
REMARK    1  A    between atoms: C12_20  and  O2_2 
REMARK    2  A    between atoms: C13_21  and  O3_3 
REMARK    3  A    between atoms: C19_27  and  O3_3 
REMARK    4  A    between atoms: C12_20  and  C2_10 
REMARK    5  A    between atoms: C11_19  and  C6_14 
REMARK    6  A    between atoms: C13_21  and  C8_16 
REMARK    7  A    between atoms: C19_27  and  C22_30 
ROOT
HETATM    1  O1  UNK     1      29.999  -9.720  35.885  1.00  0.00    -0.292 OA
HETATM    2  N1  UNK     1      33.754  -6.903  36.513  1.00  0.00    -0.362 N 
HETATM    3  C1  UNK     1      30.437  -7.067  38.317  1.00  0.00     0.008 C 
HETATM    4  C2  UNK     1      30.092  -8.520  37.966  1.00  0.00     0.164 C 
HETATM    5  C3  UNK     1      31.955  -6.869  38.184  1.00  0.00     0.063 C 
HETATM    6  C4  UNK     1      31.871  -8.280  36.101  1.00  0.00     0.025 C 
HETATM    7  C5  UNK     1      32.513  -7.386  36.883  1.00  0.00     0.020 C 
HETATM    8  C6  UNK     1      32.455  -8.719  34.760  1.00  0.00     0.104 C 
HETATM    9  C7  UNK     1      30.589  -8.892  36.578  1.00  0.00     0.172 C 
HETATM   10  C8  UNK     1      33.903  -8.258  34.578  1.00  0.00     0.052 C 
HETATM   11  C9  UNK     1      29.669  -6.036  37.474  1.00  0.00     0.011 C 
HETATM   12  C10 UNK     1      34.472  -7.365  35.422  1.00  0.00     0.018 C 
HETATM   13  C14 UNK     1      35.864  -6.808  35.294  1.00  0.00     0.069 C 
HETATM   14  H9  UNK     1      34.206  -6.239  37.130  1.00  0.00     0.165 HD
ENDROOT
BRANCH   8  15
HETATM   15  C11 UNK     1      31.602  -8.216  33.621  1.00  0.00     0.029 A 
HETATM   16  C15 UNK     1      31.047  -9.202  32.660  1.00  0.00     0.194 A 
HETATM   17  O7  UNK     1      31.259 -10.403  32.765  1.00  0.00    -0.287 OA
HETATM   18  C17 UNK     1      30.223  -8.655  31.566  1.00  0.00     0.049 A 
HETATM   19  C18 UNK     1      30.015  -7.278  31.496  1.00  0.00     0.089 A 
HETATM   20  C20 UNK     1      29.655  -9.502  30.612  1.00  0.00     0.025 A 
HETATM   21  O4  UNK     1      30.548  -6.401  32.407  1.00  0.00    -0.321 OA
HETATM   22  C23 UNK     1      29.238  -6.740  30.470  1.00  0.00     0.039 A 
HETATM   23  C16 UNK     1      31.314  -6.923  33.420  1.00  0.00     0.154 A 
HETATM   24  C26 UNK     1      28.670  -7.583  29.516  1.00  0.00     0.009 A 
HETATM   25  C24 UNK     1      28.878  -8.960  29.586  1.00  0.00    -0.061 A 
HETATM   26  C28 UNK     1      28.267  -9.857  28.562  1.00  0.00     0.048 C 
ENDBRANCH   8  15
BRANCH  10  27
HETATM   27  C13 UNK     1      34.664  -8.877  33.479  1.00  0.00     0.292 C 
HETATM   28  O6  UNK     1      35.139  -9.996  33.542  1.00  0.00    -0.259 OA
BRANCH  27  29
HETATM   29  O3  UNK     1      34.719  -7.998  32.451  1.00  0.00    -0.313 OA
BRANCH  29  30
HETATM   30  C19 UNK     1      34.379  -8.540  31.170  1.00  0.00     0.127 C 
HETATM   31  C25 UNK     1      35.661  -8.902  30.433  1.00  0.00     0.040 C 
BRANCH  30  32
HETATM   32  C22 UNK     1      33.563  -7.508  30.389  1.00  0.00     0.027 C 
HETATM   33  C27 UNK     1      32.957  -8.092  29.120  1.00  0.00     0.007 C 
ENDBRANCH  30  32
ENDBRANCH  29  30
ENDBRANCH  27  29
ENDBRANCH  10  27
BRANCH   4  34
HETATM   34  C12 UNK     1      28.632  -8.785  38.176  1.00  0.00     0.270 C 
HETATM   35  O5  UNK     1      27.753  -8.436  37.399  1.00  0.00    -0.264 OA
BRANCH  34  36
HETATM   36  O2  UNK     1      28.456  -9.461  39.347  1.00  0.00    -0.326 OA
HETATM   37  C21 UNK     1      27.251 -10.227  39.439  1.00  0.00     0.213 C 
ENDBRANCH  34  36
ENDBRANCH   4  34
TORSDOF 7
ENDMDL
MODEL 6
REMARK VINA RESULT:      -7.9      2.136      6.810
REMARK  7 active torsions:
REMARK  status: ('A' for Active; 'I' for Inactive)
REMARK    1  A    between atoms: C12_20  and  O2_2 
REMARK    2  A    between atoms: C13_21  and  O3_3 
REMARK    3  A    between atoms: C19_27  and  O3_3 
REMARK    4  A    between atoms: C12_20  and  C2_10 
REMARK    5  A    between atoms: C11_19  and  C6_14 
REMARK    6  A    between atoms: C13_21  and  C8_16 
REMARK    7  A    between atoms: C19_27  and  C22_30 
ROOT
HETATM    1  O1  UNK     1      30.202  -9.218  31.901  1.00  0.00    -0.292 OA
HETATM    2  N1  UNK     1      28.314  -6.289  35.109  1.00  0.00    -0.362 N 
HETATM    3  C1  UNK     1      27.914  -6.460  31.354  1.00  0.00     0.008 C 
HETATM    4  C2  UNK     1      28.303  -7.934  31.180  1.00  0.00     0.164 C 
HETATM    5  C3  UNK     1      27.463  -6.231  32.806  1.00  0.00     0.063 C 
HETATM    6  C4  UNK     1      29.352  -7.726  33.537  1.00  0.00     0.025 C 
HETATM    7  C5  UNK     1      28.426  -6.787  33.824  1.00  0.00     0.020 C 
HETATM    8  C6  UNK     1      30.345  -8.205  34.595  1.00  0.00     0.104 C 
HETATM    9  C7  UNK     1      29.375  -8.349  32.175  1.00  0.00     0.172 C 
HETATM   10  C8  UNK     1      29.979  -7.717  35.998  1.00  0.00     0.052 C 
HETATM   11  C9  UNK     1      29.033  -5.482  30.962  1.00  0.00     0.011 C 
HETATM   12  C10 UNK     1      29.025  -6.778  36.193  1.00  0.00     0.018 C 
HETATM   13  C14 UNK     1      28.635  -6.193  37.524  1.00  0.00     0.069 C 
HETATM   14  H9  UNK     1      27.602  -5.590  35.285  1.00  0.00     0.165 HD
ENDROOT
BRANCH   8  15
HETATM   15  C11 UNK     1      31.746  -7.769  34.241  1.00  0.00     0.029 A 
HETATM   16  C15 UNK     1      32.788  -8.809  34.054  1.00  0.00     0.194 A 
HETATM   17  O7  UNK     1      32.545 -10.003  34.177  1.00  0.00    -0.287 OA
HETATM   18  C17 UNK     1      34.139  -8.327  33.711  1.00  0.00     0.049 A 
HETATM   19  C18 UNK     1      34.358  -6.955  33.585  1.00  0.00     0.089 A 
HETATM   20  C20 UNK     1      35.188  -9.228  33.514  1.00  0.00     0.025 A 
HETATM   21  O4  UNK     1      33.364  -6.026  33.767  1.00  0.00    -0.321 OA
HETATM   22  C23 UNK     1      35.628  -6.477  33.261  1.00  0.00     0.039 A 
HETATM   23  C16 UNK     1      32.111  -6.489  34.086  1.00  0.00     0.154 A 
HETATM   24  C26 UNK     1      36.676  -7.375  33.064  1.00  0.00     0.009 A 
HETATM   25  C24 UNK     1      36.457  -8.747  33.191  1.00  0.00    -0.061 A 
HETATM   26  C28 UNK     1      37.584  -9.702  32.978  1.00  0.00     0.048 C 
ENDBRANCH   8  15
BRANCH  10  27
HETATM   27  C13 UNK     1      30.673  -8.362  37.126  1.00  0.00     0.292 C 
HETATM   28  O6  UNK     1      31.673  -7.904  37.646  1.00  0.00    -0.259 OA
BRANCH  27  29
HETATM   29  O3  UNK     1      30.007  -9.498  37.443  1.00  0.00    -0.313 OA
BRANCH  29  30
HETATM   30  C19 UNK     1      29.379  -9.494  38.729  1.00  0.00     0.127 C 
HETATM   31  C25 UNK     1      30.030 -10.563  39.598  1.00  0.00     0.040 C 
BRANCH  30  32
HETATM   32  C22 UNK     1      27.881  -9.757  38.557  1.00  0.00     0.027 C 
HETATM   33  C27 UNK     1      27.178  -9.983  39.889  1.00  0.00     0.007 C 
ENDBRANCH  30  32
ENDBRANCH  29  30
ENDBRANCH  27  29
ENDBRANCH  10  27
BRANCH   4  34
HETATM   34  C12 UNK     1      28.656  -8.226  29.754  1.00  0.00     0.270 C 
HETATM   35  O5  UNK     1      29.586  -7.699  29.156  1.00  0.00    -0.264 OA
BRANCH  34  36
HETATM   36  O2  UNK     1      27.789  -9.149  29.249  1.00  0.00    -0.326 OA
HETATM   37  C21 UNK     1      28.356 -10.085  28.327  1.00  0.00     0.213 C 
ENDBRANCH  34  36
ENDBRANCH   4  34
TORSDOF 7
ENDMDL
MODEL 7
REMARK VINA RESULT:      -7.8      3.148      7.329
REMARK  7 active torsions:
REMARK  status: ('A' for Active; 'I' for Inactive)
REMARK    1  A    between atoms: C12_20  and  O2_2 
REMARK    2  A    between atoms: C13_21  and  O3_3 
REMARK    3  A    between atoms: C19_27  and  O3_3 
REMARK    4  A    between atoms: C12_20  and  C2_10 
REMARK    5  A    between atoms: C11_19  and  C6_14 
REMARK    6  A    between atoms: C13_21  and  C8_16 
REMARK    7  A    between atoms: C19_27  and  C22_30 
ROOT
HETATM    1  O1  UNK     1      30.247 -10.284  34.276  1.00  0.00    -0.292 OA
HETATM    2  N1  UNK     1      31.973  -8.451  30.264  1.00  0.00    -0.362 N 
HETATM    3  C1  UNK     1      33.002 -11.495  32.254  1.00  0.00     0.008 C 
HETATM    4  C2  UNK     1      31.666 -11.722  32.974  1.00  0.00     0.164 C 
HETATM    5  C3  UNK     1      32.750 -10.666  30.984  1.00  0.00     0.063 C 
HETATM    6  C4  UNK     1      31.127  -9.277  32.317  1.00  0.00     0.025 C 
HETATM    7  C5  UNK     1      31.912  -9.437  31.231  1.00  0.00     0.020 C 
HETATM    8  C6  UNK     1      30.351  -7.982  32.546  1.00  0.00     0.104 C 
HETATM    9  C7  UNK     1      30.972 -10.407  33.289  1.00  0.00     0.172 C 
HETATM   10  C8  UNK     1      30.360  -7.073  31.315  1.00  0.00     0.052 C 
HETATM   11  C9  UNK     1      34.070 -10.835  33.141  1.00  0.00     0.011 C 
HETATM   12  C10 UNK     1      31.175  -7.318  30.262  1.00  0.00     0.018 C 
HETATM   13  C14 UNK     1      31.299  -6.455  29.036  1.00  0.00     0.069 C 
HETATM   14  H9  UNK     1      32.569  -8.611  29.461  1.00  0.00     0.165 HD
ENDROOT
BRANCH   8  15
HETATM   15  C11 UNK     1      30.897  -7.242  33.743  1.00  0.00     0.029 A 
HETATM   16  C15 UNK     1      29.949  -6.784  34.789  1.00  0.00     0.194 A 
HETATM   17  O7  UNK     1      28.744  -6.989  34.710  1.00  0.00    -0.287 OA
HETATM   18  C17 UNK     1      30.536  -6.066  35.935  1.00  0.00     0.049 A 
HETATM   19  C18 UNK     1      31.916  -5.862  35.973  1.00  0.00     0.089 A 
HETATM   20  C20 UNK     1      29.727  -5.596  36.972  1.00  0.00     0.025 A 
HETATM   21  O4  UNK     1      32.758  -6.302  34.982  1.00  0.00    -0.321 OA
HETATM   22  C23 UNK     1      32.493  -5.185  37.047  1.00  0.00     0.039 A 
HETATM   23  C16 UNK     1      32.197  -6.969  33.921  1.00  0.00     0.154 A 
HETATM   24  C26 UNK     1      31.687  -4.714  38.083  1.00  0.00     0.009 A 
HETATM   25  C24 UNK     1      30.308  -4.919  38.045  1.00  0.00    -0.061 A 
HETATM   26  C28 UNK     1      29.450  -4.413  39.157  1.00  0.00     0.048 C 
ENDBRANCH   8  15
BRANCH  10  27
HETATM   27  C13 UNK     1      29.400  -5.957  31.308  1.00  0.00     0.292 C 
HETATM   28  O6  UNK     1      29.731  -4.790  31.209  1.00  0.00    -0.259 OA
BRANCH  27  29
HETATM   29  O3  UNK     1      28.151  -6.468  31.426  1.00  0.00    -0.313 OA
BRANCH  29  30
HETATM   30  C19 UNK     1      27.590  -6.985  30.215  1.00  0.00     0.127 C 
HETATM   31  C25 UNK     1      26.253  -6.300  29.961  1.00  0.00     0.040 C 
BRANCH  30  32
HETATM   32  C22 UNK     1      27.420  -8.500  30.348  1.00  0.00     0.027 C 
HETATM   33  C27 UNK     1      28.228  -9.264  29.307  1.00  0.00     0.007 C 
ENDBRANCH  30  32
ENDBRANCH  29  30
ENDBRANCH  27  29
ENDBRANCH  10  27
BRANCH   4  34
HETATM   34  C12 UNK     1      31.850 -12.610  34.167  1.00  0.00     0.270 C 
HETATM   35  O5  UNK     1      31.716 -12.237  35.325  1.00  0.00    -0.264 OA
BRANCH  34  36
HETATM   36  O2  UNK     1      32.184 -13.866  33.754  1.00  0.00    -0.326 OA
HETATM   37  C21 UNK     1      31.127 -14.613  33.144  1.00  0.00     0.213 C 
ENDBRANCH  34  36
ENDBRANCH   4  34
TORSDOF 7
ENDMDL
MODEL 8
REMARK VINA RESULT:      -7.7      2.998      4.107
REMARK  7 active torsions:
REMARK  status: ('A' for Active; 'I' for Inactive)
REMARK    1  A    between atoms: C12_20  and  O2_2 
REMARK    2  A    between atoms: C13_21  and  O3_3 
REMARK    3  A    between atoms: C19_27  and  O3_3 
REMARK    4  A    between atoms: C12_20  and  C2_10 
REMARK    5  A    between atoms: C11_19  and  C6_14 
REMARK    6  A    between atoms: C13_21  and  C8_16 
REMARK    7  A    between atoms: C19_27  and  C22_30 
ROOT
HETATM    1  O1  UNK     1      31.048 -10.165  35.530  1.00  0.00    -0.292 OA
HETATM    2  N1  UNK     1      34.781  -7.310  36.120  1.00  0.00    -0.362 N 
HETATM    3  C1  UNK     1      31.604  -7.701  38.130  1.00  0.00     0.008 C 
HETATM    4  C2  UNK     1      31.265  -9.130  37.688  1.00  0.00     0.164 C 
HETATM    5  C3  UNK     1      33.106  -7.454  37.909  1.00  0.00     0.063 C 
HETATM    6  C4  UNK     1      32.902  -8.699  35.730  1.00  0.00     0.025 C 
HETATM    7  C5  UNK     1      33.579  -7.853  36.535  1.00  0.00     0.020 C 
HETATM    8  C6  UNK     1      33.398  -9.016  34.321  1.00  0.00     0.104 C 
HETATM    9  C7  UNK     1      31.670  -9.379  36.244  1.00  0.00     0.172 C 
HETATM   10  C8  UNK     1      34.820  -8.505  34.077  1.00  0.00     0.052 C 
HETATM   11  C9  UNK     1      30.759  -6.627  37.428  1.00  0.00     0.011 C 
HETATM   12  C10 UNK     1      35.429  -7.667  34.948  1.00  0.00     0.018 C 
HETATM   13  C14 UNK     1      36.797  -7.065  34.769  1.00  0.00     0.069 C 
HETATM   14  H9  UNK     1      35.263  -6.685  36.755  1.00  0.00     0.165 HD
ENDROOT
BRANCH   8  15
HETATM   15  C11 UNK     1      32.456  -8.447  33.288  1.00  0.00     0.029 A 
HETATM   16  C15 UNK     1      31.799  -9.378  32.336  1.00  0.00     0.194 A 
HETATM   17  O7  UNK     1      31.997 -10.586  32.367  1.00  0.00    -0.287 OA
HETATM   18  C17 UNK     1      30.891  -8.769  31.348  1.00  0.00     0.049 A 
HETATM   19  C18 UNK     1      30.703  -7.387  31.360  1.00  0.00     0.089 A 
HETATM   20  C20 UNK     1      30.224  -9.561  30.410  1.00  0.00     0.025 A 
HETATM   21  O4  UNK     1      31.332  -6.562  32.259  1.00  0.00    -0.321 OA
HETATM   22  C23 UNK     1      29.848  -6.790  30.434  1.00  0.00     0.039 A 
HETATM   23  C16 UNK     1      32.175  -7.143  33.173  1.00  0.00     0.154 A 
HETATM   24  C26 UNK     1      29.181  -7.578  29.497  1.00  0.00     0.009 A 
HETATM   25  C24 UNK     1      29.369  -8.961  29.485  1.00  0.00    -0.061 A 
HETATM   26  C28 UNK     1      28.652  -9.799  28.480  1.00  0.00     0.048 C 
ENDBRANCH   8  15
BRANCH  10  27
HETATM   27  C13 UNK     1      35.512  -9.017  32.882  1.00  0.00     0.292 C 
HETATM   28  O6  UNK     1      35.629  -8.379  31.853  1.00  0.00    -0.259 OA
BRANCH  27  29
HETATM   29  O3  UNK     1      35.963 -10.265  33.152  1.00  0.00    -0.313 OA
BRANCH  29  30
HETATM   30  C19 UNK     1      36.702 -10.885  32.094  1.00  0.00     0.127 C 
HETATM   31  C25 UNK     1      35.801 -11.888  31.386  1.00  0.00     0.040 C 
BRANCH  30  32
HETATM   32  C22 UNK     1      37.938 -11.569  32.681  1.00  0.00     0.027 C 
HETATM   33  C27 UNK     1      37.767 -11.906  34.156  1.00  0.00     0.007 C 
ENDBRANCH  30  32
ENDBRANCH  29  30
ENDBRANCH  27  29
ENDBRANCH  10  27
BRANCH   4  34
HETATM   34  C12 UNK     1      29.830  -9.449  37.977  1.00  0.00     0.270 C 
HETATM   35  O5  UNK     1      28.891  -9.065  37.291  1.00  0.00    -0.264 OA
BRANCH  34  36
HETATM   36  O2  UNK     1      29.750 -10.215  39.103  1.00  0.00    -0.326 OA
HETATM   37  C21 UNK     1      28.486 -10.195  39.772  1.00  0.00     0.213 C 
ENDBRANCH  34  36
ENDBRANCH   4  34
TORSDOF 7
ENDMDL
MODEL 9
REMARK VINA RESULT:      -7.6      2.581      6.656
REMARK  7 active torsions:
REMARK  status: ('A' for Active; 'I' for Inactive)
REMARK    1  A    between atoms: C12_20  and  O2_2 
REMARK    2  A    between atoms: C13_21  and  O3_3 
REMARK    3  A    between atoms: C19_27  and  O3_3 
REMARK    4  A    between atoms: C12_20  and  C2_10 
REMARK    5  A    between atoms: C11_19  and  C6_14 
REMARK    6  A    between atoms: C13_21  and  C8_16 
REMARK    7  A    between atoms: C19_27  and  C22_30 
ROOT
HETATM    1  O1  UNK     1      32.268  -6.621  34.235  1.00  0.00    -0.292 OA
HETATM    2  N1  UNK     1      30.476  -6.597  38.619  1.00  0.00    -0.362 N 
HETATM    3  C1  UNK     1      33.912  -5.691  37.330  1.00  0.00     0.008 C 
HETATM    4  C2  UNK     1      33.505  -5.383  35.883  1.00  0.00     0.164 C 
HETATM    5  C3  UNK     1      32.672  -5.570  38.232  1.00  0.00     0.063 C 
HETATM    6  C4  UNK     1      31.347  -6.709  36.419  1.00  0.00     0.025 C 
HETATM    7  C5  UNK     1      31.476  -6.321  37.705  1.00  0.00     0.020 C 
HETATM    8  C6  UNK     1      30.142  -7.525  35.957  1.00  0.00     0.104 C 
HETATM    9  C7  UNK     1      32.378  -6.290  35.415  1.00  0.00     0.172 C 
HETATM   10  C8  UNK     1      29.040  -7.585  37.017  1.00  0.00     0.052 C 
HETATM   11  C9  UNK     1      34.585  -7.062  37.497  1.00  0.00     0.011 C 
HETATM   12  C10 UNK     1      29.255  -7.160  38.284  1.00  0.00     0.018 C 
HETATM   13  C14 UNK     1      28.257  -7.231  39.409  1.00  0.00     0.069 C 
HETATM   14  H9  UNK     1      30.607  -6.284  39.573  1.00  0.00     0.165 HD
ENDROOT
BRANCH   8  15
HETATM   15  C11 UNK     1      30.565  -8.920  35.567  1.00  0.00     0.029 A 
HETATM   16  C15 UNK     1      30.181  -9.430  34.227  1.00  0.00     0.194 A 
HETATM   17  O7  UNK     1      29.536  -8.756  33.434  1.00  0.00    -0.287 OA
HETATM   18  C17 UNK     1      30.619 -10.800  33.898  1.00  0.00     0.049 A 
HETATM   19  C18 UNK     1      31.352 -11.522  34.841  1.00  0.00     0.089 A 
HETATM   20  C20 UNK     1      30.308 -11.370  32.662  1.00  0.00     0.025 A 
HETATM   21  O4  UNK     1      31.685 -11.011  36.070  1.00  0.00    -0.321 OA
HETATM   22  C23 UNK     1      31.776 -12.818  34.551  1.00  0.00     0.039 A 
HETATM   23  C16 UNK     1      31.270  -9.735  36.362  1.00  0.00     0.154 A 
HETATM   24  C26 UNK     1      31.467 -13.390  33.317  1.00  0.00     0.009 A 
HETATM   25  C24 UNK     1      30.734 -12.668  32.375  1.00  0.00    -0.061 A 
HETATM   26  C28 UNK     1      30.406 -13.284  31.056  1.00  0.00     0.048 C 
ENDBRANCH   8  15
BRANCH  10  27
HETATM   27  C13 UNK     1      27.721  -8.071  36.576  1.00  0.00     0.292 C 
HETATM   28  O6  UNK     1      26.849  -7.340  36.145  1.00  0.00    -0.259 OA
BRANCH  27  29
HETATM   29  O3  UNK     1      27.685  -9.414  36.741  1.00  0.00    -0.313 OA
BRANCH  29  30
HETATM   30  C19 UNK     1      26.523  -9.912  37.412  1.00  0.00     0.127 C 
HETATM   31  C25 UNK     1      26.936 -10.450  38.776  1.00  0.00     0.040 C 
BRANCH  30  32
HETATM   32  C22 UNK     1      25.880 -11.006  36.557  1.00  0.00     0.027 C 
HETATM   33  C27 UNK     1      24.416 -10.714  36.253  1.00  0.00     0.007 C 
ENDBRANCH  30  32
ENDBRANCH  29  30
ENDBRANCH  27  29
ENDBRANCH  10  27
BRANCH   4  34
HETATM   34  C12 UNK     1      34.702  -5.393  34.981  1.00  0.00     0.270 C 
HETATM   35  O5  UNK     1      35.500  -6.319  34.913  1.00  0.00    -0.264 OA
BRANCH  34  36
HETATM   36  O2  UNK     1      34.749  -4.229  34.273  1.00  0.00    -0.326 OA
HETATM   37  C21 UNK     1      34.244  -3.075  34.953  1.00  0.00     0.213 C 
ENDBRANCH  34  36
ENDBRANCH   4  34
TORSDOF 7
ENDMDL
MODEL 10
REMARK VINA RESULT:      -7.6      2.359      6.221
REMARK  7 active torsions:
REMARK  status: ('A' for Active; 'I' for Inactive)
REMARK    1  A    between atoms: C12_20  and  O2_2 
REMARK    2  A    between atoms: C13_21  and  O3_3 
REMARK    3  A    between atoms: C19_27  and  O3_3 
REMARK    4  A    between atoms: C12_20  and  C2_10 
REMARK    5  A    between atoms: C11_19  and  C6_14 
REMARK    6  A    between atoms: C13_21  and  C8_16 
REMARK    7  A    between atoms: C19_27  and  C22_30 
ROOT
HETATM    1  O1  UNK     1      29.595  -8.566  33.758  1.00  0.00    -0.292 OA
HETATM    2  N1  UNK     1      33.879  -8.350  35.766  1.00  0.00    -0.362 N 
HETATM    3  C1  UNK     1      32.425 -10.777  33.260  1.00  0.00     0.008 C 
HETATM    4  C2  UNK     1      31.328  -9.857  32.707  1.00  0.00     0.164 C 
HETATM    5  C3  UNK     1      33.520  -9.914  33.908  1.00  0.00     0.063 C 
HETATM    6  C4  UNK     1      31.695  -8.462  34.856  1.00  0.00     0.025 C 
HETATM    7  C5  UNK     1      32.978  -8.880  34.862  1.00  0.00     0.020 C 
HETATM    8  C6  UNK     1      31.187  -7.459  35.890  1.00  0.00     0.104 C 
HETATM    9  C7  UNK     1      30.764  -8.949  33.788  1.00  0.00     0.172 C 
HETATM   10  C8  UNK     1      32.325  -6.822  36.690  1.00  0.00     0.052 C 
HETATM   11  C9  UNK     1      31.898 -11.832  34.246  1.00  0.00     0.011 C 
HETATM   12  C10 UNK     1      33.589  -7.301  36.624  1.00  0.00     0.018 C 
HETATM   13  C14 UNK     1      34.761  -6.783  37.414  1.00  0.00     0.069 C 
HETATM   14  H9  UNK     1      34.835  -8.685  35.734  1.00  0.00     0.165 HD
ENDROOT
BRANCH   8  15
HETATM   15  C11 UNK     1      30.199  -8.115  36.823  1.00  0.00     0.029 A 
HETATM   16  C15 UNK     1      28.828  -7.553  36.917  1.00  0.00     0.194 A 
HETATM   17  O7  UNK     1      28.479  -6.579  36.262  1.00  0.00    -0.287 OA
HETATM   18  C17 UNK     1      27.905  -8.232  37.844  1.00  0.00     0.049 A 
HETATM   19  C18 UNK     1      28.358  -9.338  38.564  1.00  0.00     0.089 A 
HETATM   20  C20 UNK     1      26.593  -7.779  38.002  1.00  0.00     0.025 A 
HETATM   21  O4  UNK     1      29.635  -9.825  38.448  1.00  0.00    -0.321 OA
HETATM   22  C23 UNK     1      27.501  -9.995  39.447  1.00  0.00     0.039 A 
HETATM   23  C16 UNK     1      30.485  -9.183  37.581  1.00  0.00     0.154 A 
HETATM   24  C26 UNK     1      26.191  -9.545  39.607  1.00  0.00     0.009 A 
HETATM   25  C24 UNK     1      25.738  -8.439  38.887  1.00  0.00    -0.061 A 
HETATM   26  C28 UNK     1      24.335  -7.962  39.061  1.00  0.00     0.048 C 
ENDBRANCH   8  15
BRANCH  10  27
HETATM   27  C13 UNK     1      31.990  -5.629  37.487  1.00  0.00     0.292 C 
HETATM   28  O6  UNK     1      32.044  -5.600  38.702  1.00  0.00    -0.259 OA
BRANCH  27  29
HETATM   29  O3  UNK     1      31.632  -4.637  36.638  1.00  0.00    -0.313 OA
BRANCH  29  30
HETATM   30  C19 UNK     1      32.686  -3.740  36.274  1.00  0.00     0.127 C 
HETATM   31  C25 UNK     1      32.217  -2.310  36.505  1.00  0.00     0.040 C 
BRANCH  30  32
HETATM   32  C22 UNK     1      33.059  -3.971  34.808  1.00  0.00     0.027 C 
HETATM   33  C27 UNK     1      34.540  -4.277  34.631  1.00  0.00     0.007 C 
ENDBRANCH  30  32
ENDBRANCH  29  30
ENDBRANCH  27  29
ENDBRANCH  10  27
BRANCH   4  34
HETATM   34  C12 UNK     1      30.286 -10.651  31.980  1.00  0.00     0.270 C 
HETATM   35  O5  UNK     1      29.548 -11.467  32.516  1.00  0.00    -0.264 OA
BRANCH  34  36
HETATM   36  O2  UNK     1      30.301 -10.319  30.657  1.00  0.00    -0.326 OA
HETATM   37  C21 UNK     1      29.407  -9.269  30.276  1.00  0.00     0.213 C 
ENDBRANCH  34  36
ENDBRANCH   4  34
TORSDOF 7
ENDMDL
