MODEL 1
REMARK VINA RESULT:      -7.2      0.000      0.000
REMARK  0 active torsions:
REMARK  status: ('A' for Active; 'I' for Inactive)
ROOT
HETATM    1  O1  UNK     1      20.877  -2.848  30.570  1.00  0.00    -0.322 OA
HETATM    2  O2  UNK     1      18.864   0.992  32.383  1.00  0.00    -0.274 OA
HETATM    3  O3  UNK     1      17.884   2.860  33.274  1.00  0.00    -0.260 OA
HETATM    4  C1  UNK     1      19.907  -0.983  31.395  1.00  0.00     0.034 A 
HETATM    5  C2  UNK     1      19.341   0.295  31.247  1.00  0.00     0.102 A 
HETATM    6  C3  UNK     1      19.250   0.880  29.978  1.00  0.00    -0.001 A 
HETATM    7  C4  UNK     1      20.362  -1.627  30.250  1.00  0.00     0.088 A 
HETATM    8  C5  UNK     1      19.723   0.190  28.855  1.00  0.00     0.017 A 
HETATM    9  C6  UNK     1      20.292  -1.085  28.967  1.00  0.00     0.039 A 
HETATM   10  C7  UNK     1      20.166  -1.873  32.469  1.00  0.00     0.041 A 
HETATM   11  C8  UNK     1      18.659   2.204  29.861  1.00  0.00     0.020 A 
HETATM   12  C9  UNK     1      20.753  -2.987  31.916  1.00  0.00     0.143 A 
HETATM   13  C10 UNK     1      18.214   2.848  30.942  1.00  0.00     0.083 A 
HETATM   14  C11 UNK     1      18.298   2.258  32.289  1.00  0.00     0.288 A 
ENDROOT
TORSDOF 0
ENDMDL
MODEL 2
REMARK VINA RESULT:      -7.2      6.335      7.721
REMARK  0 active torsions:
REMARK  status: ('A' for Active; 'I' for Inactive)
ROOT
HETATM    1  O1  UNK     1      20.702   6.147  31.519  1.00  0.00    -0.322 OA
HETATM    2  O2  UNK     1      16.034   6.660  31.696  1.00  0.00    -0.274 OA
HETATM    3  O3  UNK     1      13.758   6.907  31.774  1.00  0.00    -0.260 OA
HETATM    4  C1  UNK     1      18.463   6.409  31.652  1.00  0.00     0.034 A 
HETATM    5  C2  UNK     1      17.289   6.752  32.345  1.00  0.00     0.102 A 
HETATM    6  C3  UNK     1      17.359   7.184  33.674  1.00  0.00    -0.001 A 
HETATM    7  C4  UNK     1      19.671   6.516  32.331  1.00  0.00     0.088 A 
HETATM    8  C5  UNK     1      18.601   7.274  34.315  1.00  0.00     0.017 A 
HETATM    9  C6  UNK     1      19.790   6.941  33.654  1.00  0.00     0.039 A 
HETATM   10  C7  UNK     1      18.789   5.948  30.351  1.00  0.00     0.041 A 
HETATM   11  C8  UNK     1      16.124   7.532  34.362  1.00  0.00     0.020 A 
HETATM   12  C9  UNK     1      20.157   5.806  30.322  1.00  0.00     0.143 A 
HETATM   13  C10 UNK     1      14.949   7.438  33.736  1.00  0.00     0.083 A 
HETATM   14  C11 UNK     1      14.845   6.986  32.338  1.00  0.00     0.288 A 
ENDROOT
TORSDOF 0
ENDMDL
MODEL 3
REMARK VINA RESULT:      -7.1      1.608      3.974
REMARK  0 active torsions:
REMARK  status: ('A' for Active; 'I' for Inactive)
ROOT
HETATM    1  O1  UNK     1      18.993   1.605  28.555  1.00  0.00    -0.322 OA
HETATM    2  O2  UNK     1      19.280  -0.345  32.822  1.00  0.00    -0.274 OA
HETATM    3  O3  UNK     1      19.415  -1.289  34.904  1.00  0.00    -0.260 OA
HETATM    4  C1  UNK     1      19.156   0.629  30.585  1.00  0.00     0.034 A 
HETATM    5  C2  UNK     1      19.573  -0.408  31.438  1.00  0.00     0.102 A 
HETATM    6  C3  UNK     1      20.275  -1.502  30.921  1.00  0.00    -0.001 A 
HETATM    7  C4  UNK     1      19.467   0.522  29.235  1.00  0.00     0.088 A 
HETATM    8  C5  UNK     1      20.564  -1.564  29.552  1.00  0.00     0.017 A 
HETATM    9  C6  UNK     1      20.164  -0.548  28.675  1.00  0.00     0.039 A 
HETATM   10  C7  UNK     1      18.451   1.853  30.725  1.00  0.00     0.041 A 
HETATM   11  C8  UNK     1      20.692  -2.558  31.831  1.00  0.00     0.020 A 
HETATM   12  C9  UNK     1      18.380   2.404  29.468  1.00  0.00     0.143 A 
HETATM   13  C10 UNK     1      20.407  -2.484  33.133  1.00  0.00     0.083 A 
HETATM   14  C11 UNK     1      19.669  -1.345  33.705  1.00  0.00     0.288 A 
ENDROOT
TORSDOF 0
ENDMDL
MODEL 4
REMARK VINA RESULT:      -6.9     23.948     25.341
REMARK  0 active torsions:
REMARK  status: ('A' for Active; 'I' for Inactive)
ROOT
HETATM    1  O1  UNK     1       7.759   5.438   7.574  1.00  0.00    -0.322 OA
HETATM    2  O2  UNK     1      11.892   6.276   9.648  1.00  0.00    -0.274 OA
HETATM    3  O3  UNK     1      13.903   6.681  10.666  1.00  0.00    -0.260 OA
HETATM    4  C1  UNK     1       9.765   5.853   8.525  1.00  0.00     0.034 A 
HETATM    5  C2  UNK     1      11.115   6.240   8.465  1.00  0.00     0.102 A 
HETATM    6  C3  UNK     1      11.691   6.589   7.238  1.00  0.00    -0.001 A 
HETATM    7  C4  UNK     1       9.043   5.833   7.338  1.00  0.00     0.088 A 
HETATM    8  C5  UNK     1      10.921   6.552   6.069  1.00  0.00     0.017 A 
HETATM    9  C6  UNK     1       9.574   6.172   6.094  1.00  0.00     0.039 A 
HETATM   10  C7  UNK     1       8.858   5.444   9.538  1.00  0.00     0.041 A 
HETATM   11  C8  UNK     1      13.091   6.985   7.212  1.00  0.00     0.020 A 
HETATM   12  C9  UNK     1       7.659   5.205   8.909  1.00  0.00     0.143 A 
HETATM   13  C10 UNK     1      13.810   7.013   8.336  1.00  0.00     0.083 A 
HETATM   14  C11 UNK     1      13.231   6.650   9.641  1.00  0.00     0.288 A 
ENDROOT
TORSDOF 0
ENDMDL
MODEL 5
REMARK VINA RESULT:      -6.9      2.001      3.492
REMARK  0 active torsions:
REMARK  status: ('A' for Active; 'I' for Inactive)
ROOT
HETATM    1  O1  UNK     1      19.203  -1.716  34.910  1.00  0.00    -0.322 OA
HETATM    2  O2  UNK     1      18.710   0.686  30.900  1.00  0.00    -0.274 OA
HETATM    3  O3  UNK     1      18.466   1.862  28.951  1.00  0.00    -0.260 OA
HETATM    4  C1  UNK     1      18.999  -0.594  32.960  1.00  0.00     0.034 A 
HETATM    5  C2  UNK     1      19.302  -0.392  31.603  1.00  0.00     0.102 A 
HETATM    6  C3  UNK     1      20.187  -1.254  30.945  1.00  0.00    -0.001 A 
HETATM    7  C4  UNK     1      19.604  -1.665  33.608  1.00  0.00     0.088 A 
HETATM    8  C5  UNK     1      20.771  -2.319  31.642  1.00  0.00     0.017 A 
HETATM    9  C6  UNK     1      20.491  -2.549  32.994  1.00  0.00     0.039 A 
HETATM   10  C7  UNK     1      18.184   0.038  33.936  1.00  0.00     0.041 A 
HETATM   11  C8  UNK     1      20.478  -1.017  29.540  1.00  0.00     0.020 A 
HETATM   12  C9  UNK     1      18.343  -0.681  35.097  1.00  0.00     0.143 A 
HETATM   13  C10 UNK     1      19.913   0.005  28.892  1.00  0.00     0.083 A 
HETATM   14  C11 UNK     1      18.979   0.928  29.558  1.00  0.00     0.288 A 
ENDROOT
TORSDOF 0
ENDMDL
MODEL 6
REMARK VINA RESULT:      -6.8      1.065      4.359
REMARK  0 active torsions:
REMARK  status: ('A' for Active; 'I' for Inactive)
ROOT
HETATM    1  O1  UNK     1      17.826   2.969  32.806  1.00  0.00    -0.322 OA
HETATM    2  O2  UNK     1      19.839  -1.068  31.489  1.00  0.00    -0.274 OA
HETATM    3  O3  UNK     1      20.819  -3.039  30.855  1.00  0.00    -0.260 OA
HETATM    4  C1  UNK     1      18.794   1.045  32.125  1.00  0.00     0.034 A 
HETATM    5  C2  UNK     1      19.336   0.207  31.135  1.00  0.00     0.102 A 
HETATM    6  C3  UNK     1      19.378   0.631  29.802  1.00  0.00    -0.001 A 
HETATM    7  C4  UNK     1      18.313   2.288  31.730  1.00  0.00     0.088 A 
HETATM    8  C5  UNK     1      18.880   1.893  29.454  1.00  0.00     0.017 A 
HETATM    9  C6  UNK     1      18.334   2.753  30.415  1.00  0.00     0.039 A 
HETATM   10  C7  UNK     1      18.582   0.976  33.527  1.00  0.00     0.041 A 
HETATM   11  C8  UNK     1      19.946  -0.262  28.803  1.00  0.00     0.020 A 
HETATM   12  C9  UNK     1      17.995   2.165  33.888  1.00  0.00     0.143 A 
HETATM   13  C10 UNK     1      20.415  -1.461  29.153  1.00  0.00     0.083 A 
HETATM   14  C11 UNK     1      20.383  -1.934  30.548  1.00  0.00     0.288 A 
ENDROOT
TORSDOF 0
ENDMDL
MODEL 7
REMARK VINA RESULT:      -6.8      6.514      8.695
REMARK  0 active torsions:
REMARK  status: ('A' for Active; 'I' for Inactive)
ROOT
HETATM    1  O1  UNK     1      14.569   7.728  34.060  1.00  0.00    -0.322 OA
HETATM    2  O2  UNK     1      18.050   6.401  31.195  1.00  0.00    -0.274 OA
HETATM    3  O3  UNK     1      19.742   5.755  29.793  1.00  0.00    -0.260 OA
HETATM    4  C1  UNK     1      16.275   7.096  32.721  1.00  0.00     0.034 A 
HETATM    5  C2  UNK     1      17.633   6.827  32.479  1.00  0.00     0.102 A 
HETATM    6  C3  UNK     1      18.572   6.980  33.505  1.00  0.00    -0.001 A 
HETATM    7  C4  UNK     1      15.913   7.512  33.997  1.00  0.00     0.088 A 
HETATM    8  C5  UNK     1      18.158   7.402  34.775  1.00  0.00     0.017 A 
HETATM    9  C6  UNK     1      16.813   7.678  35.050  1.00  0.00     0.039 A 
HETATM   10  C7  UNK     1      15.071   7.061  31.970  1.00  0.00     0.041 A 
HETATM   11  C8  UNK     1      19.970   6.693  33.221  1.00  0.00     0.020 A 
HETATM   12  C9  UNK     1      14.069   7.451  32.827  1.00  0.00     0.143 A 
HETATM   13  C10 UNK     1      20.348   6.293  32.004  1.00  0.00     0.083 A 
HETATM   14  C11 UNK     1      19.381   6.125  30.905  1.00  0.00     0.288 A 
ENDROOT
TORSDOF 0
ENDMDL
MODEL 8
REMARK VINA RESULT:      -6.7     10.661     13.182
REMARK  0 active torsions:
REMARK  status: ('A' for Active; 'I' for Inactive)
ROOT
HETATM    1  O1  UNK     1      28.745  -5.074  31.906  1.00  0.00    -0.322 OA
HETATM    2  O2  UNK     1      30.263  -8.310  28.855  1.00  0.00    -0.274 OA
HETATM    3  O3  UNK     1      31.011  -9.883  27.369  1.00  0.00    -0.260 OA
HETATM    4  C1  UNK     1      29.429  -6.651  30.442  1.00  0.00     0.034 A 
HETATM    5  C2  UNK     1      29.218  -7.803  29.665  1.00  0.00     0.102 A 
HETATM    6  C3  UNK     1      27.977  -8.450  29.691  1.00  0.00    -0.001 A 
HETATM    7  C4  UNK     1      28.373  -6.192  31.221  1.00  0.00     0.088 A 
HETATM    8  C5  UNK     1      26.944  -7.948  30.492  1.00  0.00     0.017 A 
HETATM    9  C6  UNK     1      27.121  -6.803  31.279  1.00  0.00     0.039 A 
HETATM   10  C7  UNK     1      30.502  -5.752  30.675  1.00  0.00     0.041 A 
HETATM   11  C8  UNK     1      27.793  -9.640  28.874  1.00  0.00     0.020 A 
HETATM   12  C9  UNK     1      30.035  -4.816  31.568  1.00  0.00     0.143 A 
HETATM   13  C10 UNK     1      28.788 -10.105  28.117  1.00  0.00     0.083 A 
HETATM   14  C11 UNK     1      30.105  -9.446  28.070  1.00  0.00     0.288 A 
ENDROOT
TORSDOF 0
ENDMDL
MODEL 9
REMARK VINA RESULT:      -6.6      8.969     11.122
REMARK  0 active torsions:
REMARK  status: ('A' for Active; 'I' for Inactive)
ROOT
HETATM    1  O1  UNK     1      18.045  -8.401  36.039  1.00  0.00    -0.322 OA
HETATM    2  O2  UNK     1      21.909  -6.439  37.856  1.00  0.00    -0.274 OA
HETATM    3  O3  UNK     1      23.791  -5.476  38.736  1.00  0.00    -0.260 OA
HETATM    4  C1  UNK     1      19.903  -7.494  36.948  1.00  0.00     0.034 A 
HETATM    5  C2  UNK     1      20.933  -7.463  37.903  1.00  0.00     0.102 A 
HETATM    6  C3  UNK     1      20.994  -8.442  38.902  1.00  0.00    -0.001 A 
HETATM    7  C4  UNK     1      18.968  -8.519  37.036  1.00  0.00     0.088 A 
HETATM    8  C5  UNK     1      20.028  -9.454  38.948  1.00  0.00     0.017 A 
HETATM    9  C6  UNK     1      18.989  -9.515  38.011  1.00  0.00     0.039 A 
HETATM   10  C7  UNK     1      19.516  -6.712  35.828  1.00  0.00     0.041 A 
HETATM   11  C8  UNK     1      22.074  -8.380  39.875  1.00  0.00     0.020 A 
HETATM   12  C9  UNK     1      18.387  -7.305  35.314  1.00  0.00     0.143 A 
HETATM   13  C10 UNK     1      22.986  -7.407  39.817  1.00  0.00     0.083 A 
HETATM   14  C11 UNK     1      22.946  -6.363  38.778  1.00  0.00     0.288 A 
ENDROOT
TORSDOF 0
ENDMDL
MODEL 10
REMARK VINA RESULT:      -6.5      9.502     11.111
REMARK  0 active torsions:
REMARK  status: ('A' for Active; 'I' for Inactive)
ROOT
HETATM    1  O1  UNK     1      20.935 -11.504  35.874  1.00  0.00    -0.322 OA
HETATM    2  O2  UNK     1      21.635  -7.015  37.075  1.00  0.00    -0.274 OA
HETATM    3  O3  UNK     1      21.980  -4.826  37.653  1.00  0.00    -0.260 OA
HETATM    4  C1  UNK     1      21.239  -9.353  36.490  1.00  0.00     0.034 A 
HETATM    5  C2  UNK     1      20.997  -8.253  37.331  1.00  0.00     0.102 A 
HETATM    6  C3  UNK     1      20.127  -8.380  38.420  1.00  0.00    -0.001 A 
HETATM    7  C4  UNK     1      20.590 -10.547  36.781  1.00  0.00     0.088 A 
HETATM    8  C5  UNK     1      19.497  -9.605  38.672  1.00  0.00     0.017 A 
HETATM    9  C6  UNK     1      19.716 -10.721  37.854  1.00  0.00     0.039 A 
HETATM   10  C7  UNK     1      22.022  -9.609  35.334  1.00  0.00     0.041 A 
HETATM   11  C8  UNK     1      19.899  -7.221  39.270  1.00  0.00     0.020 A 
HETATM   12  C9  UNK     1      21.802 -10.926  35.003  1.00  0.00     0.143 A 
HETATM   13  C10 UNK     1      20.507  -6.061  39.015  1.00  0.00     0.083 A 
HETATM   14  C11 UNK     1      21.427  -5.898  37.876  1.00  0.00     0.288 A 
ENDROOT
TORSDOF 0
ENDMDL
