MODEL 1
REMARK VINA RESULT:      -9.2      0.000      0.000
REMARK  4 active torsions:
REMARK  status: ('A' for Active; 'I' for Inactive)
REMARK    1  A    between atoms: C12_16  and  O2_2 
REMARK    2  A    between atoms: C4_8  and  O2_2 
REMARK    3  A    between atoms: C12_16  and  C13_17 
REMARK    4  A    between atoms: C13_17  and  C14_18 
ROOT
HETATM    1  O1  UNK     1      20.377   7.793  33.318  1.00  0.00    -0.274 OA
HETATM    2  O3  UNK     1      21.053   9.591  34.557  1.00  0.00    -0.260 OA
HETATM    3  C1  UNK     1      18.044   7.074  33.429  1.00  0.00     0.005 A 
HETATM    4  C2  UNK     1      19.339   6.923  32.929  1.00  0.00     0.099 A 
HETATM    5  C3  UNK     1      19.675   5.914  32.025  1.00  0.00     0.006 A 
HETATM    6  C4  UNK     1      18.692   5.025  31.602  1.00  0.00     0.078 A 
HETATM    7  C5  UNK     1      17.780   8.165  34.377  1.00  0.00    -0.043 A 
HETATM    8  C6  UNK     1      17.069   6.169  32.992  1.00  0.00     0.017 A 
HETATM    9  C7  UNK     1      17.391   5.152  32.085  1.00  0.00     0.038 A 
HETATM   10  C8  UNK     1      21.072   5.786  31.511  1.00  0.00     0.054 C 
HETATM   11  C9  UNK     1      18.786   8.977  34.730  1.00  0.00     0.090 A 
HETATM   12  C10 UNK     1      16.399   8.354  34.933  1.00  0.00     0.049 C 
HETATM   13  C11 UNK     1      20.157   8.830  34.211  1.00  0.00     0.288 A 
ENDROOT
BRANCH   6  14
HETATM   14  O2  UNK     1      18.982   4.029  30.720  1.00  0.00    -0.343 OA
BRANCH  14  15
HETATM   15  C12 UNK     1      18.002   3.004  30.556  1.00  0.00     0.259 C 
BRANCH  15  16
HETATM   16  C13 UNK     1      18.376   2.111  29.389  1.00  0.00     0.183 C 
HETATM   17  O4  UNK     1      18.056   2.388  28.235  1.00  0.00    -0.290 OA
BRANCH  16  18
HETATM   18  C14 UNK     1      19.148   0.865  29.660  1.00  0.00     0.012 A 
HETATM   19  C15 UNK     1      19.460   0.550  30.963  1.00  0.00     0.015 A 
HETATM   20  C17 UNK     1      20.184  -0.616  31.216  1.00  0.00     0.001 A 
HETATM   21  C19 UNK     1      20.576  -1.436  30.158  1.00  0.00     0.000 A 
HETATM   22  C18 UNK     1      20.245  -1.090  28.848  1.00  0.00     0.001 A 
HETATM   23  C16 UNK     1      19.522   0.075  28.595  1.00  0.00     0.015 A 
ENDBRANCH  16  18
ENDBRANCH  15  16
ENDBRANCH  14  15
ENDBRANCH   6  14
TORSDOF 4
ENDMDL
MODEL 2
REMARK VINA RESULT:      -9.0      1.908      2.937
REMARK  4 active torsions:
REMARK  status: ('A' for Active; 'I' for Inactive)
REMARK    1  A    between atoms: C12_16  and  O2_2 
REMARK    2  A    between atoms: C4_8  and  O2_2 
REMARK    3  A    between atoms: C12_16  and  C13_17 
REMARK    4  A    between atoms: C13_17  and  C14_18 
ROOT
HETATM    1  O1  UNK     1      16.678   9.119  33.251  1.00  0.00    -0.274 OA
HETATM    2  O3  UNK     1      16.312  11.284  33.889  1.00  0.00    -0.260 OA
HETATM    3  C1  UNK     1      18.901   8.148  33.538  1.00  0.00     0.005 A 
HETATM    4  C2  UNK     1      17.571   8.036  33.128  1.00  0.00     0.099 A 
HETATM    5  C3  UNK     1      17.055   6.860  32.583  1.00  0.00     0.006 A 
HETATM    6  C4  UNK     1      17.889   5.755  32.438  1.00  0.00     0.078 A 
HETATM    7  C5  UNK     1      19.358   9.425  34.102  1.00  0.00    -0.043 A 
HETATM    8  C6  UNK     1      19.725   7.025  33.383  1.00  0.00     0.017 A 
HETATM    9  C7  UNK     1      19.222   5.838  32.837  1.00  0.00     0.038 A 
HETATM   10  C8  UNK     1      15.625   6.780  32.158  1.00  0.00     0.054 C 
HETATM   11  C9  UNK     1      18.487  10.438  34.206  1.00  0.00     0.090 A 
HETATM   12  C10 UNK     1      20.782   9.576  34.551  1.00  0.00     0.049 C 
HETATM   13  C11 UNK     1      17.081  10.335  33.779  1.00  0.00     0.288 A 
ENDROOT
BRANCH   6  14
HETATM   14  O2  UNK     1      17.422   4.590  31.910  1.00  0.00    -0.343 OA
BRANCH  14  15
HETATM   15  C12 UNK     1      18.361   3.773  31.213  1.00  0.00     0.259 C 
BRANCH  15  16
HETATM   16  C13 UNK     1      18.317   2.356  31.751  1.00  0.00     0.183 C 
HETATM   17  O4  UNK     1      17.762   2.087  32.814  1.00  0.00    -0.290 OA
BRANCH  16  18
HETATM   18  C14 UNK     1      18.971   1.271  30.966  1.00  0.00     0.012 A 
HETATM   19  C15 UNK     1      19.082   1.417  29.601  1.00  0.00     0.015 A 
HETATM   20  C17 UNK     1      19.693   0.400  28.867  1.00  0.00     0.001 A 
HETATM   21  C19 UNK     1      20.177  -0.735  29.516  1.00  0.00     0.000 A 
HETATM   22  C18 UNK     1      20.050  -0.854  30.900  1.00  0.00     0.001 A 
HETATM   23  C16 UNK     1      19.439   0.162  31.635  1.00  0.00     0.015 A 
ENDBRANCH  16  18
ENDBRANCH  15  16
ENDBRANCH  14  15
ENDBRANCH   6  14
TORSDOF 4
ENDMDL
MODEL 3
REMARK VINA RESULT:      -9.0      2.325      8.234
REMARK  4 active torsions:
REMARK  status: ('A' for Active; 'I' for Inactive)
REMARK    1  A    between atoms: C12_16  and  O2_2 
REMARK    2  A    between atoms: C4_8  and  O2_2 
REMARK    3  A    between atoms: C12_16  and  C13_17 
REMARK    4  A    between atoms: C13_17  and  C14_18 
ROOT
HETATM    1  O1  UNK     1      19.297  -0.391  32.857  1.00  0.00    -0.274 OA
HETATM    2  O3  UNK     1      20.121  -2.483  33.274  1.00  0.00    -0.260 OA
HETATM    3  C1  UNK     1      19.414   0.508  30.589  1.00  0.00     0.005 A 
HETATM    4  C2  UNK     1      19.054   0.642  31.931  1.00  0.00     0.099 A 
HETATM    5  C3  UNK     1      18.438   1.793  32.425  1.00  0.00     0.006 A 
HETATM    6  C4  UNK     1      18.170   2.847  31.558  1.00  0.00     0.078 A 
HETATM    7  C5  UNK     1      20.059  -0.739  30.155  1.00  0.00    -0.043 A 
HETATM    8  C6  UNK     1      19.137   1.581  29.731  1.00  0.00     0.017 A 
HETATM    9  C7  UNK     1      18.519   2.741  30.213  1.00  0.00     0.038 A 
HETATM   10  C8  UNK     1      18.065   1.897  33.869  1.00  0.00     0.054 C 
HETATM   11  C9  UNK     1      20.278  -1.705  31.058  1.00  0.00     0.090 A 
HETATM   12  C10 UNK     1      20.459  -0.913  28.719  1.00  0.00     0.049 C 
HETATM   13  C11 UNK     1      19.903  -1.578  32.476  1.00  0.00     0.288 A 
ENDROOT
BRANCH   6  14
HETATM   14  O2  UNK     1      17.570   3.985  32.003  1.00  0.00    -0.343 OA
BRANCH  14  15
HETATM   15  C12 UNK     1      18.371   5.164  32.051  1.00  0.00     0.259 C 
BRANCH  15  16
HETATM   16  C13 UNK     1      17.537   6.341  32.519  1.00  0.00     0.183 C 
HETATM   17  O4  UNK     1      16.317   6.364  32.376  1.00  0.00    -0.290 OA
BRANCH  16  18
HETATM   18  C14 UNK     1      18.225   7.495  33.165  1.00  0.00     0.012 A 
HETATM   19  C15 UNK     1      17.557   8.695  33.257  1.00  0.00     0.015 A 
HETATM   20  C17 UNK     1      18.202   9.776  33.860  1.00  0.00     0.001 A 
HETATM   21  C19 UNK     1      19.498   9.627  34.356  1.00  0.00     0.000 A 
HETATM   22  C18 UNK     1      20.148   8.397  34.247  1.00  0.00     0.001 A 
HETATM   23  C16 UNK     1      19.504   7.318  33.645  1.00  0.00     0.015 A 
ENDBRANCH  16  18
ENDBRANCH  15  16
ENDBRANCH  14  15
ENDBRANCH   6  14
TORSDOF 4
ENDMDL
MODEL 4
REMARK VINA RESULT:      -8.9      4.324      7.868
REMARK  4 active torsions:
REMARK  status: ('A' for Active; 'I' for Inactive)
REMARK    1  A    between atoms: C12_16  and  O2_2 
REMARK    2  A    between atoms: C4_8  and  O2_2 
REMARK    3  A    between atoms: C12_16  and  C13_17 
REMARK    4  A    between atoms: C13_17  and  C14_18 
ROOT
HETATM    1  O1  UNK     1      20.228  -2.919  34.830  1.00  0.00    -0.274 OA
HETATM    2  O3  UNK     1      20.940  -4.341  36.473  1.00  0.00    -0.260 OA
HETATM    3  C1  UNK     1      18.718  -1.087  35.406  1.00  0.00     0.005 A 
HETATM    4  C2  UNK     1      19.461  -1.796  34.460  1.00  0.00     0.099 A 
HETATM    5  C3  UNK     1      19.487  -1.438  33.112  1.00  0.00     0.006 A 
HETATM    6  C4  UNK     1      18.750  -0.337  32.687  1.00  0.00     0.078 A 
HETATM    7  C5  UNK     1      18.749  -1.536  36.805  1.00  0.00    -0.043 A 
HETATM    8  C6  UNK     1      17.982   0.018  34.958  1.00  0.00     0.017 A 
HETATM    9  C7  UNK     1      17.998   0.390  33.609  1.00  0.00     0.038 A 
HETATM   10  C8  UNK     1      20.296  -2.222  32.130  1.00  0.00     0.054 C 
HETATM   11  C9  UNK     1      19.487  -2.607  37.127  1.00  0.00     0.090 A 
HETATM   12  C10 UNK     1      17.961  -0.794  37.845  1.00  0.00     0.049 C 
HETATM   13  C11 UNK     1      20.276  -3.365  36.141  1.00  0.00     0.288 A 
ENDROOT
BRANCH   6  14
HETATM   14  O2  UNK     1      18.751   0.044  31.379  1.00  0.00    -0.343 OA
BRANCH  14  15
HETATM   15  C12 UNK     1      19.431   1.256  31.059  1.00  0.00     0.259 C 
BRANCH  15  16
HETATM   16  C13 UNK     1      18.455   2.261  30.479  1.00  0.00     0.183 C 
HETATM   17  O4  UNK     1      17.586   1.928  29.676  1.00  0.00    -0.290 OA
BRANCH  16  18
HETATM   18  C14 UNK     1      18.563   3.688  30.896  1.00  0.00     0.012 A 
HETATM   19  C15 UNK     1      19.113   4.594  30.017  1.00  0.00     0.015 A 
HETATM   20  C17 UNK     1      19.216   5.929  30.408  1.00  0.00     0.001 A 
HETATM   21  C19 UNK     1      18.765   6.324  31.668  1.00  0.00     0.000 A 
HETATM   22  C18 UNK     1      18.213   5.382  32.536  1.00  0.00     0.001 A 
HETATM   23  C16 UNK     1      18.110   4.048  32.145  1.00  0.00     0.015 A 
ENDBRANCH  16  18
ENDBRANCH  15  16
ENDBRANCH  14  15
ENDBRANCH   6  14
TORSDOF 4
ENDMDL
MODEL 5
REMARK VINA RESULT:      -8.9      7.721      9.845
REMARK  4 active torsions:
REMARK  status: ('A' for Active; 'I' for Inactive)
REMARK    1  A    between atoms: C12_16  and  O2_2 
REMARK    2  A    between atoms: C4_8  and  O2_2 
REMARK    3  A    between atoms: C12_16  and  C13_17 
REMARK    4  A    between atoms: C13_17  and  C14_18 
ROOT
HETATM    1  O1  UNK     1      18.748   0.051  33.955  1.00  0.00    -0.274 OA
HETATM    2  O3  UNK     1      17.912   1.984  33.064  1.00  0.00    -0.260 OA
HETATM    3  C1  UNK     1      18.363  -0.440  36.317  1.00  0.00     0.005 A 
HETATM    4  C2  UNK     1      18.905  -0.786  35.077  1.00  0.00     0.099 A 
HETATM    5  C3  UNK     1      19.623  -1.966  34.882  1.00  0.00     0.006 A 
HETATM    6  C4  UNK     1      19.810  -2.833  35.953  1.00  0.00     0.078 A 
HETATM    7  C5  UNK     1      17.620   0.823  36.432  1.00  0.00    -0.043 A 
HETATM    8  C6  UNK     1      18.562  -1.326  37.383  1.00  0.00     0.017 A 
HETATM    9  C7  UNK     1      19.280  -2.514  37.202  1.00  0.00     0.038 A 
HETATM   10  C8  UNK     1      20.187  -2.301  33.539  1.00  0.00     0.054 C 
HETATM   11  C9  UNK     1      17.487   1.600  35.347  1.00  0.00     0.090 A 
HETATM   12  C10 UNK     1      17.026   1.223  37.750  1.00  0.00     0.049 C 
HETATM   13  C11 UNK     1      18.053   1.248  34.034  1.00  0.00     0.288 A 
ENDROOT
BRANCH   6  14
HETATM   14  O2  UNK     1      20.504  -3.995  35.801  1.00  0.00    -0.343 OA
BRANCH  14  15
HETATM   15  C12 UNK     1      19.957  -5.162  36.411  1.00  0.00     0.259 C 
BRANCH  15  16
HETATM   16  C13 UNK     1      20.948  -5.745  37.399  1.00  0.00     0.183 C 
HETATM   17  O4  UNK     1      22.006  -5.179  37.662  1.00  0.00    -0.290 OA
BRANCH  16  18
HETATM   18  C14 UNK     1      20.623  -7.042  38.059  1.00  0.00     0.012 A 
HETATM   19  C15 UNK     1      21.554  -7.607  38.901  1.00  0.00     0.015 A 
HETATM   20  C17 UNK     1      21.249  -8.821  39.517  1.00  0.00     0.001 A 
HETATM   21  C19 UNK     1      20.022  -9.438  39.276  1.00  0.00     0.000 A 
HETATM   22  C18 UNK     1      19.099  -8.841  38.417  1.00  0.00     0.001 A 
HETATM   23  C16 UNK     1      19.403  -7.627  37.801  1.00  0.00     0.015 A 
ENDBRANCH  16  18
ENDBRANCH  15  16
ENDBRANCH  14  15
ENDBRANCH   6  14
TORSDOF 4
ENDMDL
MODEL 6
REMARK VINA RESULT:      -8.8      2.467      8.122
REMARK  4 active torsions:
REMARK  status: ('A' for Active; 'I' for Inactive)
REMARK    1  A    between atoms: C12_16  and  O2_2 
REMARK    2  A    between atoms: C4_8  and  O2_2 
REMARK    3  A    between atoms: C12_16  and  C13_17 
REMARK    4  A    between atoms: C13_17  and  C14_18 
ROOT
HETATM    1  O1  UNK     1      19.329  -0.453  32.916  1.00  0.00    -0.274 OA
HETATM    2  O3  UNK     1      20.174  -2.544  33.295  1.00  0.00    -0.260 OA
HETATM    3  C1  UNK     1      19.443   0.492  30.667  1.00  0.00     0.005 A 
HETATM    4  C2  UNK     1      19.077   0.596  32.010  1.00  0.00     0.099 A 
HETATM    5  C3  UNK     1      18.447   1.729  32.526  1.00  0.00     0.006 A 
HETATM    6  C4  UNK     1      18.170   2.797  31.679  1.00  0.00     0.078 A 
HETATM    7  C5  UNK     1      20.102  -0.739  30.210  1.00  0.00    -0.043 A 
HETATM    8  C6  UNK     1      19.156   1.579  29.830  1.00  0.00     0.017 A 
HETATM    9  C7  UNK     1      18.525   2.723  30.333  1.00  0.00     0.038 A 
HETATM   10  C8  UNK     1      18.069   1.801  33.970  1.00  0.00     0.054 C 
HETATM   11  C9  UNK     1      20.330  -1.720  31.094  1.00  0.00     0.090 A 
HETATM   12  C10 UNK     1      20.508  -0.880  28.773  1.00  0.00     0.049 C 
HETATM   13  C11 UNK     1      19.950  -1.626  32.514  1.00  0.00     0.288 A 
ENDROOT
BRANCH   6  14
HETATM   14  O2  UNK     1      17.556   3.920  32.145  1.00  0.00    -0.343 OA
BRANCH  14  15
HETATM   15  C12 UNK     1      18.368   5.080  32.313  1.00  0.00     0.259 C 
BRANCH  15  16
HETATM   16  C13 UNK     1      17.665   6.294  31.740  1.00  0.00     0.183 C 
HETATM   17  O4  UNK     1      18.004   6.790  30.668  1.00  0.00    -0.290 OA
BRANCH  16  18
HETATM   18  C14 UNK     1      16.536   6.897  32.506  1.00  0.00     0.012 A 
HETATM   19  C15 UNK     1      16.791   7.425  33.752  1.00  0.00     0.015 A 
HETATM   20  C17 UNK     1      15.735   7.988  34.469  1.00  0.00     0.001 A 
HETATM   21  C19 UNK     1      14.452   8.009  33.921  1.00  0.00     0.000 A 
HETATM   22  C18 UNK     1      14.226   7.466  32.656  1.00  0.00     0.001 A 
HETATM   23  C16 UNK     1      15.282   6.903  31.939  1.00  0.00     0.015 A 
ENDBRANCH  16  18
ENDBRANCH  15  16
ENDBRANCH  14  15
ENDBRANCH   6  14
TORSDOF 4
ENDMDL
MODEL 7
REMARK VINA RESULT:      -8.8      2.168      7.673
REMARK  4 active torsions:
REMARK  status: ('A' for Active; 'I' for Inactive)
REMARK    1  A    between atoms: C12_16  and  O2_2 
REMARK    2  A    between atoms: C4_8  and  O2_2 
REMARK    3  A    between atoms: C12_16  and  C13_17 
REMARK    4  A    between atoms: C13_17  and  C14_18 
ROOT
HETATM    1  O1  UNK     1      19.039   0.155  33.200  1.00  0.00    -0.274 OA
HETATM    2  O3  UNK     1      19.476  -1.741  34.399  1.00  0.00    -0.260 OA
HETATM    3  C1  UNK     1      19.453   0.168  30.792  1.00  0.00     0.005 A 
HETATM    4  C2  UNK     1      19.032   0.816  31.955  1.00  0.00     0.099 A 
HETATM    5  C3  UNK     1      18.583   2.137  31.950  1.00  0.00     0.006 A 
HETATM    6  C4  UNK     1      18.552   2.840  30.751  1.00  0.00     0.078 A 
HETATM    7  C5  UNK     1      19.910  -1.225  30.889  1.00  0.00    -0.043 A 
HETATM    8  C6  UNK     1      19.415   0.893  29.594  1.00  0.00     0.017 A 
HETATM    9  C7  UNK     1      18.967   2.219  29.574  1.00  0.00     0.038 A 
HETATM   10  C8  UNK     1      18.139   2.795  33.216  1.00  0.00     0.054 C 
HETATM   11  C9  UNK     1      19.906  -1.828  32.086  1.00  0.00     0.090 A 
HETATM   12  C10 UNK     1      20.370  -1.948  29.657  1.00  0.00     0.049 C 
HETATM   13  C11 UNK     1      19.464  -1.158  33.321  1.00  0.00     0.288 A 
ENDROOT
BRANCH   6  14
HETATM   14  O2  UNK     1      18.120   4.131  30.707  1.00  0.00    -0.343 OA
BRANCH  14  15
HETATM   15  C12 UNK     1      18.950   5.069  30.024  1.00  0.00     0.259 C 
BRANCH  15  16
HETATM   16  C13 UNK     1      19.859   5.773  31.012  1.00  0.00     0.183 C 
HETATM   17  O4  UNK     1      21.083   5.736  30.902  1.00  0.00    -0.290 OA
BRANCH  16  18
HETATM   18  C14 UNK     1      19.244   6.523  32.144  1.00  0.00     0.012 A 
HETATM   19  C15 UNK     1      19.908   6.565  33.348  1.00  0.00     0.015 A 
HETATM   20  C17 UNK     1      19.332   7.266  34.408  1.00  0.00     0.001 A 
HETATM   21  C19 UNK     1      18.105   7.907  34.234  1.00  0.00     0.000 A 
HETATM   22  C18 UNK     1      17.455   7.846  33.001  1.00  0.00     0.001 A 
HETATM   23  C16 UNK     1      18.032   7.146  31.942  1.00  0.00     0.015 A 
ENDBRANCH  16  18
ENDBRANCH  15  16
ENDBRANCH  14  15
ENDBRANCH   6  14
TORSDOF 4
ENDMDL
MODEL 8
REMARK VINA RESULT:      -8.7      1.781      8.102
REMARK  4 active torsions:
REMARK  status: ('A' for Active; 'I' for Inactive)
REMARK    1  A    between atoms: C12_16  and  O2_2 
REMARK    2  A    between atoms: C4_8  and  O2_2 
REMARK    3  A    between atoms: C12_16  and  C13_17 
REMARK    4  A    between atoms: C13_17  and  C14_18 
ROOT
HETATM    1  O1  UNK     1      19.636   0.767  29.509  1.00  0.00    -0.274 OA
HETATM    2  O3  UNK     1      20.603  -0.810  28.166  1.00  0.00    -0.260 OA
HETATM    3  C1  UNK     1      19.205   0.237  31.854  1.00  0.00     0.005 A 
HETATM    4  C2  UNK     1      19.152   1.129  30.782  1.00  0.00     0.099 A 
HETATM    5  C3  UNK     1      18.625   2.415  30.908  1.00  0.00     0.006 A 
HETATM    6  C4  UNK     1      18.134   2.831  32.141  1.00  0.00     0.078 A 
HETATM    7  C5  UNK     1      19.777  -1.098  31.631  1.00  0.00    -0.043 A 
HETATM    8  C6  UNK     1      18.704   0.674  33.088  1.00  0.00     0.017 A 
HETATM    9  C7  UNK     1      18.173   1.961  33.230  1.00  0.00     0.038 A 
HETATM   10  C8  UNK     1      18.588   3.341  29.736  1.00  0.00     0.054 C 
HETATM   11  C9  UNK     1      20.229  -1.415  30.410  1.00  0.00     0.090 A 
HETATM   12  C10 UNK     1      19.847  -2.080  32.764  1.00  0.00     0.049 C 
HETATM   13  C11 UNK     1      20.180  -0.485  29.269  1.00  0.00     0.288 A 
ENDROOT
BRANCH   6  14
HETATM   14  O2  UNK     1      17.613   4.078  32.303  1.00  0.00    -0.343 OA
BRANCH  14  15
HETATM   15  C12 UNK     1      18.202   4.901  33.309  1.00  0.00     0.259 C 
BRANCH  15  16
HETATM   16  C13 UNK     1      19.048   5.982  32.666  1.00  0.00     0.183 C 
HETATM   17  O4  UNK     1      19.780   5.745  31.708  1.00  0.00    -0.290 OA
BRANCH  16  18
HETATM   18  C14 UNK     1      18.985   7.365  33.220  1.00  0.00     0.012 A 
HETATM   19  C15 UNK     1      20.065   7.843  33.928  1.00  0.00     0.015 A 
HETATM   20  C17 UNK     1      20.005   9.137  34.447  1.00  0.00     0.001 A 
HETATM   21  C19 UNK     1      18.867   9.918  34.245  1.00  0.00     0.000 A 
HETATM   22  C18 UNK     1      17.789   9.405  33.524  1.00  0.00     0.001 A 
HETATM   23  C16 UNK     1      17.848   8.112  33.004  1.00  0.00     0.015 A 
ENDBRANCH  16  18
ENDBRANCH  15  16
ENDBRANCH  14  15
ENDBRANCH   6  14
TORSDOF 4
ENDMDL
MODEL 9
REMARK VINA RESULT:      -8.5      9.089     12.999
REMARK  4 active torsions:
REMARK  status: ('A' for Active; 'I' for Inactive)
REMARK    1  A    between atoms: C12_16  and  O2_2 
REMARK    2  A    between atoms: C4_8  and  O2_2 
REMARK    3  A    between atoms: C12_16  and  C13_17 
REMARK    4  A    between atoms: C13_17  and  C14_18 
ROOT
HETATM    1  O1  UNK     1      19.125  -8.340  37.947  1.00  0.00    -0.274 OA
HETATM    2  O3  UNK     1      19.076 -10.501  38.692  1.00  0.00    -0.260 OA
HETATM    3  C1  UNK     1      21.078  -6.954  38.429  1.00  0.00     0.005 A 
HETATM    4  C2  UNK     1      19.815  -7.115  37.856  1.00  0.00     0.099 A 
HETATM    5  C3  UNK     1      19.172  -6.085  37.168  1.00  0.00     0.006 A 
HETATM    6  C4  UNK     1      19.804  -4.852  37.044  1.00  0.00     0.078 A 
HETATM    7  C5  UNK     1      21.680  -8.093  39.135  1.00  0.00    -0.043 A 
HETATM    8  C6  UNK     1      21.698  -5.705  38.294  1.00  0.00     0.017 A 
HETATM    9  C7  UNK     1      21.065  -4.662  37.607  1.00  0.00     0.038 A 
HETATM   10  C8  UNK     1      17.820  -6.297  36.568  1.00  0.00     0.054 C 
HETATM   11  C9  UNK     1      21.001  -9.246  39.206  1.00  0.00     0.090 A 
HETATM   12  C10 UNK     1      23.036  -7.951  39.762  1.00  0.00     0.049 C 
HETATM   13  C11 UNK     1      19.668  -9.431  38.607  1.00  0.00     0.288 A 
ENDROOT
BRANCH   6  14
HETATM   14  O2  UNK     1      19.209  -3.823  36.380  1.00  0.00    -0.343 OA
BRANCH  14  15
HETATM   15  C12 UNK     1      19.916  -2.586  36.334  1.00  0.00     0.259 C 
BRANCH  15  16
HETATM   16  C13 UNK     1      19.274  -1.657  35.323  1.00  0.00     0.183 C 
HETATM   17  O4  UNK     1      19.704  -1.555  34.176  1.00  0.00    -0.290 OA
BRANCH  16  18
HETATM   18  C14 UNK     1      18.093  -0.848  35.741  1.00  0.00     0.012 A 
HETATM   19  C15 UNK     1      18.067  -0.328  37.016  1.00  0.00     0.015 A 
HETATM   20  C17 UNK     1      16.962   0.428  37.408  1.00  0.00     0.001 A 
HETATM   21  C19 UNK     1      15.912   0.645  36.514  1.00  0.00     0.000 A 
HETATM   22  C18 UNK     1      15.969   0.104  35.229  1.00  0.00     0.001 A 
HETATM   23  C16 UNK     1      17.074  -0.651  34.837  1.00  0.00     0.015 A 
ENDBRANCH  16  18
ENDBRANCH  15  16
ENDBRANCH  14  15
ENDBRANCH   6  14
TORSDOF 4
ENDMDL
MODEL 10
REMARK VINA RESULT:      -8.5     22.093     24.210
REMARK  4 active torsions:
REMARK  status: ('A' for Active; 'I' for Inactive)
REMARK    1  A    between atoms: C12_16  and  O2_2 
REMARK    2  A    between atoms: C4_8  and  O2_2 
REMARK    3  A    between atoms: C12_16  and  C13_17 
REMARK    4  A    between atoms: C13_17  and  C14_18 
ROOT
HETATM    1  O1  UNK     1      18.011   9.867   9.801  1.00  0.00    -0.274 OA
HETATM    2  O3  UNK     1      19.676  11.431   9.720  1.00  0.00    -0.260 OA
HETATM    3  C1  UNK     1      15.896  10.312   8.663  1.00  0.00     0.005 A 
HETATM    4  C2  UNK     1      16.706   9.480   9.437  1.00  0.00     0.099 A 
HETATM    5  C3  UNK     1      16.275   8.232   9.889  1.00  0.00     0.006 A 
HETATM    6  C4  UNK     1      14.996   7.794   9.561  1.00  0.00     0.078 A 
HETATM    7  C5  UNK     1      16.432  11.611   8.230  1.00  0.00    -0.043 A 
HETATM    8  C6  UNK     1      14.611   9.854   8.343  1.00  0.00     0.017 A 
HETATM    9  C7  UNK     1      14.165   8.605   8.789  1.00  0.00     0.038 A 
HETATM   10  C8  UNK     1      17.173   7.369  10.715  1.00  0.00     0.054 C 
HETATM   11  C9  UNK     1      17.676  11.952   8.591  1.00  0.00     0.090 A 
HETATM   12  C10 UNK     1      15.585  12.528   7.397  1.00  0.00     0.049 C 
HETATM   13  C11 UNK     1      18.542  11.085   9.408  1.00  0.00     0.288 A 
ENDROOT
BRANCH   6  14
HETATM   14  O2  UNK     1      14.541   6.582   9.983  1.00  0.00    -0.343 OA
BRANCH  14  15
HETATM   15  C12 UNK     1      13.902   5.756   9.011  1.00  0.00     0.259 C 
BRANCH  15  16
HETATM   16  C13 UNK     1      12.419   5.656   9.308  1.00  0.00     0.183 C 
HETATM   17  O4  UNK     1      12.002   5.386  10.432  1.00  0.00    -0.290 OA
BRANCH  16  18
HETATM   18  C14 UNK     1      11.449   5.891   8.199  1.00  0.00     0.012 A 
HETATM   19  C15 UNK     1      11.935   6.092   6.927  1.00  0.00     0.015 A 
HETATM   20  C17 UNK     1      11.027   6.311   5.891  1.00  0.00     0.001 A 
HETATM   21  C19 UNK     1       9.657   6.324   6.154  1.00  0.00     0.000 A 
HETATM   22  C18 UNK     1       9.196   6.118   7.455  1.00  0.00     0.001 A 
HETATM   23  C16 UNK     1      10.103   5.897   8.490  1.00  0.00     0.015 A 
ENDBRANCH  16  18
ENDBRANCH  15  16
ENDBRANCH  14  15
ENDBRANCH   6  14
TORSDOF 4
ENDMDL
