MODEL 1
REMARK VINA RESULT:      -8.1      0.000      0.000
REMARK  4 active torsions:
REMARK  status: ('A' for Active; 'I' for Inactive)
REMARK    1  A    between atoms: C9_15  and  O2_3 
REMARK    2  A    between atoms: C3_9  and  N1_6 
REMARK       I    between atoms: C4_10  and  N1_6 
REMARK    3  A    between atoms: C6_12  and  N1_6 
REMARK    4  A    between atoms: C1_7  and  C4_10 
ROOT
HETATM    1 Br1  UNK     1      20.489  -1.345  29.761  1.00  0.00    -0.051 Br
HETATM    2  O1  UNK     1      18.633  -1.360  35.537  1.00  0.00    -0.271 OA
HETATM    3  O4  UNK     1      18.684  -2.263  37.635  1.00  0.00    -0.259 OA
HETATM    4  C1  UNK     1      20.055  -3.296  36.000  1.00  0.00     0.108 A 
HETATM    5  C2  UNK     1      19.995  -2.338  33.776  1.00  0.00     0.003 A 
HETATM    6  C5  UNK     1      19.081  -1.380  34.202  1.00  0.00     0.123 A 
HETATM    7  C7  UNK     1      20.483  -3.318  34.733  1.00  0.00     0.037 A 
HETATM    8  C8  UNK     1      19.081  -2.287  36.475  1.00  0.00     0.304 A 
HETATM    9  C9  UNK     1      18.575  -0.413  33.335  1.00  0.00     0.104 A 
HETATM   10  C10 UNK     1      20.415  -2.324  32.443  1.00  0.00     0.033 A 
HETATM   11  C14 UNK     1      18.999  -0.406  32.008  1.00  0.00     0.058 A 
HETATM   12  C15 UNK     1      19.917  -1.360  31.563  1.00  0.00     0.014 A 
ENDROOT
BRANCH   4  13
HETATM   13  C4  UNK     1      20.603  -4.327  36.889  1.00  0.00     0.264 C 
HETATM   14  O3  UNK     1      21.589  -4.023  37.573  1.00  0.00    -0.267 OA
HETATM   15  N1  UNK     1      19.957  -5.580  36.896  1.00  0.00    -0.314 N 
BRANCH  15  16
HETATM   16  C3  UNK     1      18.786  -5.837  36.041  1.00  0.00     0.128 C 
HETATM   17  C11 UNK     1      18.992  -7.060  35.171  1.00  0.00     0.027 C 
ENDBRANCH  15  16
BRANCH  15  18
HETATM   18  C6  UNK     1      20.453  -6.636  37.762  1.00  0.00     0.037 A 
HETATM   19  C12 UNK     1      21.639  -7.230  37.431  1.00  0.00     0.029 A 
HETATM   20  C16 UNK     1      22.118  -8.242  38.262  1.00  0.00     0.002 A 
HETATM   21  C18 UNK     1      21.390  -8.620  39.390  1.00  0.00     0.000 A 
HETATM   22  C17 UNK     1      20.183  -7.984  39.687  1.00  0.00     0.002 A 
HETATM   23  C13 UNK     1      19.706  -6.971  38.856  1.00  0.00     0.029 A 
ENDBRANCH  15  18
ENDBRANCH   4  13
BRANCH   9  24
HETATM   24  O2  UNK     1      17.680   0.518  33.765  1.00  0.00    -0.353 OA
HETATM   25  C19 UNK     1      18.171   1.840  33.984  1.00  0.00     0.210 C 
ENDBRANCH   9  24
TORSDOF 4
ENDMDL
MODEL 2
REMARK VINA RESULT:      -7.5      2.400      3.172
REMARK  4 active torsions:
REMARK  status: ('A' for Active; 'I' for Inactive)
REMARK    1  A    between atoms: C9_15  and  O2_3 
REMARK    2  A    between atoms: C3_9  and  N1_6 
REMARK       I    between atoms: C4_10  and  N1_6 
REMARK    3  A    between atoms: C6_12  and  N1_6 
REMARK    4  A    between atoms: C1_7  and  C4_10 
ROOT
HETATM    1 Br1  UNK     1      16.339   1.944  37.649  1.00  0.00    -0.051 Br
HETATM    2  O1  UNK     1      19.591  -1.912  34.277  1.00  0.00    -0.271 OA
HETATM    3  O4  UNK     1      20.806  -3.836  34.080  1.00  0.00    -0.259 OA
HETATM    4  C1  UNK     1      19.920  -3.355  36.224  1.00  0.00     0.108 A 
HETATM    5  C2  UNK     1      18.635  -1.311  36.430  1.00  0.00     0.003 A 
HETATM    6  C5  UNK     1      18.841  -1.034  35.083  1.00  0.00     0.123 A 
HETATM    7  C7  UNK     1      19.207  -2.524  36.993  1.00  0.00     0.037 A 
HETATM    8  C8  UNK     1      20.152  -3.079  34.788  1.00  0.00     0.304 A 
HETATM    9  C9  UNK     1      18.319   0.111  34.482  1.00  0.00     0.104 A 
HETATM   10  C10 UNK     1      17.884  -0.416  37.196  1.00  0.00     0.033 A 
HETATM   11  C14 UNK     1      17.572   0.998  35.253  1.00  0.00     0.058 A 
HETATM   12  C15 UNK     1      17.355   0.736  36.607  1.00  0.00     0.014 A 
ENDROOT
BRANCH   4  13
HETATM   13  C4  UNK     1      20.457  -4.551  36.884  1.00  0.00     0.264 C 
HETATM   14  O3  UNK     1      21.615  -4.492  37.315  1.00  0.00    -0.267 OA
HETATM   15  N1  UNK     1      19.604  -5.671  36.978  1.00  0.00    -0.314 N 
BRANCH  15  16
HETATM   16  C3  UNK     1      18.238  -5.634  36.430  1.00  0.00     0.128 C 
HETATM   17  C11 UNK     1      17.847  -6.967  35.824  1.00  0.00     0.027 C 
ENDBRANCH  15  16
BRANCH  15  18
HETATM   18  C6  UNK     1      20.082  -6.881  37.626  1.00  0.00     0.037 A 
HETATM   19  C12 UNK     1      19.672  -7.123  38.908  1.00  0.00     0.029 A 
HETATM   20  C16 UNK     1      20.129  -8.285  39.530  1.00  0.00     0.002 A 
HETATM   21  C18 UNK     1      20.976  -9.156  38.845  1.00  0.00     0.000 A 
HETATM   22  C17 UNK     1      21.367  -8.864  37.538  1.00  0.00     0.002 A 
HETATM   23  C13 UNK     1      20.910  -7.703  36.915  1.00  0.00     0.029 A 
ENDBRANCH  15  18
ENDBRANCH   4  13
BRANCH   9  24
HETATM   24  O2  UNK     1      18.529   0.370  33.163  1.00  0.00    -0.353 OA
HETATM   25  C19 UNK     1      18.368   1.721  32.732  1.00  0.00     0.210 C 
ENDBRANCH   9  24
TORSDOF 4
ENDMDL
MODEL 3
REMARK VINA RESULT:      -7.5     10.446     14.108
REMARK  4 active torsions:
REMARK  status: ('A' for Active; 'I' for Inactive)
REMARK    1  A    between atoms: C9_15  and  O2_3 
REMARK    2  A    between atoms: C3_9  and  N1_6 
REMARK       I    between atoms: C4_10  and  N1_6 
REMARK    3  A    between atoms: C6_12  and  N1_6 
REMARK    4  A    between atoms: C1_7  and  C4_10 
ROOT
HETATM    1 Br1  UNK     1      18.711  15.609  33.875  1.00  0.00    -0.051 Br
HETATM    2  O1  UNK     1      15.830  10.436  35.195  1.00  0.00    -0.271 OA
HETATM    3  O4  UNK     1      15.666   8.162  35.044  1.00  0.00    -0.259 OA
HETATM    4  C1  UNK     1      17.507   9.170  33.944  1.00  0.00     0.108 A 
HETATM    5  C2  UNK     1      17.676  11.581  34.103  1.00  0.00     0.003 A 
HETATM    6  C5  UNK     1      16.519  11.621  34.873  1.00  0.00     0.123 A 
HETATM    7  C7  UNK     1      18.165  10.293  33.636  1.00  0.00     0.037 A 
HETATM    8  C8  UNK     1      16.273   9.188  34.761  1.00  0.00     0.304 A 
HETATM    9  C9  UNK     1      15.998  12.822  35.352  1.00  0.00     0.104 A 
HETATM   10  C10 UNK     1      18.331  12.779  33.806  1.00  0.00     0.033 A 
HETATM   11  C14 UNK     1      16.657  14.012  35.052  1.00  0.00     0.058 A 
HETATM   12  C15 UNK     1      17.820  13.991  34.279  1.00  0.00     0.014 A 
ENDROOT
BRANCH   4  13
HETATM   13  C4  UNK     1      18.078   7.921  33.426  1.00  0.00     0.264 C 
HETATM   14  O3  UNK     1      19.019   7.420  34.054  1.00  0.00    -0.267 OA
HETATM   15  N1  UNK     1      17.502   7.389  32.253  1.00  0.00    -0.314 N 
BRANCH  15  16
HETATM   16  C3  UNK     1      16.381   8.066  31.581  1.00  0.00     0.128 C 
HETATM   17  C11 UNK     1      15.076   7.327  31.796  1.00  0.00     0.027 C 
ENDBRANCH  15  16
BRANCH  15  18
HETATM   18  C6  UNK     1      18.023   6.150  31.698  1.00  0.00     0.037 A 
HETATM   19  C12 UNK     1      17.721   4.984  32.344  1.00  0.00     0.029 A 
HETATM   20  C16 UNK     1      18.220   3.795  31.811  1.00  0.00     0.002 A 
HETATM   21  C18 UNK     1      19.000   3.822  30.656  1.00  0.00     0.000 A 
HETATM   22  C17 UNK     1      19.281   5.039  30.033  1.00  0.00     0.002 A 
HETATM   23  C13 UNK     1      18.782   6.227  30.564  1.00  0.00     0.029 A 
ENDBRANCH  15  18
ENDBRANCH   4  13
BRANCH   9  24
HETATM   24  O2  UNK     1      14.864  12.847  36.104  1.00  0.00    -0.353 OA
HETATM   25  C19 UNK     1      14.957  13.431  37.402  1.00  0.00     0.210 C 
ENDBRANCH   9  24
TORSDOF 4
ENDMDL
MODEL 4
REMARK VINA RESULT:      -7.4      6.031     11.139
REMARK  4 active torsions:
REMARK  status: ('A' for Active; 'I' for Inactive)
REMARK    1  A    between atoms: C9_15  and  O2_3 
REMARK    2  A    between atoms: C3_9  and  N1_6 
REMARK       I    between atoms: C4_10  and  N1_6 
REMARK    3  A    between atoms: C6_12  and  N1_6 
REMARK    4  A    between atoms: C1_7  and  C4_10 
ROOT
HETATM    1 Br1  UNK     1      18.289  -1.142  37.062  1.00  0.00    -0.051 Br
HETATM    2  O1  UNK     1      18.372   2.303  32.069  1.00  0.00    -0.271 OA
HETATM    3  O4  UNK     1      18.273   4.357  31.074  1.00  0.00    -0.259 OA
HETATM    4  C1  UNK     1      18.106   4.312  33.438  1.00  0.00     0.108 A 
HETATM    5  C2  UNK     1      18.207   2.132  34.489  1.00  0.00     0.003 A 
HETATM    6  C5  UNK     1      18.349   1.527  33.245  1.00  0.00     0.123 A 
HETATM    7  C7  UNK     1      18.083   3.580  34.557  1.00  0.00     0.037 A 
HETATM    8  C8  UNK     1      18.254   3.690  32.102  1.00  0.00     0.304 A 
HETATM    9  C9  UNK     1      18.472   0.145  33.111  1.00  0.00     0.104 A 
HETATM   10  C10 UNK     1      18.190   1.328  35.631  1.00  0.00     0.033 A 
HETATM   11  C14 UNK     1      18.454  -0.649  34.255  1.00  0.00     0.058 A 
HETATM   12  C15 UNK     1      18.312  -0.059  35.513  1.00  0.00     0.014 A 
ENDROOT
BRANCH   4  13
HETATM   13  C4  UNK     1      17.973   5.764  33.609  1.00  0.00     0.264 C 
HETATM   14  O3  UNK     1      16.829   6.222  33.726  1.00  0.00    -0.267 OA
HETATM   15  N1  UNK     1      19.163   6.520  33.632  1.00  0.00    -0.314 N 
BRANCH  15  16
HETATM   16  C3  UNK     1      20.478   5.874  33.483  1.00  0.00     0.128 C 
HETATM   17  C11 UNK     1      21.074   6.135  32.115  1.00  0.00     0.027 C 
ENDBRANCH  15  16
BRANCH  15  18
HETATM   18  C6  UNK     1      19.092   7.961  33.804  1.00  0.00     0.037 A 
HETATM   19  C12 UNK     1      20.174   8.594  34.349  1.00  0.00     0.029 A 
HETATM   20  C16 UNK     1      20.107   9.977  34.514  1.00  0.00     0.002 A 
HETATM   21  C18 UNK     1      18.960  10.671  34.128  1.00  0.00     0.000 A 
HETATM   22  C17 UNK     1      17.881   9.980  33.576  1.00  0.00     0.002 A 
HETATM   23  C13 UNK     1      17.948   8.597  33.410  1.00  0.00     0.029 A 
ENDBRANCH  15  18
ENDBRANCH   4  13
BRANCH   9  24
HETATM   24  O2  UNK     1      18.609  -0.433  31.887  1.00  0.00    -0.353 OA
HETATM   25  C19 UNK     1      19.564  -1.487  31.769  1.00  0.00     0.210 C 
ENDBRANCH   9  24
TORSDOF 4
ENDMDL
MODEL 5
REMARK VINA RESULT:      -7.4     11.576     13.603
REMARK  4 active torsions:
REMARK  status: ('A' for Active; 'I' for Inactive)
REMARK    1  A    between atoms: C9_15  and  O2_3 
REMARK    2  A    between atoms: C3_9  and  N1_6 
REMARK       I    between atoms: C4_10  and  N1_6 
REMARK    3  A    between atoms: C6_12  and  N1_6 
REMARK    4  A    between atoms: C1_7  and  C4_10 
ROOT
HETATM    1 Br1  UNK     1      29.745  -4.329  38.593  1.00  0.00    -0.051 Br
HETATM    2  O1  UNK     1      33.227  -6.232  34.004  1.00  0.00    -0.271 OA
HETATM    3  O4  UNK     1      33.491  -7.438  32.081  1.00  0.00    -0.259 OA
HETATM    4  C1  UNK     1      31.343  -7.490  33.082  1.00  0.00     0.108 A 
HETATM    5  C2  UNK     1      31.068  -6.214  35.122  1.00  0.00     0.003 A 
HETATM    6  C5  UNK     1      32.396  -5.806  35.058  1.00  0.00     0.123 A 
HETATM    7  C7  UNK     1      30.551  -7.088  34.081  1.00  0.00     0.037 A 
HETATM    8  C8  UNK     1      32.760  -7.070  32.994  1.00  0.00     0.304 A 
HETATM    9  C9  UNK     1      32.954  -4.969  36.023  1.00  0.00     0.104 A 
HETATM   10  C10 UNK     1      30.276  -5.769  36.184  1.00  0.00     0.033 A 
HETATM   11  C14 UNK     1      32.158  -4.530  37.079  1.00  0.00     0.058 A 
HETATM   12  C15 UNK     1      30.822  -4.929  37.159  1.00  0.00     0.014 A 
ENDROOT
BRANCH   4  13
HETATM   13  C4  UNK     1      30.730  -8.371  32.081  1.00  0.00     0.264 C 
HETATM   14  O3  UNK     1      30.623  -9.570  32.366  1.00  0.00    -0.267 OA
HETATM   15  N1  UNK     1      30.305  -7.775  30.874  1.00  0.00    -0.314 N 
BRANCH  15  16
HETATM   16  C3  UNK     1      30.480  -6.333  30.636  1.00  0.00     0.128 C 
HETATM   17  C11 UNK     1      29.191  -5.572  30.872  1.00  0.00     0.027 C 
ENDBRANCH  15  16
BRANCH  15  18
HETATM   18  C6  UNK     1      29.686  -8.599  29.850  1.00  0.00     0.037 A 
HETATM   19  C12 UNK     1      30.483  -9.083  28.850  1.00  0.00     0.029 A 
HETATM   20  C16 UNK     1      29.889  -9.875  27.867  1.00  0.00     0.002 A 
HETATM   21  C18 UNK     1      28.523 -10.149  27.924  1.00  0.00     0.000 A 
HETATM   22  C17 UNK     1      27.750  -9.632  28.965  1.00  0.00     0.002 A 
HETATM   23  C13 UNK     1      28.344  -8.841  29.949  1.00  0.00     0.029 A 
ENDBRANCH  15  18
ENDBRANCH   4  13
BRANCH   9  24
HETATM   24  O2  UNK     1      34.255  -4.579  35.949  1.00  0.00    -0.353 OA
HETATM   25  C19 UNK     1      35.233  -5.468  36.488  1.00  0.00     0.210 C 
ENDBRANCH   9  24
TORSDOF 4
ENDMDL
MODEL 6
REMARK VINA RESULT:      -7.2      7.397     11.953
REMARK  4 active torsions:
REMARK  status: ('A' for Active; 'I' for Inactive)
REMARK    1  A    between atoms: C9_15  and  O2_3 
REMARK    2  A    between atoms: C3_9  and  N1_6 
REMARK       I    between atoms: C4_10  and  N1_6 
REMARK    3  A    between atoms: C6_12  and  N1_6 
REMARK    4  A    between atoms: C1_7  and  C4_10 
ROOT
HETATM    1 Br1  UNK     1      18.230  -0.674  34.236  1.00  0.00    -0.051 Br
HETATM    2  O1  UNK     1      19.033   3.724  30.135  1.00  0.00    -0.271 OA
HETATM    3  O4  UNK     1      18.873   5.919  29.523  1.00  0.00    -0.259 OA
HETATM    4  C1  UNK     1      18.127   5.367  31.703  1.00  0.00     0.108 A 
HETATM    5  C2  UNK     1      18.295   3.038  32.348  1.00  0.00     0.003 A 
HETATM    6  C5  UNK     1      18.835   2.723  31.106  1.00  0.00     0.123 A 
HETATM    7  C7  UNK     1      17.938   4.420  32.628  1.00  0.00     0.037 A 
HETATM    8  C8  UNK     1      18.699   5.055  30.374  1.00  0.00     0.304 A 
HETATM    9  C9  UNK     1      19.199   1.419  30.774  1.00  0.00     0.104 A 
HETATM   10  C10 UNK     1      18.115   2.017  33.284  1.00  0.00     0.033 A 
HETATM   11  C14 UNK     1      19.017   0.406  31.713  1.00  0.00     0.058 A 
HETATM   12  C15 UNK     1      18.475   0.704  32.965  1.00  0.00     0.014 A 
ENDROOT
BRANCH   4  13
HETATM   13  C4  UNK     1      17.734   6.730  32.080  1.00  0.00     0.264 C 
HETATM   14  O3  UNK     1      16.785   7.239  31.471  1.00  0.00    -0.267 OA
HETATM   15  N1  UNK     1      18.470   7.349  33.112  1.00  0.00    -0.314 N 
BRANCH  15  16
HETATM   16  C3  UNK     1      19.585   6.652  33.774  1.00  0.00     0.128 C 
HETATM   17  C11 UNK     1      20.839   6.679  32.924  1.00  0.00     0.027 C 
ENDBRANCH  15  16
BRANCH  15  18
HETATM   18  C6  UNK     1      18.121   8.696  33.530  1.00  0.00     0.037 A 
HETATM   19  C12 UNK     1      19.140   9.580  33.755  1.00  0.00     0.029 A 
HETATM   20  C16 UNK     1      18.805  10.873  34.155  1.00  0.00     0.002 A 
HETATM   21  C18 UNK     1      17.466  11.230  34.314  1.00  0.00     0.000 A 
HETATM   22  C17 UNK     1      16.462  10.293  34.072  1.00  0.00     0.002 A 
HETATM   23  C13 UNK     1      16.795   8.999  33.672  1.00  0.00     0.029 A 
ENDBRANCH  15  18
ENDBRANCH   4  13
BRANCH   9  24
HETATM   24  O2  UNK     1      19.726   1.124  29.554  1.00  0.00    -0.353 OA
HETATM   25  C19 UNK     1      20.175  -0.215  29.346  1.00  0.00     0.210 C 
ENDBRANCH   9  24
TORSDOF 4
ENDMDL
MODEL 7
REMARK VINA RESULT:      -7.1     10.445     13.874
REMARK  4 active torsions:
REMARK  status: ('A' for Active; 'I' for Inactive)
REMARK    1  A    between atoms: C9_15  and  O2_3 
REMARK    2  A    between atoms: C3_9  and  N1_6 
REMARK       I    between atoms: C4_10  and  N1_6 
REMARK    3  A    between atoms: C6_12  and  N1_6 
REMARK    4  A    between atoms: C1_7  and  C4_10 
ROOT
HETATM    1 Br1  UNK     1      12.728  14.162  32.611  1.00  0.00    -0.051 Br
HETATM    2  O1  UNK     1      15.608   9.702  35.547  1.00  0.00    -0.271 OA
HETATM    3  O4  UNK     1      16.638   7.663  35.538  1.00  0.00    -0.259 OA
HETATM    4  C1  UNK     1      15.808   8.443  33.460  1.00  0.00     0.108 A 
HETATM    5  C2  UNK     1      14.714  10.603  33.474  1.00  0.00     0.003 A 
HETATM    6  C5  UNK     1      14.942  10.722  34.840  1.00  0.00     0.123 A 
HETATM    7  C7  UNK     1      15.176   9.409  32.785  1.00  0.00     0.037 A 
HETATM    8  C8  UNK     1      16.061   8.546  34.915  1.00  0.00     0.304 A 
HETATM    9  C9  UNK     1      14.525  11.841  35.559  1.00  0.00     0.104 A 
HETATM   10  C10 UNK     1      14.050  11.637  32.808  1.00  0.00     0.033 A 
HETATM   11  C14 UNK     1      13.864  12.867  34.889  1.00  0.00     0.058 A 
HETATM   12  C15 UNK     1      13.626  12.765  33.516  1.00  0.00     0.014 A 
ENDROOT
BRANCH   4  13
HETATM   13  C4  UNK     1      16.235   7.276  32.677  1.00  0.00     0.264 C 
HETATM   14  O3  UNK     1      15.351   6.528  32.241  1.00  0.00    -0.267 OA
HETATM   15  N1  UNK     1      17.622   7.106  32.481  1.00  0.00    -0.314 N 
BRANCH  15  16
HETATM   16  C3  UNK     1      18.592   8.058  33.045  1.00  0.00     0.128 C 
HETATM   17  C11 UNK     1      19.667   7.349  33.843  1.00  0.00     0.027 C 
ENDBRANCH  15  16
BRANCH  15  18
HETATM   18  C6  UNK     1      18.101   5.972  31.709  1.00  0.00     0.037 A 
HETATM   19  C12 UNK     1      18.718   6.225  30.516  1.00  0.00     0.029 A 
HETATM   20  C16 UNK     1      19.179   5.137  29.776  1.00  0.00     0.002 A 
HETATM   21  C18 UNK     1      19.004   3.840  30.259  1.00  0.00     0.000 A 
HETATM   22  C17 UNK     1      18.367   3.632  31.483  1.00  0.00     0.002 A 
HETATM   23  C13 UNK     1      17.907   4.720  32.224  1.00  0.00     0.029 A 
ENDBRANCH  15  18
ENDBRANCH   4  13
BRANCH   9  24
HETATM   24  O2  UNK     1      14.754  11.943  36.897  1.00  0.00    -0.353 OA
HETATM   25  C19 UNK     1      13.669  11.625  37.768  1.00  0.00     0.210 C 
ENDBRANCH   9  24
TORSDOF 4
ENDMDL
MODEL 8
REMARK VINA RESULT:      -7.0     10.211     12.447
REMARK  4 active torsions:
REMARK  status: ('A' for Active; 'I' for Inactive)
REMARK    1  A    between atoms: C9_15  and  O2_3 
REMARK    2  A    between atoms: C3_9  and  N1_6 
REMARK       I    between atoms: C4_10  and  N1_6 
REMARK    3  A    between atoms: C6_12  and  N1_6 
REMARK    4  A    between atoms: C1_7  and  C4_10 
ROOT
HETATM    1 Br1  UNK     1      27.553  -8.962  39.764  1.00  0.00    -0.051 Br
HETATM    2  O1  UNK     1      30.317  -5.817  35.374  1.00  0.00    -0.271 OA
HETATM    3  O4  UNK     1      31.107  -5.670  33.235  1.00  0.00    -0.259 OA
HETATM    4  C1  UNK     1      30.071  -7.711  33.847  1.00  0.00     0.108 A 
HETATM    5  C2  UNK     1      29.238  -7.865  36.116  1.00  0.00     0.003 A 
HETATM    6  C5  UNK     1      29.673  -6.570  36.375  1.00  0.00     0.123 A 
HETATM    7  C7  UNK     1      29.458  -8.430  34.794  1.00  0.00     0.037 A 
HETATM    8  C8  UNK     1      30.543  -6.331  34.099  1.00  0.00     0.304 A 
HETATM    9  C9  UNK     1      29.491  -5.970  37.620  1.00  0.00     0.104 A 
HETATM   10  C10 UNK     1      28.602  -8.579  37.135  1.00  0.00     0.033 A 
HETATM   11  C14 UNK     1      28.857  -6.689  38.630  1.00  0.00     0.058 A 
HETATM   12  C15 UNK     1      28.414  -7.991  38.389  1.00  0.00     0.014 A 
ENDROOT
BRANCH   4  13
HETATM   13  C4  UNK     1      30.248  -8.368  32.546  1.00  0.00     0.264 C 
HETATM   14  O3  UNK     1      31.171  -9.187  32.443  1.00  0.00    -0.267 OA
HETATM   15  N1  UNK     1      29.347  -8.016  31.520  1.00  0.00    -0.314 N 
BRANCH  15  16
HETATM   16  C3  UNK     1      28.282  -7.027  31.750  1.00  0.00     0.128 C 
HETATM   17  C11 UNK     1      28.436  -5.823  30.843  1.00  0.00     0.027 C 
ENDBRANCH  15  16
BRANCH  15  18
HETATM   18  C6  UNK     1      29.473  -8.640  30.213  1.00  0.00     0.037 A 
HETATM   19  C12 UNK     1      30.632  -8.438  29.517  1.00  0.00     0.029 A 
HETATM   20  C16 UNK     1      30.753  -9.037  28.264  1.00  0.00     0.002 A 
HETATM   21  C18 UNK     1      29.711  -9.814  27.758  1.00  0.00     0.000 A 
HETATM   22  C17 UNK     1      28.547  -9.990  28.507  1.00  0.00     0.002 A 
HETATM   23  C13 UNK     1      28.425  -9.392  29.760  1.00  0.00     0.029 A 
ENDBRANCH  15  18
ENDBRANCH   4  13
BRANCH   9  24
HETATM   24  O2  UNK     1      29.923  -4.702  37.859  1.00  0.00    -0.353 OA
HETATM   25  C19 UNK     1      29.582  -4.126  39.120  1.00  0.00     0.210 C 
ENDBRANCH   9  24
TORSDOF 4
ENDMDL
MODEL 9
REMARK VINA RESULT:      -7.0      7.468     12.439
REMARK  4 active torsions:
REMARK  status: ('A' for Active; 'I' for Inactive)
REMARK    1  A    between atoms: C9_15  and  O2_3 
REMARK    2  A    between atoms: C3_9  and  N1_6 
REMARK       I    between atoms: C4_10  and  N1_6 
REMARK    3  A    between atoms: C6_12  and  N1_6 
REMARK    4  A    between atoms: C1_7  and  C4_10 
ROOT
HETATM    1 Br1  UNK     1      18.296   0.109  35.701  1.00  0.00    -0.051 Br
HETATM    2  O1  UNK     1      18.374   4.343  31.356  1.00  0.00    -0.271 OA
HETATM    3  O4  UNK     1      18.401   6.538  30.726  1.00  0.00    -0.259 OA
HETATM    4  C1  UNK     1      18.383   6.101  33.056  1.00  0.00     0.108 A 
HETATM    5  C2  UNK     1      18.351   3.772  33.720  1.00  0.00     0.003 A 
HETATM    6  C5  UNK     1      18.356   3.381  32.385  1.00  0.00     0.123 A 
HETATM    7  C7  UNK     1      18.366   5.192  34.036  1.00  0.00     0.037 A 
HETATM    8  C8  UNK     1      18.388   5.709  31.628  1.00  0.00     0.304 A 
HETATM    9  C9  UNK     1      18.343   2.037  32.015  1.00  0.00     0.104 A 
HETATM   10  C10 UNK     1      18.333   2.788  34.711  1.00  0.00     0.033 A 
HETATM   11  C14 UNK     1      18.325   1.062  33.010  1.00  0.00     0.058 A 
HETATM   12  C15 UNK     1      18.320   1.436  34.355  1.00  0.00     0.014 A 
ENDROOT
BRANCH   4  13
HETATM   13  C4  UNK     1      18.396   7.508  33.475  1.00  0.00     0.264 C 
HETATM   14  O3  UNK     1      19.496   8.022  33.711  1.00  0.00    -0.267 OA
HETATM   15  N1  UNK     1      17.150   8.162  33.569  1.00  0.00    -0.314 N 
BRANCH  15  16
HETATM   16  C3  UNK     1      15.895   7.456  33.264  1.00  0.00     0.128 C 
HETATM   17  C11 UNK     1      15.370   7.823  31.891  1.00  0.00     0.027 C 
ENDBRANCH  15  16
BRANCH  15  18
HETATM   18  C6  UNK     1      17.103   9.557  33.974  1.00  0.00     0.037 A 
HETATM   19  C12 UNK     1      18.211  10.326  33.747  1.00  0.00     0.029 A 
HETATM   20  C16 UNK     1      18.166  11.665  34.134  1.00  0.00     0.002 A 
HETATM   21  C18 UNK     1      17.016  12.180  34.733  1.00  0.00     0.000 A 
HETATM   22  C17 UNK     1      15.911  11.355  34.943  1.00  0.00     0.002 A 
HETATM   23  C13 UNK     1      15.955  10.016  34.556  1.00  0.00     0.029 A 
ENDBRANCH  15  18
ENDBRANCH   4  13
BRANCH   9  24
HETATM   24  O2  UNK     1      18.347   1.669  30.705  1.00  0.00    -0.353 OA
HETATM   25  C19 UNK     1      19.402   0.809  30.274  1.00  0.00     0.210 C 
ENDBRANCH   9  24
TORSDOF 4
ENDMDL
MODEL 10
REMARK VINA RESULT:      -6.9      7.185      9.890
REMARK  4 active torsions:
REMARK  status: ('A' for Active; 'I' for Inactive)
REMARK    1  A    between atoms: C9_15  and  O2_3 
REMARK    2  A    between atoms: C3_9  and  N1_6 
REMARK       I    between atoms: C4_10  and  N1_6 
REMARK    3  A    between atoms: C6_12  and  N1_6 
REMARK    4  A    between atoms: C1_7  and  C4_10 
ROOT
HETATM    1 Br1  UNK     1      20.199  -6.636  39.435  1.00  0.00    -0.051 Br
HETATM    2  O1  UNK     1      24.646  -9.781  36.761  1.00  0.00    -0.271 OA
HETATM    3  O4  UNK     1      26.869 -10.221  36.475  1.00  0.00    -0.259 OA
HETATM    4  C1  UNK     1      26.314  -8.520  38.029  1.00  0.00     0.108 A 
HETATM    5  C2  UNK     1      23.956  -8.054  38.328  1.00  0.00     0.003 A 
HETATM    6  C5  UNK     1      23.634  -9.036  37.397  1.00  0.00     0.123 A 
HETATM    7  C7  UNK     1      25.357  -7.810  38.635  1.00  0.00     0.037 A 
HETATM    8  C8  UNK     1      25.995  -9.569  37.034  1.00  0.00     0.304 A 
HETATM    9  C9  UNK     1      22.312  -9.319  37.058  1.00  0.00     0.104 A 
HETATM   10  C10 UNK     1      22.924  -7.337  38.937  1.00  0.00     0.033 A 
HETATM   11  C14 UNK     1      21.288  -8.599  37.670  1.00  0.00     0.058 A 
HETATM   12  C15 UNK     1      21.593  -7.610  38.607  1.00  0.00     0.014 A 
ENDROOT
BRANCH   4  13
HETATM   13  C4  UNK     1      27.697  -8.200  38.405  1.00  0.00     0.264 C 
HETATM   14  O3  UNK     1      28.121  -8.668  39.468  1.00  0.00    -0.267 OA
HETATM   15  N1  UNK     1      28.432  -7.387  37.517  1.00  0.00    -0.314 N 
BRANCH  15  16
HETATM   16  C3  UNK     1      27.830  -6.881  36.273  1.00  0.00     0.128 C 
HETATM   17  C11 UNK     1      28.536  -7.430  35.050  1.00  0.00     0.027 C 
ENDBRANCH  15  16
BRANCH  15  18
HETATM   18  C6  UNK     1      29.808  -7.042  37.836  1.00  0.00     0.037 A 
HETATM   19  C12 UNK     1      30.729  -8.052  37.863  1.00  0.00     0.029 A 
HETATM   20  C16 UNK     1      32.050  -7.722  38.168  1.00  0.00     0.002 A 
HETATM   21  C18 UNK     1      32.394  -6.397  38.432  1.00  0.00     0.000 A 
HETATM   22  C17 UNK     1      31.417  -5.401  38.392  1.00  0.00     0.002 A 
HETATM   23  C13 UNK     1      30.097  -5.730  38.087  1.00  0.00     0.029 A 
ENDBRANCH  15  18
ENDBRANCH   4  13
BRANCH   9  24
HETATM   24  O2  UNK     1      22.010 -10.282  36.145  1.00  0.00    -0.353 OA
HETATM   25  C19 UNK     1      21.684  -9.847  34.825  1.00  0.00     0.210 C 
ENDBRANCH   9  24
TORSDOF 4
ENDMDL
