MODEL 1
REMARK VINA RESULT:     -10.3      0.000      0.000
REMARK  3 active torsions:
REMARK  status: ('A' for Active; 'I' for Inactive)
REMARK    1  A    between atoms: C11_19  and  O2_7 
REMARK    2  A    between atoms: C13_21  and  O2_7 
REMARK    3  A    between atoms: C13_21  and  C14_22 
ROOT
HETATM    1  O1  UNK     1      19.514   1.074  29.410  1.00  0.00    -0.274 OA
HETATM    2  O3  UNK     1      20.432  -0.586  28.117  1.00  0.00    -0.259 OA
HETATM    3  C1  UNK     1      19.762  -1.728  32.624  1.00  0.00     0.040 C 
HETATM    4  C2  UNK     1      19.620  -0.662  31.593  1.00  0.00    -0.033 A 
HETATM    5  C3  UNK     1      20.672  -2.743  31.923  1.00  0.00     0.009 C 
HETATM    6  C4  UNK     1      20.561  -2.464  30.420  1.00  0.00     0.046 C 
HETATM    7  C5  UNK     1      20.058  -1.065  30.398  1.00  0.00     0.025 A 
HETATM    8  C6  UNK     1      19.076   0.666  31.783  1.00  0.00     0.005 A 
HETATM    9  C7  UNK     1      19.039   1.511  30.671  1.00  0.00     0.092 A 
HETATM   10  C8  UNK     1      20.030  -0.208  29.209  1.00  0.00     0.295 A 
HETATM   11  C9  UNK     1      18.591   1.144  33.002  1.00  0.00     0.017 A 
HETATM   12  C10 UNK     1      18.536   2.809  30.749  1.00  0.00     0.075 A 
HETATM   13  C11 UNK     1      18.056   3.274  31.970  1.00  0.00     0.071 A 
HETATM   14  C12 UNK     1      18.084   2.444  33.093  1.00  0.00     0.038 A 
ENDROOT
BRANCH  13  15
HETATM   15  O2  UNK     1      17.561   4.537  32.071  1.00  0.00    -0.346 OA
BRANCH  15  16
HETATM   16  C13 UNK     1      18.313   5.580  31.454  1.00  0.00     0.221 C 
BRANCH  16  17
HETATM   17  C14 UNK     1      18.183   6.830  32.275  1.00  0.00     0.050 A 
HETATM   18  C15 UNK     1      17.035   7.608  32.168  1.00  0.00     0.169 A 
HETATM   19  F1  UNK     1      16.042   7.254  31.342  1.00  0.00    -0.202 F 
HETATM   20  C18 UNK     1      16.915   8.770  32.930  1.00  0.00     0.197 A 
HETATM   21  F4  UNK     1      15.810   9.522  32.833  1.00  0.00    -0.199 F 
HETATM   22  C19 UNK     1      17.942   9.147  33.795  1.00  0.00     0.199 A 
HETATM   23  C17 UNK     1      19.091   8.362  33.896  1.00  0.00     0.197 A 
HETATM   24  F5  UNK     1      17.825  10.263  34.526  1.00  0.00    -0.199 F 
HETATM   25  C16 UNK     1      19.212   7.201  33.134  1.00  0.00     0.169 A 
HETATM   26  F3  UNK     1      20.078   8.725  34.726  1.00  0.00    -0.199 F 
HETATM   27  F2  UNK     1      20.320   6.453  33.238  1.00  0.00    -0.202 F 
ENDBRANCH  16  17
ENDBRANCH  15  16
ENDBRANCH  13  15
TORSDOF 3
ENDMDL
MODEL 2
REMARK VINA RESULT:     -10.3      0.017      2.048
REMARK  3 active torsions:
REMARK  status: ('A' for Active; 'I' for Inactive)
REMARK    1  A    between atoms: C11_19  and  O2_7 
REMARK    2  A    between atoms: C13_21  and  O2_7 
REMARK    3  A    between atoms: C13_21  and  C14_22 
ROOT
HETATM    1  O1  UNK     1      19.518   1.074  29.411  1.00  0.00    -0.274 OA
HETATM    2  O3  UNK     1      20.435  -0.583  28.114  1.00  0.00    -0.259 OA
HETATM    3  C1  UNK     1      19.761  -1.738  32.618  1.00  0.00     0.040 C 
HETATM    4  C2  UNK     1      19.621  -0.669  31.589  1.00  0.00    -0.033 A 
HETATM    5  C3  UNK     1      20.671  -2.751  31.914  1.00  0.00     0.009 C 
HETATM    6  C4  UNK     1      20.561  -2.468  30.412  1.00  0.00     0.046 C 
HETATM    7  C5  UNK     1      20.059  -1.068  30.393  1.00  0.00     0.025 A 
HETATM    8  C6  UNK     1      19.078   0.660  31.783  1.00  0.00     0.005 A 
HETATM    9  C7  UNK     1      19.042   1.508  30.674  1.00  0.00     0.092 A 
HETATM   10  C8  UNK     1      20.033  -0.207  29.207  1.00  0.00     0.295 A 
HETATM   11  C9  UNK     1      18.592   1.135  33.003  1.00  0.00     0.017 A 
HETATM   12  C10 UNK     1      18.540   2.806  30.755  1.00  0.00     0.075 A 
HETATM   13  C11 UNK     1      18.060   3.268  31.977  1.00  0.00     0.071 A 
HETATM   14  C12 UNK     1      18.086   2.435  33.098  1.00  0.00     0.038 A 
ENDROOT
BRANCH  13  15
HETATM   15  O2  UNK     1      17.565   4.531  32.082  1.00  0.00    -0.346 OA
BRANCH  15  16
HETATM   16  C13 UNK     1      18.317   5.575  31.465  1.00  0.00     0.221 C 
BRANCH  16  17
HETATM   17  C14 UNK     1      18.178   6.827  32.281  1.00  0.00     0.050 A 
HETATM   18  C15 UNK     1      19.205   7.210  33.136  1.00  0.00     0.169 A 
HETATM   19  F1  UNK     1      20.321   6.474  33.240  1.00  0.00    -0.202 F 
HETATM   20  C18 UNK     1      19.076   8.373  33.895  1.00  0.00     0.197 A 
HETATM   21  F4  UNK     1      20.063   8.749  34.719  1.00  0.00    -0.199 F 
HETATM   22  C19 UNK     1      17.920   9.147  33.794  1.00  0.00     0.199 A 
HETATM   23  C17 UNK     1      16.893   8.756  32.933  1.00  0.00     0.197 A 
HETATM   24  F5  UNK     1      17.796  10.264  34.522  1.00  0.00    -0.199 F 
HETATM   25  C16 UNK     1      17.022   7.593  32.176  1.00  0.00     0.169 A 
HETATM   26  F3  UNK     1      15.782   9.498  32.837  1.00  0.00    -0.199 F 
HETATM   27  F2  UNK     1      16.030   7.226  31.352  1.00  0.00    -0.202 F 
ENDBRANCH  16  17
ENDBRANCH  15  16
ENDBRANCH  13  15
TORSDOF 3
ENDMDL
MODEL 3
REMARK VINA RESULT:     -10.2      1.594      2.991
REMARK  3 active torsions:
REMARK  status: ('A' for Active; 'I' for Inactive)
REMARK    1  A    between atoms: C11_19  and  O2_7 
REMARK    2  A    between atoms: C13_21  and  O2_7 
REMARK    3  A    between atoms: C13_21  and  C14_22 
ROOT
HETATM    1  O1  UNK     1      18.690   0.609  33.037  1.00  0.00    -0.274 OA
HETATM    2  O3  UNK     1      19.225  -1.559  33.569  1.00  0.00    -0.259 OA
HETATM    3  C1  UNK     1      20.240  -0.294  29.161  1.00  0.00     0.040 C 
HETATM    4  C2  UNK     1      19.674   0.148  30.466  1.00  0.00    -0.033 A 
HETATM    5  C3  UNK     1      20.307  -1.816  29.332  1.00  0.00     0.009 C 
HETATM    6  C4  UNK     1      20.282  -2.087  30.840  1.00  0.00     0.046 C 
HETATM    7  C5  UNK     1      19.697  -0.829  31.375  1.00  0.00     0.025 A 
HETATM    8  C6  UNK     1      19.154   1.460  30.790  1.00  0.00     0.005 A 
HETATM    9  C7  UNK     1      18.667   1.658  32.084  1.00  0.00     0.092 A 
HETATM   10  C8  UNK     1      19.198  -0.657  32.742  1.00  0.00     0.295 A 
HETATM   11  C9  UNK     1      19.114   2.528  29.891  1.00  0.00     0.017 A 
HETATM   12  C10 UNK     1      18.145   2.883  32.496  1.00  0.00     0.075 A 
HETATM   13  C11 UNK     1      18.110   3.939  31.590  1.00  0.00     0.071 A 
HETATM   14  C12 UNK     1      18.593   3.762  30.291  1.00  0.00     0.038 A 
ENDROOT
BRANCH  13  15
HETATM   15  O2  UNK     1      17.604   5.145  31.968  1.00  0.00    -0.346 OA
BRANCH  15  16
HETATM   16  C13 UNK     1      17.579   5.428  33.366  1.00  0.00     0.221 C 
BRANCH  16  17
HETATM   17  C14 UNK     1      17.907   6.877  33.579  1.00  0.00     0.050 A 
HETATM   18  C15 UNK     1      19.216   7.254  33.855  1.00  0.00     0.169 A 
HETATM   19  F1  UNK     1      20.191   6.338  33.931  1.00  0.00    -0.202 F 
HETATM   20  C18 UNK     1      19.520   8.601  34.053  1.00  0.00     0.197 A 
HETATM   21  F4  UNK     1      20.781   8.970  34.317  1.00  0.00    -0.199 F 
HETATM   22  C19 UNK     1      18.513   9.562  33.974  1.00  0.00     0.199 A 
HETATM   23  C17 UNK     1      17.201   9.176  33.696  1.00  0.00     0.197 A 
HETATM   24  F5  UNK     1      18.806  10.855  34.164  1.00  0.00    -0.199 F 
HETATM   25  C16 UNK     1      16.897   7.830  33.499  1.00  0.00     0.169 A 
HETATM   26  F3  UNK     1      16.234  10.100  33.622  1.00  0.00    -0.199 F 
HETATM   27  F2  UNK     1      15.633   7.469  33.234  1.00  0.00    -0.202 F 
ENDBRANCH  16  17
ENDBRANCH  15  16
ENDBRANCH  13  15
TORSDOF 3
ENDMDL
MODEL 4
REMARK VINA RESULT:     -10.2      1.599      2.218
REMARK  3 active torsions:
REMARK  status: ('A' for Active; 'I' for Inactive)
REMARK    1  A    between atoms: C11_19  and  O2_7 
REMARK    2  A    between atoms: C13_21  and  O2_7 
REMARK    3  A    between atoms: C13_21  and  C14_22 
ROOT
HETATM    1  O1  UNK     1      18.692   0.610  33.039  1.00  0.00    -0.274 OA
HETATM    2  O3  UNK     1      19.222  -1.562  33.558  1.00  0.00    -0.259 OA
HETATM    3  C1  UNK     1      20.214  -0.282  29.149  1.00  0.00     0.040 C 
HETATM    4  C2  UNK     1      19.658   0.156  30.460  1.00  0.00    -0.033 A 
HETATM    5  C3  UNK     1      20.276  -1.805  29.313  1.00  0.00     0.009 C 
HETATM    6  C4  UNK     1      20.259  -2.083  30.820  1.00  0.00     0.046 C 
HETATM    7  C5  UNK     1      19.682  -0.825  31.364  1.00  0.00     0.025 A 
HETATM    8  C6  UNK     1      19.146   1.470  30.793  1.00  0.00     0.005 A 
HETATM    9  C7  UNK     1      18.668   1.664  32.091  1.00  0.00     0.092 A 
HETATM   10  C8  UNK     1      19.194  -0.657  32.735  1.00  0.00     0.295 A 
HETATM   11  C9  UNK     1      19.105   2.542  29.898  1.00  0.00     0.017 A 
HETATM   12  C10 UNK     1      18.153   2.889  32.511  1.00  0.00     0.075 A 
HETATM   13  C11 UNK     1      18.117   3.949  31.610  1.00  0.00     0.071 A 
HETATM   14  C12 UNK     1      18.591   3.776  30.308  1.00  0.00     0.038 A 
ENDROOT
BRANCH  13  15
HETATM   15  O2  UNK     1      17.618   5.155  31.996  1.00  0.00    -0.346 OA
BRANCH  15  16
HETATM   16  C13 UNK     1      17.615   5.437  33.395  1.00  0.00     0.221 C 
BRANCH  16  17
HETATM   17  C14 UNK     1      17.925   6.891  33.602  1.00  0.00     0.050 A 
HETATM   18  C15 UNK     1      16.905   7.831  33.527  1.00  0.00     0.169 A 
HETATM   19  F1  UNK     1      15.644   7.455  33.273  1.00  0.00    -0.202 F 
HETATM   20  C18 UNK     1      17.194   9.182  33.720  1.00  0.00     0.197 A 
HETATM   21  F4  UNK     1      16.213  10.093  33.651  1.00  0.00    -0.199 F 
HETATM   22  C19 UNK     1      18.502   9.584  33.987  1.00  0.00     0.199 A 
HETATM   23  C17 UNK     1      19.522   8.635  34.060  1.00  0.00     0.197 A 
HETATM   24  F5  UNK     1      18.779  10.882  34.171  1.00  0.00    -0.199 F 
HETATM   25  C16 UNK     1      19.233   7.285  33.867  1.00  0.00     0.169 A 
HETATM   26  F3  UNK     1      20.779   9.021  34.315  1.00  0.00    -0.199 F 
HETATM   27  F2  UNK     1      20.220   6.380  33.939  1.00  0.00    -0.202 F 
ENDBRANCH  16  17
ENDBRANCH  15  16
ENDBRANCH  13  15
TORSDOF 3
ENDMDL
MODEL 5
REMARK VINA RESULT:      -9.5      7.399     10.151
REMARK  3 active torsions:
REMARK  status: ('A' for Active; 'I' for Inactive)
REMARK    1  A    between atoms: C11_19  and  O2_7 
REMARK    2  A    between atoms: C13_21  and  O2_7 
REMARK    3  A    between atoms: C13_21  and  C14_22 
ROOT
HETATM    1  O1  UNK     1      22.617  -7.109  37.919  1.00  0.00    -0.274 OA
HETATM    2  O3  UNK     1      24.387  -8.465  38.463  1.00  0.00    -0.259 OA
HETATM    3  C1  UNK     1      21.660 -10.064  34.988  1.00  0.00     0.040 C 
HETATM    4  C2  UNK     1      21.885  -8.963  35.966  1.00  0.00    -0.033 A 
HETATM    5  C3  UNK     1      22.594 -11.161  35.512  1.00  0.00     0.009 C 
HETATM    6  C4  UNK     1      23.637 -10.464  36.392  1.00  0.00     0.046 C 
HETATM    7  C5  UNK     1      22.958  -9.184  36.728  1.00  0.00     0.025 A 
HETATM    8  C6  UNK     1      21.088  -7.764  36.124  1.00  0.00     0.005 A 
HETATM    9  C7  UNK     1      21.480  -6.857  37.112  1.00  0.00     0.092 A 
HETATM   10  C8  UNK     1      23.400  -8.254  37.770  1.00  0.00     0.295 A 
HETATM   11  C9  UNK     1      19.964  -7.465  35.351  1.00  0.00     0.017 A 
HETATM   12  C10 UNK     1      20.781  -5.674  37.345  1.00  0.00     0.075 A 
HETATM   13  C11 UNK     1      19.661  -5.389  36.568  1.00  0.00     0.071 A 
HETATM   14  C12 UNK     1      19.253  -6.282  35.575  1.00  0.00     0.038 A 
ENDROOT
BRANCH  13  15
HETATM   15  O2  UNK     1      18.961  -4.240  36.777  1.00  0.00    -0.346 OA
BRANCH  15  16
HETATM   16  C13 UNK     1      19.716  -3.039  36.924  1.00  0.00     0.221 C 
BRANCH  16  17
HETATM   17  C14 UNK     1      18.973  -1.910  36.271  1.00  0.00     0.050 A 
HETATM   18  C15 UNK     1      19.157  -1.656  34.917  1.00  0.00     0.169 A 
HETATM   19  F1  UNK     1      19.990  -2.409  34.185  1.00  0.00    -0.202 F 
HETATM   20  C18 UNK     1      18.466  -0.606  34.310  1.00  0.00     0.197 A 
HETATM   21  F4  UNK     1      18.638  -0.358  33.005  1.00  0.00    -0.199 F 
HETATM   22  C19 UNK     1      17.596   0.182  35.062  1.00  0.00     0.199 A 
HETATM   23  C17 UNK     1      17.416  -0.079  36.421  1.00  0.00     0.197 A 
HETATM   24  F5  UNK     1      16.933   1.190  34.479  1.00  0.00    -0.199 F 
HETATM   25  C16 UNK     1      18.107  -1.127  37.027  1.00  0.00     0.169 A 
HETATM   26  F3  UNK     1      16.581   0.680  37.143  1.00  0.00    -0.199 F 
HETATM   27  F2  UNK     1      17.928  -1.370  38.334  1.00  0.00    -0.202 F 
ENDBRANCH  16  17
ENDBRANCH  15  16
ENDBRANCH  13  15
TORSDOF 3
ENDMDL
MODEL 6
REMARK VINA RESULT:      -9.5      3.766      9.083
REMARK  3 active torsions:
REMARK  status: ('A' for Active; 'I' for Inactive)
REMARK    1  A    between atoms: C11_19  and  O2_7 
REMARK    2  A    between atoms: C13_21  and  O2_7 
REMARK    3  A    between atoms: C13_21  and  C14_22 
ROOT
HETATM    1  O1  UNK     1      15.663   6.894  32.487  1.00  0.00    -0.274 OA
HETATM    2  O3  UNK     1      13.992   8.399  32.949  1.00  0.00    -0.259 OA
HETATM    3  C1  UNK     1      18.344   9.947  33.804  1.00  0.00     0.040 C 
HETATM    4  C2  UNK     1      17.519   8.804  33.321  1.00  0.00    -0.033 A 
HETATM    5  C3  UNK     1      17.292  10.860  34.446  1.00  0.00     0.009 C 
HETATM    6  C4  UNK     1      15.940  10.459  33.846  1.00  0.00     0.046 C 
HETATM    7  C5  UNK     1      16.215   9.085  33.347  1.00  0.00     0.025 A 
HETATM    8  C6  UNK     1      18.000   7.520  32.855  1.00  0.00     0.005 A 
HETATM    9  C7  UNK     1      17.045   6.585  32.447  1.00  0.00     0.092 A 
HETATM   10  C8  UNK     1      15.186   8.131  32.923  1.00  0.00     0.295 A 
HETATM   11  C9  UNK     1      19.350   7.168  32.791  1.00  0.00     0.017 A 
HETATM   12  C10 UNK     1      17.404   5.321  31.983  1.00  0.00     0.075 A 
HETATM   13  C11 UNK     1      18.753   4.982  31.924  1.00  0.00     0.071 A 
HETATM   14  C12 UNK     1      19.723   5.903  32.327  1.00  0.00     0.038 A 
ENDROOT
BRANCH  13  15
HETATM   15  O2  UNK     1      19.128   3.753  31.476  1.00  0.00    -0.346 OA
BRANCH  15  16
HETATM   16  C13 UNK     1      18.097   2.902  30.977  1.00  0.00     0.221 C 
BRANCH  16  17
HETATM   17  C14 UNK     1      18.690   1.570  30.622  1.00  0.00     0.050 A 
HETATM   18  C15 UNK     1      19.097   0.706  31.633  1.00  0.00     0.169 A 
HETATM   19  F1  UNK     1      18.966   1.049  32.922  1.00  0.00    -0.202 F 
HETATM   20  C18 UNK     1      19.649  -0.532  31.303  1.00  0.00     0.197 A 
HETATM   21  F4  UNK     1      20.041  -1.370  32.272  1.00  0.00    -0.199 F 
HETATM   22  C19 UNK     1      19.788  -0.899  29.965  1.00  0.00     0.199 A 
HETATM   23  C17 UNK     1      19.377  -0.027  28.956  1.00  0.00     0.197 A 
HETATM   24  F5  UNK     1      20.318  -2.088  29.649  1.00  0.00    -0.199 F 
HETATM   25  C16 UNK     1      18.827   1.211  29.286  1.00  0.00     0.169 A 
HETATM   26  F3  UNK     1      19.512  -0.379  27.671  1.00  0.00    -0.199 F 
HETATM   27  F2  UNK     1      18.435   2.042  28.309  1.00  0.00    -0.202 F 
ENDBRANCH  16  17
ENDBRANCH  15  16
ENDBRANCH  13  15
TORSDOF 3
ENDMDL
MODEL 7
REMARK VINA RESULT:      -9.5     12.428     15.366
REMARK  3 active torsions:
REMARK  status: ('A' for Active; 'I' for Inactive)
REMARK    1  A    between atoms: C11_19  and  O2_7 
REMARK    2  A    between atoms: C13_21  and  O2_7 
REMARK    3  A    between atoms: C13_21  and  C14_22 
ROOT
HETATM    1  O1  UNK     1      28.046  -5.233  39.135  1.00  0.00    -0.274 OA
HETATM    2  O3  UNK     1      29.896  -3.909  39.439  1.00  0.00    -0.259 OA
HETATM    3  C1  UNK     1      30.796  -8.233  37.839  1.00  0.00     0.040 C 
HETATM    4  C2  UNK     1      29.736  -7.277  38.267  1.00  0.00    -0.033 A 
HETATM    5  C3  UNK     1      32.075  -7.544  38.331  1.00  0.00     0.009 C 
HETATM    6  C4  UNK     1      31.729  -6.064  38.520  1.00  0.00     0.046 C 
HETATM    7  C5  UNK     1      30.247  -6.101  38.638  1.00  0.00     0.025 A 
HETATM    8  C6  UNK     1      28.308  -7.516  38.295  1.00  0.00     0.005 A 
HETATM    9  C7  UNK     1      27.490  -6.474  38.737  1.00  0.00     0.092 A 
HETATM   10  C8  UNK     1      29.419  -4.984  39.103  1.00  0.00     0.295 A 
HETATM   11  C9  UNK     1      27.710  -8.717  37.908  1.00  0.00     0.017 A 
HETATM   12  C10 UNK     1      26.104  -6.602  38.803  1.00  0.00     0.075 A 
HETATM   13  C11 UNK     1      25.519  -7.805  38.415  1.00  0.00     0.071 A 
HETATM   14  C12 UNK     1      26.320  -8.859  37.970  1.00  0.00     0.038 A 
ENDROOT
BRANCH  13  15
HETATM   15  O2  UNK     1      24.168  -7.956  38.471  1.00  0.00    -0.346 OA
BRANCH  15  16
HETATM   16  C13 UNK     1      23.450  -7.057  39.315  1.00  0.00     0.221 C 
BRANCH  16  17
HETATM   17  C14 UNK     1      22.005  -7.055  38.911  1.00  0.00     0.050 A 
HETATM   18  C15 UNK     1      21.484  -5.966  38.220  1.00  0.00     0.169 A 
HETATM   19  F1  UNK     1      22.259  -4.918  37.909  1.00  0.00    -0.202 F 
HETATM   20  C18 UNK     1      20.140  -5.964  37.845  1.00  0.00     0.197 A 
HETATM   21  F4  UNK     1      19.633  -4.919  37.177  1.00  0.00    -0.199 F 
HETATM   22  C19 UNK     1      19.326  -7.051  38.163  1.00  0.00     0.199 A 
HETATM   23  C17 UNK     1      19.855  -8.140  38.856  1.00  0.00     0.197 A 
HETATM   24  F5  UNK     1      18.036  -7.048  37.802  1.00  0.00    -0.199 F 
HETATM   25  C16 UNK     1      21.198  -8.141  39.232  1.00  0.00     0.169 A 
HETATM   26  F3  UNK     1      19.072  -9.182  39.162  1.00  0.00    -0.199 F 
HETATM   27  F2  UNK     1      21.697  -9.192  39.898  1.00  0.00    -0.202 F 
ENDBRANCH  16  17
ENDBRANCH  15  16
ENDBRANCH  13  15
TORSDOF 3
ENDMDL
MODEL 8
REMARK VINA RESULT:      -9.5      7.364     10.098
REMARK  3 active torsions:
REMARK  status: ('A' for Active; 'I' for Inactive)
REMARK    1  A    between atoms: C11_19  and  O2_7 
REMARK    2  A    between atoms: C13_21  and  O2_7 
REMARK    3  A    between atoms: C13_21  and  C14_22 
ROOT
HETATM    1  O1  UNK     1      22.618  -7.090  37.936  1.00  0.00    -0.274 OA
HETATM    2  O3  UNK     1      24.370  -8.474  38.471  1.00  0.00    -0.259 OA
HETATM    3  C1  UNK     1      21.625 -10.012  34.983  1.00  0.00     0.040 C 
HETATM    4  C2  UNK     1      21.863  -8.921  35.969  1.00  0.00    -0.033 A 
HETATM    5  C3  UNK     1      22.544 -11.125  35.500  1.00  0.00     0.009 C 
HETATM    6  C4  UNK     1      23.595 -10.448  36.386  1.00  0.00     0.046 C 
HETATM    7  C5  UNK     1      22.932  -9.162  36.730  1.00  0.00     0.025 A 
HETATM    8  C6  UNK     1      21.082  -7.712  36.135  1.00  0.00     0.005 A 
HETATM    9  C7  UNK     1      21.485  -6.818  37.129  1.00  0.00     0.092 A 
HETATM   10  C8  UNK     1      23.386  -8.245  37.779  1.00  0.00     0.295 A 
HETATM   11  C9  UNK     1      19.963  -7.394  35.364  1.00  0.00     0.017 A 
HETATM   12  C10 UNK     1      20.802  -5.627  37.370  1.00  0.00     0.075 A 
HETATM   13  C11 UNK     1      19.686  -5.322  36.595  1.00  0.00     0.071 A 
HETATM   14  C12 UNK     1      19.268  -6.203  35.595  1.00  0.00     0.038 A 
ENDROOT
BRANCH  13  15
HETATM   15  O2  UNK     1      19.002  -4.166  36.812  1.00  0.00    -0.346 OA
BRANCH  15  16
HETATM   16  C13 UNK     1      19.769  -2.967  36.912  1.00  0.00     0.221 C 
BRANCH  16  17
HETATM   17  C14 UNK     1      19.025  -1.852  36.237  1.00  0.00     0.050 A 
HETATM   18  C15 UNK     1      18.201  -1.020  36.987  1.00  0.00     0.169 A 
HETATM   19  F1  UNK     1      18.064  -1.201  38.308  1.00  0.00    -0.202 F 
HETATM   20  C18 UNK     1      17.510   0.016  36.360  1.00  0.00     0.197 A 
HETATM   21  F4  UNK     1      16.717   0.823  37.078  1.00  0.00    -0.199 F 
HETATM   22  C19 UNK     1      17.647   0.215  34.986  1.00  0.00     0.199 A 
HETATM   23  C17 UNK     1      18.475  -0.624  34.240  1.00  0.00     0.197 A 
HETATM   24  F5  UNK     1      16.983   1.210  34.385  1.00  0.00    -0.199 F 
HETATM   25  C16 UNK     1      19.166  -1.660  34.867  1.00  0.00     0.169 A 
HETATM   26  F3  UNK     1      18.606  -0.434  32.920  1.00  0.00    -0.199 F 
HETATM   27  F2  UNK     1      19.959  -2.461  34.141  1.00  0.00    -0.202 F 
ENDBRANCH  16  17
ENDBRANCH  15  16
ENDBRANCH  13  15
TORSDOF 3
ENDMDL
MODEL 9
REMARK VINA RESULT:      -9.4     12.447     15.395
REMARK  3 active torsions:
REMARK  status: ('A' for Active; 'I' for Inactive)
REMARK    1  A    between atoms: C11_19  and  O2_7 
REMARK    2  A    between atoms: C13_21  and  O2_7 
REMARK    3  A    between atoms: C13_21  and  C14_22 
ROOT
HETATM    1  O1  UNK     1      28.035  -5.176  39.106  1.00  0.00    -0.274 OA
HETATM    2  O3  UNK     1      29.869  -3.835  39.436  1.00  0.00    -0.259 OA
HETATM    3  C1  UNK     1      30.831  -8.150  37.848  1.00  0.00     0.040 C 
HETATM    4  C2  UNK     1      29.757  -7.205  38.261  1.00  0.00    -0.033 A 
HETATM    5  C3  UNK     1      32.096  -7.451  38.358  1.00  0.00     0.009 C 
HETATM    6  C4  UNK     1      31.734  -5.973  38.543  1.00  0.00     0.046 C 
HETATM    7  C5  UNK     1      30.251  -6.024  38.640  1.00  0.00     0.025 A 
HETATM    8  C6  UNK     1      28.330  -7.457  38.269  1.00  0.00     0.005 A 
HETATM    9  C7  UNK     1      27.496  -6.422  38.699  1.00  0.00     0.092 A 
HETATM   10  C8  UNK     1      29.406  -4.915  39.093  1.00  0.00     0.295 A 
HETATM   11  C9  UNK     1      27.749  -8.663  37.873  1.00  0.00     0.017 A 
HETATM   12  C10 UNK     1      26.110  -6.564  38.745  1.00  0.00     0.075 A 
HETATM   13  C11 UNK     1      25.543  -7.772  38.349  1.00  0.00     0.071 A 
HETATM   14  C12 UNK     1      26.360  -8.818  37.915  1.00  0.00     0.038 A 
ENDROOT
BRANCH  13  15
HETATM   15  O2  UNK     1      24.192  -7.935  38.385  1.00  0.00    -0.346 OA
BRANCH  15  16
HETATM   16  C13 UNK     1      23.469  -7.145  39.328  1.00  0.00     0.221 C 
BRANCH  16  17
HETATM   17  C14 UNK     1      22.022  -7.112  38.932  1.00  0.00     0.050 A 
HETATM   18  C15 UNK     1      21.201  -8.194  39.231  1.00  0.00     0.169 A 
HETATM   19  F1  UNK     1      21.687  -9.267  39.871  1.00  0.00    -0.202 F 
HETATM   20  C18 UNK     1      19.856  -8.163  38.862  1.00  0.00     0.197 A 
HETATM   21  F4  UNK     1      19.060  -9.202  39.150  1.00  0.00    -0.199 F 
HETATM   22  C19 UNK     1      19.340  -7.051  38.198  1.00  0.00     0.199 A 
HETATM   23  C17 UNK     1      20.170  -5.969  37.901  1.00  0.00     0.197 A 
HETATM   24  F5  UNK     1      18.048  -7.023  37.844  1.00  0.00    -0.199 F 
HETATM   25  C16 UNK     1      21.514  -6.000  38.269  1.00  0.00     0.169 A 
HETATM   26  F3  UNK     1      19.674  -4.902  37.262  1.00  0.00    -0.199 F 
HETATM   27  F2  UNK     1      22.303  -4.956  37.979  1.00  0.00    -0.202 F 
ENDBRANCH  16  17
ENDBRANCH  15  16
ENDBRANCH  13  15
TORSDOF 3
ENDMDL
MODEL 10
REMARK VINA RESULT:      -9.4      8.598     12.781
REMARK  3 active torsions:
REMARK  status: ('A' for Active; 'I' for Inactive)
REMARK    1  A    between atoms: C11_19  and  O2_7 
REMARK    2  A    between atoms: C13_21  and  O2_7 
REMARK    3  A    between atoms: C13_21  and  C14_22 
ROOT
HETATM    1  O1  UNK     1      19.191  -0.975  34.098  1.00  0.00    -0.274 OA
HETATM    2  O3  UNK     1      18.526   1.053  33.253  1.00  0.00    -0.259 OA
HETATM    3  C1  UNK     1      17.752   0.472  37.850  1.00  0.00     0.040 C 
HETATM    4  C2  UNK     1      18.289  -0.148  36.607  1.00  0.00    -0.033 A 
HETATM    5  C3  UNK     1      16.986   1.683  37.306  1.00  0.00     0.009 C 
HETATM    6  C4  UNK     1      17.553   1.968  35.911  1.00  0.00     0.046 C 
HETATM    7  C5  UNK     1      18.177   0.666  35.555  1.00  0.00     0.025 A 
HETATM    8  C6  UNK     1      18.884  -1.463  36.477  1.00  0.00     0.005 A 
HETATM    9  C7  UNK     1      19.324  -1.847  35.208  1.00  0.00     0.092 A 
HETATM   10  C8  UNK     1      18.631   0.298  34.211  1.00  0.00     0.295 A 
HETATM   11  C9  UNK     1      19.043  -2.357  37.538  1.00  0.00     0.017 A 
HETATM   12  C10 UNK     1      19.909  -3.090  34.976  1.00  0.00     0.075 A 
HETATM   13  C11 UNK     1      20.061  -3.973  36.042  1.00  0.00     0.071 A 
HETATM   14  C12 UNK     1      19.629  -3.607  37.319  1.00  0.00     0.038 A 
ENDROOT
BRANCH  13  15
HETATM   15  O2  UNK     1      20.629  -5.193  35.841  1.00  0.00    -0.346 OA
BRANCH  15  16
HETATM   16  C13 UNK     1      19.819  -6.192  35.222  1.00  0.00     0.221 C 
BRANCH  16  17
HETATM   17  C14 UNK     1      20.105  -7.520  35.859  1.00  0.00     0.050 A 
HETATM   18  C15 UNK     1      20.880  -8.455  35.183  1.00  0.00     0.169 A 
HETATM   19  F1  UNK     1      21.378  -8.185  33.968  1.00  0.00    -0.202 F 
HETATM   20  C18 UNK     1      21.146  -9.690  35.776  1.00  0.00     0.197 A 
HETATM   21  F4  UNK     1      21.895 -10.595  35.130  1.00  0.00    -0.199 F 
HETATM   22  C19 UNK     1      20.635  -9.981  37.040  1.00  0.00     0.199 A 
HETATM   23  C17 UNK     1      19.858  -9.037  37.712  1.00  0.00     0.197 A 
HETATM   24  F5  UNK     1      20.891 -11.167  37.608  1.00  0.00    -0.199 F 
HETATM   25  C16 UNK     1      19.592  -7.804  37.120  1.00  0.00     0.169 A 
HETATM   26  F3  UNK     1      19.366  -9.318  38.926  1.00  0.00    -0.199 F 
HETATM   27  F2  UNK     1      18.844  -6.904  37.773  1.00  0.00    -0.202 F 
ENDBRANCH  16  17
ENDBRANCH  15  16
ENDBRANCH  13  15
TORSDOF 3
ENDMDL
