MODEL 1
REMARK VINA RESULT:      -8.4      0.000      0.000
REMARK  3 active torsions:
REMARK  status: ('A' for Active; 'I' for Inactive)
REMARK    1  A    between atoms: C5_9  and  O2_2 
REMARK    2  A    between atoms: C7_11  and  O3_3 
REMARK    3  A    between atoms: C3_7  and  C6_10 
ROOT
HETATM    1  O1  UNK     1      18.610   0.521  32.650  1.00  0.00    -0.306 OA
HETATM    2  O4  UNK     1      20.433  -3.122  32.547  1.00  0.00    -0.284 OA
HETATM    3  C1  UNK     1      19.822  -1.162  31.388  1.00  0.00     0.084 A 
HETATM    4  C2  UNK     1      19.183   0.072  31.488  1.00  0.00     0.093 A 
HETATM    5  C3  UNK     1      18.682  -0.285  33.775  1.00  0.00     0.123 A 
HETATM    6  C4  UNK     1      19.889  -2.026  32.575  1.00  0.00     0.223 A 
HETATM    7  C5  UNK     1      19.261  -1.498  33.810  1.00  0.00     0.152 A 
HETATM    8  C7  UNK     1      20.387  -1.566  30.175  1.00  0.00     0.082 A 
HETATM    9  C8  UNK     1      19.104   0.910  30.375  1.00  0.00     0.038 A 
HETATM   10  C9  UNK     1      20.307  -0.727  29.065  1.00  0.00     0.038 A 
HETATM   11  C10 UNK     1      19.667   0.508  29.163  1.00  0.00     0.006 A 
ENDROOT
BRANCH   5  12
HETATM   12  C6  UNK     1      18.027   0.315  34.953  1.00  0.00     0.001 A 
HETATM   13  C11 UNK     1      16.680   0.058  35.209  1.00  0.00     0.014 A 
HETATM   14  C13 UNK     1      16.061   0.625  36.323  1.00  0.00     0.001 A 
HETATM   15  C15 UNK     1      16.789   1.450  37.180  1.00  0.00     0.000 A 
HETATM   16  C14 UNK     1      18.136   1.707  36.925  1.00  0.00     0.001 A 
HETATM   17  C12 UNK     1      18.755   1.140  35.811  1.00  0.00     0.014 A 
ENDBRANCH   5  12
BRANCH   7  18
HETATM   18  O2  UNK     1      19.287  -2.288  34.939  1.00  0.00    -0.355 OA
HETATM   19  H9  UNK     1      20.190  -2.328  35.293  1.00  0.00     0.218 HD
ENDBRANCH   7  18
BRANCH   8  20
HETATM   20  O3  UNK     1      21.023  -2.762  30.025  1.00  0.00    -0.360 OA
HETATM   21  H10 UNK     1      20.416  -3.429  29.672  1.00  0.00     0.217 HD
ENDBRANCH   8  20
TORSDOF 3
ENDMDL
MODEL 2
REMARK VINA RESULT:      -8.3     24.626     26.508
REMARK  3 active torsions:
REMARK  status: ('A' for Active; 'I' for Inactive)
REMARK    1  A    between atoms: C5_9  and  O2_2 
REMARK    2  A    between atoms: C7_11  and  O3_3 
REMARK    3  A    between atoms: C3_7  and  C6_10 
ROOT
HETATM    1  O1  UNK     1      13.067   7.823   8.394  1.00  0.00    -0.306 OA
HETATM    2  O4  UNK     1      15.409   4.703   9.572  1.00  0.00    -0.284 OA
HETATM    3  C1  UNK     1      15.157   7.036   9.345  1.00  0.00     0.084 A 
HETATM    4  C2  UNK     1      14.310   8.058   8.922  1.00  0.00     0.093 A 
HETATM    5  C3  UNK     1      12.632   6.511   8.288  1.00  0.00     0.123 A 
HETATM    6  C4  UNK     1      14.706   5.643   9.222  1.00  0.00     0.223 A 
HETATM    7  C5  UNK     1      13.354   5.435   8.650  1.00  0.00     0.152 A 
HETATM    8  C7  UNK     1      16.415   7.338   9.875  1.00  0.00     0.082 A 
HETATM    9  C8  UNK     1      14.715   9.389   9.026  1.00  0.00     0.038 A 
HETATM   10  C9  UNK     1      16.817   8.669   9.979  1.00  0.00     0.038 A 
HETATM   11  C10 UNK     1      15.970   9.693   9.556  1.00  0.00     0.006 A 
ENDROOT
BRANCH   5  12
HETATM   12  C6  UNK     1      11.283   6.399   7.704  1.00  0.00     0.001 A 
HETATM   13  C11 UNK     1      11.125   6.323   6.320  1.00  0.00     0.014 A 
HETATM   14  C13 UNK     1       9.848   6.218   5.768  1.00  0.00     0.001 A 
HETATM   15  C15 UNK     1       8.730   6.188   6.600  1.00  0.00     0.000 A 
HETATM   16  C14 UNK     1       8.887   6.263   7.984  1.00  0.00     0.001 A 
HETATM   17  C12 UNK     1      10.163   6.369   8.536  1.00  0.00     0.014 A 
ENDBRANCH   5  12
BRANCH   7  18
HETATM   18  O2  UNK     1      12.905   4.142   8.501  1.00  0.00    -0.355 OA
HETATM   19  H9  UNK     1      13.193   3.603   9.255  1.00  0.00     0.218 HD
ENDBRANCH   7  18
BRANCH   8  20
HETATM   20  O3  UNK     1      17.280   6.376  10.303  1.00  0.00    -0.360 OA
HETATM   21  H10 UNK     1      18.100   6.402   9.787  1.00  0.00     0.217 HD
ENDBRANCH   8  20
TORSDOF 3
ENDMDL
MODEL 3
REMARK VINA RESULT:      -8.3     13.719     17.321
REMARK  3 active torsions:
REMARK  status: ('A' for Active; 'I' for Inactive)
REMARK    1  A    between atoms: C5_9  and  O2_2 
REMARK    2  A    between atoms: C7_11  and  O3_3 
REMARK    3  A    between atoms: C3_7  and  C6_10 
ROOT
HETATM    1  O1  UNK     1      18.883  -1.054  17.717  1.00  0.00    -0.306 OA
HETATM    2  O4  UNK     1      19.346   2.314  15.469  1.00  0.00    -0.284 OA
HETATM    3  C1  UNK     1      19.006   1.368  17.602  1.00  0.00     0.084 A 
HETATM    4  C2  UNK     1      18.852   0.181  18.313  1.00  0.00     0.093 A 
HETATM    5  C3  UNK     1      19.089  -1.119  16.348  1.00  0.00     0.123 A 
HETATM    6  C4  UNK     1      19.211   1.304  16.148  1.00  0.00     0.223 A 
HETATM    7  C5  UNK     1      19.243  -0.050  15.546  1.00  0.00     0.152 A 
HETATM    8  C7  UNK     1      18.964   2.598  18.265  1.00  0.00     0.082 A 
HETATM    9  C8  UNK     1      18.654   0.214  19.694  1.00  0.00     0.038 A 
HETATM   10  C9  UNK     1      18.767   2.629  19.646  1.00  0.00     0.038 A 
HETATM   11  C10 UNK     1      18.612   1.440  20.359  1.00  0.00     0.006 A 
ENDROOT
BRANCH   5  12
HETATM   12  C6  UNK     1      19.099  -2.502  15.835  1.00  0.00     0.001 A 
HETATM   13  C11 UNK     1      20.293  -3.223  15.797  1.00  0.00     0.014 A 
HETATM   14  C13 UNK     1      20.304  -4.530  15.311  1.00  0.00     0.001 A 
HETATM   15  C15 UNK     1      19.121  -5.117  14.863  1.00  0.00     0.000 A 
HETATM   16  C14 UNK     1      17.927  -4.397  14.901  1.00  0.00     0.001 A 
HETATM   17  C12 UNK     1      17.916  -3.090  15.386  1.00  0.00     0.014 A 
ENDBRANCH   5  12
BRANCH   7  18
HETATM   18  O2  UNK     1      19.413  -0.150  14.182  1.00  0.00    -0.355 OA
HETATM   19  H9  UNK     1      19.684   0.709  13.820  1.00  0.00     0.218 HD
ENDBRANCH   7  18
BRANCH   8  20
HETATM   20  O3  UNK     1      19.109   3.787  17.616  1.00  0.00    -0.360 OA
HETATM   21  H10 UNK     1      19.406   4.476  18.230  1.00  0.00     0.217 HD
ENDBRANCH   8  20
TORSDOF 3
ENDMDL
MODEL 4
REMARK VINA RESULT:      -8.2      1.545      3.011
REMARK  3 active torsions:
REMARK  status: ('A' for Active; 'I' for Inactive)
REMARK    1  A    between atoms: C5_9  and  O2_2 
REMARK    2  A    between atoms: C7_11  and  O3_3 
REMARK    3  A    between atoms: C3_7  and  C6_10 
ROOT
HETATM    1  O1  UNK     1      18.864  -0.449  33.348  1.00  0.00    -0.306 OA
HETATM    2  O4  UNK     1      18.891   2.460  30.494  1.00  0.00    -0.284 OA
HETATM    3  C1  UNK     1      19.428   0.243  31.090  1.00  0.00     0.084 A 
HETATM    4  C2  UNK     1      19.391  -0.707  32.108  1.00  0.00     0.093 A 
HETATM    5  C3  UNK     1      18.336   0.809  33.591  1.00  0.00     0.123 A 
HETATM    6  C4  UNK     1      18.881   1.583  31.348  1.00  0.00     0.223 A 
HETATM    7  C5  UNK     1      18.318   1.816  32.699  1.00  0.00     0.152 A 
HETATM    8  C7  UNK     1      19.978  -0.078  29.846  1.00  0.00     0.082 A 
HETATM    9  C8  UNK     1      19.905  -1.986  31.889  1.00  0.00     0.038 A 
HETATM   10  C9  UNK     1      20.491  -1.358  29.630  1.00  0.00     0.038 A 
HETATM   11  C10 UNK     1      20.454  -2.309  30.649  1.00  0.00     0.006 A 
ENDROOT
BRANCH   5  12
HETATM   12  C6  UNK     1      17.805   0.953  34.959  1.00  0.00     0.001 A 
HETATM   13  C11 UNK     1      18.587   1.542  35.953  1.00  0.00     0.014 A 
HETATM   14  C13 UNK     1      18.085   1.678  37.247  1.00  0.00     0.001 A 
HETATM   15  C15 UNK     1      16.801   1.225  37.548  1.00  0.00     0.000 A 
HETATM   16  C14 UNK     1      16.018   0.638  36.555  1.00  0.00     0.001 A 
HETATM   17  C12 UNK     1      16.520   0.500  35.261  1.00  0.00     0.014 A 
ENDBRANCH   5  12
BRANCH   7  18
HETATM   18  O2  UNK     1      17.814   3.066  32.985  1.00  0.00    -0.355 OA
HETATM   19  H9  UNK     1      18.543   3.701  33.077  1.00  0.00     0.218 HD
ENDBRANCH   7  18
BRANCH   8  20
HETATM   20  O3  UNK     1      20.039   0.814  28.818  1.00  0.00    -0.360 OA
HETATM   21  H10 UNK     1      19.933   0.361  27.968  1.00  0.00     0.217 HD
ENDBRANCH   8  20
TORSDOF 3
ENDMDL
MODEL 5
REMARK VINA RESULT:      -8.2      1.544      5.872
REMARK  3 active torsions:
REMARK  status: ('A' for Active; 'I' for Inactive)
REMARK    1  A    between atoms: C5_9  and  O2_2 
REMARK    2  A    between atoms: C7_11  and  O3_3 
REMARK    3  A    between atoms: C3_7  and  C6_10 
ROOT
HETATM    1  O1  UNK     1      18.680  -0.565  33.521  1.00  0.00    -0.306 OA
HETATM    2  O4  UNK     1      20.614  -3.387  35.736  1.00  0.00    -0.284 OA
HETATM    3  C1  UNK     1      19.011  -1.659  35.663  1.00  0.00     0.084 A 
HETATM    4  C2  UNK     1      18.388  -0.713  34.852  1.00  0.00     0.093 A 
HETATM    5  C3  UNK     1      19.630  -1.402  32.957  1.00  0.00     0.123 A 
HETATM    6  C4  UNK     1      20.028  -2.541  35.072  1.00  0.00     0.223 A 
HETATM    7  C5  UNK     1      20.309  -2.349  33.629  1.00  0.00     0.152 A 
HETATM    8  C7  UNK     1      18.671  -1.763  37.014  1.00  0.00     0.082 A 
HETATM    9  C8  UNK     1      17.420   0.137  35.389  1.00  0.00     0.038 A 
HETATM   10  C9  UNK     1      17.703  -0.913  37.548  1.00  0.00     0.038 A 
HETATM   11  C10 UNK     1      17.079   0.035  36.738  1.00  0.00     0.006 A 
ENDROOT
BRANCH   5  12
HETATM   12  C6  UNK     1      19.850  -1.137  31.523  1.00  0.00     0.001 A 
HETATM   13  C11 UNK     1      19.739   0.163  31.028  1.00  0.00     0.014 A 
HETATM   14  C13 UNK     1      19.946   0.413  29.672  1.00  0.00     0.001 A 
HETATM   15  C15 UNK     1      20.264  -0.636  28.810  1.00  0.00     0.000 A 
HETATM   16  C14 UNK     1      20.375  -1.936  29.304  1.00  0.00     0.001 A 
HETATM   17  C12 UNK     1      20.167  -2.186  30.660  1.00  0.00     0.014 A 
ENDBRANCH   5  12
BRANCH   7  18
HETATM   18  O2  UNK     1      21.272  -3.143  33.044  1.00  0.00    -0.355 OA
HETATM   19  H9  UNK     1      20.848  -3.836  32.512  1.00  0.00     0.218 HD
ENDBRANCH   7  18
BRANCH   8  20
HETATM   20  O3  UNK     1      19.251  -2.671  37.849  1.00  0.00    -0.360 OA
HETATM   21  H10 UNK     1      19.914  -2.243  38.411  1.00  0.00     0.217 HD
ENDBRANCH   8  20
TORSDOF 3
ENDMDL
MODEL 6
REMARK VINA RESULT:      -7.7     25.550     27.162
REMARK  3 active torsions:
REMARK  status: ('A' for Active; 'I' for Inactive)
REMARK    1  A    between atoms: C5_9  and  O2_2 
REMARK    2  A    between atoms: C7_11  and  O3_3 
REMARK    3  A    between atoms: C3_7  and  C6_10 
ROOT
HETATM    1  O1  UNK     1       9.675   5.834   9.708  1.00  0.00    -0.306 OA
HETATM    2  O4  UNK     1       9.570   6.824   5.757  1.00  0.00    -0.284 OA
HETATM    3  C1  UNK     1      10.836   6.042   7.586  1.00  0.00     0.084 A 
HETATM    4  C2  UNK     1      10.807   5.722   8.942  1.00  0.00     0.093 A 
HETATM    5  C3  UNK     1       8.509   6.274   9.103  1.00  0.00     0.123 A 
HETATM    6  C4  UNK     1       9.604   6.522   6.943  1.00  0.00     0.223 A 
HETATM    7  C5  UNK     1       8.404   6.622   7.808  1.00  0.00     0.152 A 
HETATM    8  C7  UNK     1      12.020   5.909   6.856  1.00  0.00     0.082 A 
HETATM    9  C8  UNK     1      11.963   5.266   9.577  1.00  0.00     0.038 A 
HETATM   10  C9  UNK     1      13.174   5.453   7.493  1.00  0.00     0.038 A 
HETATM   11  C10 UNK     1      13.146   5.132   8.850  1.00  0.00     0.006 A 
ENDROOT
BRANCH   5  12
HETATM   12  C6  UNK     1       7.370   6.349  10.037  1.00  0.00     0.001 A 
HETATM   13  C11 UNK     1       6.554   5.234  10.234  1.00  0.00     0.014 A 
HETATM   14  C13 UNK     1       5.477   5.306  11.117  1.00  0.00     0.001 A 
HETATM   15  C15 UNK     1       5.216   6.491  11.804  1.00  0.00     0.000 A 
HETATM   16  C14 UNK     1       6.031   7.605  11.608  1.00  0.00     0.001 A 
HETATM   17  C12 UNK     1       7.108   7.535  10.724  1.00  0.00     0.014 A 
ENDBRANCH   5  12
BRANCH   7  18
HETATM   18  O2  UNK     1       7.236   7.088   7.245  1.00  0.00    -0.355 OA
HETATM   19  H9  UNK     1       6.513   7.027   7.890  1.00  0.00     0.218 HD
ENDBRANCH   7  18
BRANCH   8  20
HETATM   20  O3  UNK     1      12.101   6.208   5.529  1.00  0.00    -0.360 OA
HETATM   21  H10 UNK     1      11.672   5.521   4.998  1.00  0.00     0.217 HD
ENDBRANCH   8  20
TORSDOF 3
ENDMDL
MODEL 7
REMARK VINA RESULT:      -7.4      4.127      5.807
REMARK  3 active torsions:
REMARK  status: ('A' for Active; 'I' for Inactive)
REMARK    1  A    between atoms: C5_9  and  O2_2 
REMARK    2  A    between atoms: C7_11  and  O3_3 
REMARK    3  A    between atoms: C3_7  and  C6_10 
ROOT
HETATM    1  O1  UNK     1      18.371   3.544  34.504  1.00  0.00    -0.306 OA
HETATM    2  O4  UNK     1      18.337   1.590  30.927  1.00  0.00    -0.284 OA
HETATM    3  C1  UNK     1      18.352   1.446  33.281  1.00  0.00     0.084 A 
HETATM    4  C2  UNK     1      18.366   2.173  34.470  1.00  0.00     0.093 A 
HETATM    5  C3  UNK     1      18.349   4.234  33.302  1.00  0.00     0.123 A 
HETATM    6  C4  UNK     1      18.343   2.174  32.004  1.00  0.00     0.223 A 
HETATM    7  C5  UNK     1      18.343   3.654  32.088  1.00  0.00     0.152 A 
HETATM    8  C7  UNK     1      18.350   0.049  33.309  1.00  0.00     0.082 A 
HETATM    9  C8  UNK     1      18.377   1.506  35.696  1.00  0.00     0.038 A 
HETATM   10  C9  UNK     1      18.360  -0.615  34.535  1.00  0.00     0.038 A 
HETATM   11  C10 UNK     1      18.374   0.111  35.726  1.00  0.00     0.006 A 
ENDROOT
BRANCH   5  12
HETATM   12  C6  UNK     1      18.357   5.698  33.481  1.00  0.00     0.001 A 
HETATM   13  C11 UNK     1      19.555   6.362  33.745  1.00  0.00     0.014 A 
HETATM   14  C13 UNK     1      19.562   7.746  33.915  1.00  0.00     0.001 A 
HETATM   15  C15 UNK     1      18.372   8.466  33.820  1.00  0.00     0.000 A 
HETATM   16  C14 UNK     1      17.174   7.803  33.556  1.00  0.00     0.001 A 
HETATM   17  C12 UNK     1      17.166   6.419  33.387  1.00  0.00     0.014 A 
ENDBRANCH   5  12
BRANCH   7  18
HETATM   18  O2  UNK     1      18.355   4.371  30.912  1.00  0.00    -0.355 OA
HETATM   19  H9  UNK     1      19.087   5.009  30.922  1.00  0.00     0.218 HD
ENDBRANCH   7  18
BRANCH   8  20
HETATM   20  O3  UNK     1      18.336  -0.707  32.176  1.00  0.00    -0.360 OA
HETATM   21  H10 UNK     1      18.127  -0.161  31.403  1.00  0.00     0.217 HD
ENDBRANCH   8  20
TORSDOF 3
ENDMDL
MODEL 8
REMARK VINA RESULT:      -7.4      1.959      6.285
REMARK  3 active torsions:
REMARK  status: ('A' for Active; 'I' for Inactive)
REMARK    1  A    between atoms: C5_9  and  O2_2 
REMARK    2  A    between atoms: C7_11  and  O3_3 
REMARK    3  A    between atoms: C3_7  and  C6_10 
ROOT
HETATM    1  O1  UNK     1      19.394  -1.379  33.751  1.00  0.00    -0.306 OA
HETATM    2  O4  UNK     1      17.305   1.788  35.240  1.00  0.00    -0.284 OA
HETATM    3  C1  UNK     1      18.335  -0.294  35.647  1.00  0.00     0.084 A 
HETATM    4  C2  UNK     1      19.046  -1.348  35.077  1.00  0.00     0.093 A 
HETATM    5  C3  UNK     1      19.031  -0.309  32.948  1.00  0.00     0.123 A 
HETATM    6  C4  UNK     1      17.936   0.837  34.797  1.00  0.00     0.223 A 
HETATM    7  C5  UNK     1      18.338   0.763  33.371  1.00  0.00     0.152 A 
HETATM    8  C7  UNK     1      18.007  -0.319  37.005  1.00  0.00     0.082 A 
HETATM    9  C8  UNK     1      19.435  -2.434  35.862  1.00  0.00     0.038 A 
HETATM   10  C9  UNK     1      18.397  -1.405  37.788  1.00  0.00     0.038 A 
HETATM   11  C10 UNK     1      19.109  -2.461  37.218  1.00  0.00     0.006 A 
ENDROOT
BRANCH   5  12
HETATM   12  C6  UNK     1      19.466  -0.469  31.548  1.00  0.00     0.001 A 
HETATM   13  C11 UNK     1      19.956  -1.698  31.105  1.00  0.00     0.014 A 
HETATM   14  C13 UNK     1      20.367  -1.849  29.781  1.00  0.00     0.001 A 
HETATM   15  C15 UNK     1      20.288  -0.771  28.900  1.00  0.00     0.000 A 
HETATM   16  C14 UNK     1      19.798   0.458  29.341  1.00  0.00     0.001 A 
HETATM   17  C12 UNK     1      19.388   0.609  30.665  1.00  0.00     0.014 A 
ENDBRANCH   5  12
BRANCH   7  18
HETATM   18  O2  UNK     1      17.965   1.795  32.538  1.00  0.00    -0.355 OA
HETATM   19  H9  UNK     1      18.137   1.552  31.614  1.00  0.00     0.218 HD
ENDBRANCH   7  18
BRANCH   8  20
HETATM   20  O3  UNK     1      17.313   0.686  37.611  1.00  0.00    -0.360 OA
HETATM   21  H10 UNK     1      16.654   1.057  37.007  1.00  0.00     0.217 HD
ENDBRANCH   8  20
TORSDOF 3
ENDMDL
MODEL 9
REMARK VINA RESULT:      -7.4      3.483      4.990
REMARK  3 active torsions:
REMARK  status: ('A' for Active; 'I' for Inactive)
REMARK    1  A    between atoms: C5_9  and  O2_2 
REMARK    2  A    between atoms: C7_11  and  O3_3 
REMARK    3  A    between atoms: C3_7  and  C6_10 
ROOT
HETATM    1  O1  UNK     1      17.913   3.462  33.841  1.00  0.00    -0.306 OA
HETATM    2  O4  UNK     1      18.941   2.582  29.997  1.00  0.00    -0.284 OA
HETATM    3  C1  UNK     1      18.479   4.238  31.611  1.00  0.00     0.084 A 
HETATM    4  C2  UNK     1      18.124   4.472  32.937  1.00  0.00     0.093 A 
HETATM    5  C3  UNK     1      18.073   2.153  33.416  1.00  0.00     0.123 A 
HETATM    6  C4  UNK     1      18.636   2.850  31.152  1.00  0.00     0.223 A 
HETATM    7  C5  UNK     1      18.404   1.791  32.163  1.00  0.00     0.152 A 
HETATM    8  C7  UNK     1      18.680   5.308  30.735  1.00  0.00     0.082 A 
HETATM    9  C8  UNK     1      17.966   5.780  33.397  1.00  0.00     0.038 A 
HETATM   10  C9  UNK     1      18.522   6.614  31.198  1.00  0.00     0.038 A 
HETATM   11  C10 UNK     1      18.166   6.851  32.525  1.00  0.00     0.006 A 
ENDROOT
BRANCH   5  12
HETATM   12  C6  UNK     1      17.816   1.168  34.483  1.00  0.00     0.001 A 
HETATM   13  C11 UNK     1      18.819   0.858  35.402  1.00  0.00     0.014 A 
HETATM   14  C13 UNK     1      18.577  -0.074  36.411  1.00  0.00     0.001 A 
HETATM   15  C15 UNK     1      17.332  -0.696  36.501  1.00  0.00     0.000 A 
HETATM   16  C14 UNK     1      16.329  -0.387  35.583  1.00  0.00     0.001 A 
HETATM   17  C12 UNK     1      16.571   0.544  34.573  1.00  0.00     0.014 A 
ENDBRANCH   5  12
BRANCH   7  18
HETATM   18  O2  UNK     1      18.522   0.477  31.766  1.00  0.00    -0.355 OA
HETATM   19  H9  UNK     1      18.752  -0.079  32.528  1.00  0.00     0.218 HD
ENDBRANCH   7  18
BRANCH   8  20
HETATM   20  O3  UNK     1      19.028   5.133  29.429  1.00  0.00    -0.360 OA
HETATM   21  H10 UNK     1      18.238   5.047  28.875  1.00  0.00     0.217 HD
ENDBRANCH   8  20
TORSDOF 3
ENDMDL
MODEL 10
REMARK VINA RESULT:      -7.4     24.811     27.057
REMARK  3 active torsions:
REMARK  status: ('A' for Active; 'I' for Inactive)
REMARK    1  A    between atoms: C5_9  and  O2_2 
REMARK    2  A    between atoms: C7_11  and  O3_3 
REMARK    3  A    between atoms: C3_7  and  C6_10 
ROOT
HETATM    1  O1  UNK     1      12.823   7.391   7.726  1.00  0.00    -0.306 OA
HETATM    2  O4  UNK     1       9.611   8.369  10.037  1.00  0.00    -0.284 OA
HETATM    3  C1  UNK     1      10.420   7.342   8.075  1.00  0.00     0.084 A 
HETATM    4  C2  UNK     1      11.558   7.040   7.329  1.00  0.00     0.093 A 
HETATM    5  C3  UNK     1      12.973   8.067   8.927  1.00  0.00     0.123 A 
HETATM    6  C4  UNK     1      10.574   8.070   9.342  1.00  0.00     0.223 A 
HETATM    7  C5  UNK     1      11.959   8.425   9.734  1.00  0.00     0.152 A 
HETATM    8  C7  UNK     1       9.156   6.958   7.619  1.00  0.00     0.082 A 
HETATM    9  C8  UNK     1      11.439   6.351   6.121  1.00  0.00     0.038 A 
HETATM   10  C9  UNK     1       9.040   6.270   6.411  1.00  0.00     0.038 A 
HETATM   11  C10 UNK     1      10.178   5.967   5.664  1.00  0.00     0.006 A 
ENDROOT
BRANCH   5  12
HETATM   12  C6  UNK     1      14.380   8.385   9.234  1.00  0.00     0.001 A 
HETATM   13  C11 UNK     1      15.170   7.463   9.923  1.00  0.00     0.014 A 
HETATM   14  C13 UNK     1      16.500   7.765  10.214  1.00  0.00     0.001 A 
HETATM   15  C15 UNK     1      17.041   8.986   9.815  1.00  0.00     0.000 A 
HETATM   16  C14 UNK     1      16.254   9.907   9.126  1.00  0.00     0.001 A 
HETATM   17  C12 UNK     1      14.923   9.607   8.836  1.00  0.00     0.014 A 
ENDBRANCH   5  12
BRANCH   7  18
HETATM   18  O2  UNK     1      12.142   9.126  10.907  1.00  0.00    -0.355 OA
HETATM   19  H9  UNK     1      11.931   8.559  11.666  1.00  0.00     0.218 HD
ENDBRANCH   7  18
BRANCH   8  20
HETATM   20  O3  UNK     1       8.013   7.229   8.309  1.00  0.00    -0.360 OA
HETATM   21  H10 UNK     1       7.487   7.900   7.848  1.00  0.00     0.217 HD
ENDBRANCH   8  20
TORSDOF 3
ENDMDL
