MODEL 1
REMARK VINA RESULT:      -9.2      0.000      0.000
REMARK  6 active torsions:
REMARK  status: ('A' for Active; 'I' for Inactive)
REMARK    1  A    between atoms: C5_11  and  S1_1 
REMARK    2  A    between atoms: N1_5  and  S1_1 
REMARK    3  A    between atoms: C10_16  and  N2_6 
REMARK       I    between atoms: C11_17  and  N2_6 
REMARK    4  A    between atoms: C11_17  and  C12_18 
REMARK    5  A    between atoms: C12_18  and  C13_19 
REMARK    6  A    between atoms: C14_20  and  C15_21 
ROOT
HETATM    1  O3  UNK     1      21.414  -1.739  34.748  1.00  0.00    -0.267 OA
HETATM    2  N2  UNK     1      19.658  -3.293  34.716  1.00  0.00    -0.323 N 
HETATM    3  C11 UNK     1      20.311  -2.106  34.352  1.00  0.00     0.257 C 
HETATM    4  H13 UNK     1      18.742  -3.453  34.304  1.00  0.00     0.169 HD
ENDROOT
BRANCH   2   5
HETATM    5  C10 UNK     1      20.107  -4.295  35.577  1.00  0.00     0.035 A 
HETATM    6  C8  UNK     1      20.071  -5.629  35.173  1.00  0.00     0.031 A 
HETATM    7  C6  UNK     1      20.521  -6.631  36.032  1.00  0.00     0.027 A 
HETATM    8  C5  UNK     1      21.000  -6.283  37.283  1.00  0.00     0.079 A 
HETATM    9  C7  UNK     1      21.043  -4.964  37.701  1.00  0.00     0.027 A 
HETATM   10  C9  UNK     1      20.593  -3.962  36.841  1.00  0.00     0.031 A 
BRANCH   8  11
HETATM   11  S1  UNK     1      21.570  -7.552  38.373  1.00  0.00     0.260 S 
HETATM   12  O1  UNK     1      22.882  -7.968  37.908  1.00  0.00    -0.200 OA
HETATM   13  O2  UNK     1      21.391  -7.077  39.732  1.00  0.00    -0.200 OA
BRANCH  11  14
HETATM   14  N1  UNK     1      20.437  -8.774  38.045  1.00  0.00    -0.307 N 
HETATM   15  C1  UNK     1      20.752  -9.753  36.962  1.00  0.00     0.135 C 
HETATM   16  C3  UNK     1      20.464 -11.120  37.568  1.00  0.00     0.022 C 
HETATM   17  C4  UNK     1      19.388 -10.828  38.595  1.00  0.00     0.022 C 
HETATM   18  C2  UNK     1      19.863  -9.516  39.200  1.00  0.00     0.135 C 
ENDBRANCH  11  14
ENDBRANCH   8  11
ENDBRANCH   2   5
BRANCH   3  19
HETATM   19  C12 UNK     1      19.521  -1.248  33.390  1.00  0.00     0.043 C 
HETATM   20  C14 UNK     1      18.577  -0.459  33.945  1.00  0.00     0.029 C 
BRANCH  19  21
HETATM   21  C13 UNK     1      19.798  -1.256  31.939  1.00  0.00    -0.021 A 
HETATM   22  C16 UNK     1      20.280  -2.411  31.350  1.00  0.00     0.012 A 
HETATM   23  C20 UNK     1      20.542  -2.419  29.980  1.00  0.00     0.001 A 
HETATM   24  C22 UNK     1      20.318  -1.271  29.221  1.00  0.00     0.000 A 
HETATM   25  C21 UNK     1      19.831  -0.115  29.831  1.00  0.00     0.001 A 
HETATM   26  C17 UNK     1      19.569  -0.108  31.202  1.00  0.00     0.012 A 
ENDBRANCH  19  21
BRANCH  20  27
HETATM   27  C15 UNK     1      18.238  -0.389  35.374  1.00  0.00    -0.035 A 
HETATM   28  C18 UNK     1      18.468   0.787  36.072  1.00  0.00     0.011 A 
HETATM   29  C23 UNK     1      18.148   0.854  37.427  1.00  0.00     0.001 A 
HETATM   30  C25 UNK     1      17.600  -0.256  38.070  1.00  0.00     0.000 A 
HETATM   31  C24 UNK     1      17.373  -1.433  37.357  1.00  0.00     0.001 A 
HETATM   32  C19 UNK     1      17.695  -1.500  36.001  1.00  0.00     0.011 A 
ENDBRANCH  20  27
ENDBRANCH   3  19
TORSDOF 6
ENDMDL
MODEL 2
REMARK VINA RESULT:      -9.0      9.432     12.492
REMARK  6 active torsions:
REMARK  status: ('A' for Active; 'I' for Inactive)
REMARK    1  A    between atoms: C5_11  and  S1_1 
REMARK    2  A    between atoms: N1_5  and  S1_1 
REMARK    3  A    between atoms: C10_16  and  N2_6 
REMARK       I    between atoms: C11_17  and  N2_6 
REMARK    4  A    between atoms: C11_17  and  C12_18 
REMARK    5  A    between atoms: C12_18  and  C13_19 
REMARK    6  A    between atoms: C14_20  and  C15_21 
ROOT
HETATM    1  O3  UNK     1      31.010  -9.109  33.213  1.00  0.00    -0.267 OA
HETATM    2  N2  UNK     1      28.822  -9.781  33.724  1.00  0.00    -0.323 N 
HETATM    3  C11 UNK     1      30.000  -9.761  32.961  1.00  0.00     0.257 C 
HETATM    4  H13 UNK     1      28.068 -10.371  33.380  1.00  0.00     0.169 HD
ENDROOT
BRANCH   2   5
HETATM    5  C10 UNK     1      28.549  -9.093  34.907  1.00  0.00     0.035 A 
HETATM    6  C8  UNK     1      28.207  -7.742  34.864  1.00  0.00     0.031 A 
HETATM    7  C6  UNK     1      27.932  -7.055  36.047  1.00  0.00     0.027 A 
HETATM    8  C5  UNK     1      28.004  -7.729  37.253  1.00  0.00     0.079 A 
HETATM    9  C7  UNK     1      28.343  -9.070  37.314  1.00  0.00     0.027 A 
HETATM   10  C9  UNK     1      28.618  -9.758  36.131  1.00  0.00     0.031 A 
BRANCH   8  11
HETATM   11  S1  UNK     1      27.656  -6.859  38.751  1.00  0.00     0.260 S 
HETATM   12  O1  UNK     1      26.504  -6.010  38.503  1.00  0.00    -0.200 OA
HETATM   13  O2  UNK     1      27.633  -7.831  39.828  1.00  0.00    -0.200 OA
BRANCH  11  14
HETATM   14  N1  UNK     1      29.051  -5.899  38.882  1.00  0.00    -0.307 N 
HETATM   15  C1  UNK     1      30.353  -6.487  38.449  1.00  0.00     0.135 C 
HETATM   16  C3  UNK     1      30.995  -5.423  37.567  1.00  0.00     0.022 C 
HETATM   17  C4  UNK     1      30.427  -4.128  38.113  1.00  0.00     0.022 C 
HETATM   18  C2  UNK     1      28.978  -4.496  38.388  1.00  0.00     0.135 C 
ENDBRANCH  11  14
ENDBRANCH   8  11
ENDBRANCH   2   5
BRANCH   3  19
HETATM   19  C12 UNK     1      29.941 -10.636  31.730  1.00  0.00     0.043 C 
HETATM   20  C14 UNK     1      29.453 -10.052  30.616  1.00  0.00     0.029 C 
BRANCH  19  21
HETATM   21  C13 UNK     1      30.425 -12.031  31.749  1.00  0.00    -0.021 A 
HETATM   22  C16 UNK     1      30.320 -12.798  30.603  1.00  0.00     0.012 A 
HETATM   23  C20 UNK     1      30.776 -14.116  30.620  1.00  0.00     0.001 A 
HETATM   24  C22 UNK     1      31.330 -14.647  31.785  1.00  0.00     0.000 A 
HETATM   25  C21 UNK     1      31.428 -13.859  32.932  1.00  0.00     0.001 A 
HETATM   26  C17 UNK     1      30.971 -12.541  32.914  1.00  0.00     0.012 A 
ENDBRANCH  19  21
BRANCH  20  27
HETATM   27  C15 UNK     1      28.953  -8.673  30.510  1.00  0.00    -0.035 A 
HETATM   28  C18 UNK     1      27.592  -8.430  30.623  1.00  0.00     0.011 A 
HETATM   29  C23 UNK     1      27.118  -7.123  30.523  1.00  0.00     0.001 A 
HETATM   30  C25 UNK     1      28.010  -6.072  30.312  1.00  0.00     0.000 A 
HETATM   31  C24 UNK     1      29.377  -6.329  30.200  1.00  0.00     0.001 A 
HETATM   32  C19 UNK     1      29.851  -7.637  30.299  1.00  0.00     0.011 A 
ENDBRANCH  20  27
ENDBRANCH   3  19
TORSDOF 6
ENDMDL
MODEL 3
REMARK VINA RESULT:      -9.0      0.950      4.384
REMARK  6 active torsions:
REMARK  status: ('A' for Active; 'I' for Inactive)
REMARK    1  A    between atoms: C5_11  and  S1_1 
REMARK    2  A    between atoms: N1_5  and  S1_1 
REMARK    3  A    between atoms: C10_16  and  N2_6 
REMARK       I    between atoms: C11_17  and  N2_6 
REMARK    4  A    between atoms: C11_17  and  C12_18 
REMARK    5  A    between atoms: C12_18  and  C13_19 
REMARK    6  A    between atoms: C14_20  and  C15_21 
ROOT
HETATM    1  O3  UNK     1      20.822  -1.625  34.714  1.00  0.00    -0.267 OA
HETATM    2  N2  UNK     1      19.064  -2.823  35.700  1.00  0.00    -0.323 N 
HETATM    3  C11 UNK     1      19.632  -1.756  34.988  1.00  0.00     0.257 C 
HETATM    4  H13 UNK     1      18.059  -2.786  35.851  1.00  0.00     0.169 HD
ENDROOT
BRANCH   2   5
HETATM    5  C10 UNK     1      19.705  -3.943  36.232  1.00  0.00     0.035 A 
HETATM    6  C8  UNK     1      20.490  -3.818  37.378  1.00  0.00     0.031 A 
HETATM    7  C6  UNK     1      21.130  -4.937  37.911  1.00  0.00     0.027 A 
HETATM    8  C5  UNK     1      20.974  -6.164  37.289  1.00  0.00     0.079 A 
HETATM    9  C7  UNK     1      20.199  -6.307  36.151  1.00  0.00     0.027 A 
HETATM   10  C9  UNK     1      19.559  -5.186  35.618  1.00  0.00     0.031 A 
BRANCH   8  11
HETATM   11  S1  UNK     1      21.784  -7.582  37.965  1.00  0.00     0.260 S 
HETATM   12  O1  UNK     1      22.866  -7.936  37.063  1.00  0.00    -0.200 OA
HETATM   13  O2  UNK     1      22.056  -7.307  39.364  1.00  0.00    -0.200 OA
BRANCH  11  14
HETATM   14  N1  UNK     1      20.542  -8.735  37.844  1.00  0.00    -0.307 N 
HETATM   15  C1  UNK     1      20.640  -9.764  36.767  1.00  0.00     0.135 C 
HETATM   16  C3  UNK     1      20.355 -11.090  37.459  1.00  0.00     0.022 C 
HETATM   17  C4  UNK     1      19.456 -10.696  38.614  1.00  0.00     0.022 C 
HETATM   18  C2  UNK     1      20.092  -9.402  39.096  1.00  0.00     0.135 C 
ENDBRANCH  11  14
ENDBRANCH   8  11
ENDBRANCH   2   5
BRANCH   3  19
HETATM   19  C12 UNK     1      18.629  -0.710  34.560  1.00  0.00     0.043 C 
HETATM   20  C14 UNK     1      18.566  -0.463  33.234  1.00  0.00     0.029 C 
BRANCH  19  21
HETATM   21  C13 UNK     1      17.753  -0.033  35.536  1.00  0.00    -0.021 A 
HETATM   22  C16 UNK     1      16.380  -0.103  35.376  1.00  0.00     0.012 A 
HETATM   23  C20 UNK     1      15.553   0.536  36.298  1.00  0.00     0.001 A 
HETATM   24  C22 UNK     1      16.110   1.238  37.367  1.00  0.00     0.000 A 
HETATM   25  C21 UNK     1      17.496   1.299  37.513  1.00  0.00     0.001 A 
HETATM   26  C17 UNK     1      18.324   0.659  36.590  1.00  0.00     0.012 A 
ENDBRANCH  19  21
BRANCH  20  27
HETATM   27  C15 UNK     1      19.398  -1.091  32.197  1.00  0.00    -0.035 A 
HETATM   28  C18 UNK     1      19.779  -0.350  31.088  1.00  0.00     0.011 A 
HETATM   29  C23 UNK     1      20.568  -0.945  30.104  1.00  0.00     0.001 A 
HETATM   30  C25 UNK     1      20.967  -2.275  30.240  1.00  0.00     0.000 A 
HETATM   31  C24 UNK     1      20.577  -3.009  31.360  1.00  0.00     0.001 A 
HETATM   32  C19 UNK     1      19.787  -2.414  32.344  1.00  0.00     0.011 A 
ENDBRANCH  20  27
ENDBRANCH   3  19
TORSDOF 6
ENDMDL
MODEL 4
REMARK VINA RESULT:      -8.9     11.316     14.002
REMARK  6 active torsions:
REMARK  status: ('A' for Active; 'I' for Inactive)
REMARK    1  A    between atoms: C5_11  and  S1_1 
REMARK    2  A    between atoms: N1_5  and  S1_1 
REMARK    3  A    between atoms: C10_16  and  N2_6 
REMARK       I    between atoms: C11_17  and  N2_6 
REMARK    4  A    between atoms: C11_17  and  C12_18 
REMARK    5  A    between atoms: C12_18  and  C13_19 
REMARK    6  A    between atoms: C14_20  and  C15_21 
ROOT
HETATM    1  O3  UNK     1      29.699  -6.429  35.162  1.00  0.00    -0.267 OA
HETATM    2  N2  UNK     1      31.425  -8.015  35.140  1.00  0.00    -0.323 N 
HETATM    3  C11 UNK     1      30.516  -7.136  35.746  1.00  0.00     0.257 C 
HETATM    4  H13 UNK     1      32.044  -8.531  35.762  1.00  0.00     0.169 HD
ENDROOT
BRANCH   2   5
HETATM    5  C10 UNK     1      31.593  -8.281  33.780  1.00  0.00     0.035 A 
HETATM    6  C8  UNK     1      31.306  -9.551  33.278  1.00  0.00     0.031 A 
HETATM    7  C6  UNK     1      31.472  -9.817  31.918  1.00  0.00     0.027 A 
HETATM    8  C5  UNK     1      31.922  -8.809  31.083  1.00  0.00     0.079 A 
HETATM    9  C7  UNK     1      32.212  -7.544  31.564  1.00  0.00     0.027 A 
HETATM   10  C9  UNK     1      32.045  -7.278  32.925  1.00  0.00     0.031 A 
BRANCH   8  11
HETATM   11  S1  UNK     1      32.132  -9.145  29.361  1.00  0.00     0.260 S 
HETATM   12  O1  UNK     1      32.962  -8.090  28.809  1.00  0.00    -0.200 OA
HETATM   13  O2  UNK     1      32.530 -10.535  29.231  1.00  0.00    -0.200 OA
BRANCH  11  14
HETATM   14  N1  UNK     1      30.535  -8.959  28.812  1.00  0.00    -0.307 N 
HETATM   15  C1  UNK     1      30.013  -9.944  27.820  1.00  0.00     0.135 C 
HETATM   16  C3  UNK     1      28.652 -10.365  28.359  1.00  0.00     0.022 C 
HETATM   17  C4  UNK     1      28.196  -9.151  29.143  1.00  0.00     0.022 C 
HETATM   18  C2  UNK     1      29.477  -8.705  29.828  1.00  0.00     0.135 C 
ENDBRANCH  11  14
ENDBRANCH   8  11
ENDBRANCH   2   5
BRANCH   3  19
HETATM   19  C12 UNK     1      30.616  -7.102  37.254  1.00  0.00     0.043 C 
HETATM   20  C14 UNK     1      31.683  -6.447  37.758  1.00  0.00     0.029 C 
BRANCH  19  21
HETATM   21  C13 UNK     1      29.586  -7.721  38.112  1.00  0.00    -0.021 A 
HETATM   22  C16 UNK     1      28.721  -6.908  38.822  1.00  0.00     0.012 A 
HETATM   23  C20 UNK     1      27.748  -7.492  39.632  1.00  0.00     0.001 A 
HETATM   24  C22 UNK     1      27.656  -8.881  39.721  1.00  0.00     0.000 A 
HETATM   25  C21 UNK     1      28.537  -9.686  38.998  1.00  0.00     0.001 A 
HETATM   26  C17 UNK     1      29.510  -9.101  38.187  1.00  0.00     0.012 A 
ENDBRANCH  19  21
BRANCH  20  27
HETATM   27  C15 UNK     1      32.751  -5.804  36.977  1.00  0.00    -0.035 A 
HETATM   28  C18 UNK     1      34.001  -6.401  36.911  1.00  0.00     0.011 A 
HETATM   29  C23 UNK     1      35.014  -5.791  36.171  1.00  0.00     0.001 A 
HETATM   30  C25 UNK     1      34.765  -4.591  35.505  1.00  0.00     0.000 A 
HETATM   31  C24 UNK     1      33.504  -4.001  35.579  1.00  0.00     0.001 A 
HETATM   32  C19 UNK     1      32.490  -4.610  36.321  1.00  0.00     0.011 A 
ENDBRANCH  20  27
ENDBRANCH   3  19
TORSDOF 6
ENDMDL
MODEL 5
REMARK VINA RESULT:      -8.9     10.010     12.878
REMARK  6 active torsions:
REMARK  status: ('A' for Active; 'I' for Inactive)
REMARK    1  A    between atoms: C5_11  and  S1_1 
REMARK    2  A    between atoms: N1_5  and  S1_1 
REMARK    3  A    between atoms: C10_16  and  N2_6 
REMARK       I    between atoms: C11_17  and  N2_6 
REMARK    4  A    between atoms: C11_17  and  C12_18 
REMARK    5  A    between atoms: C12_18  and  C13_19 
REMARK    6  A    between atoms: C14_20  and  C15_21 
ROOT
HETATM    1  O3  UNK     1      28.641 -10.033  33.835  1.00  0.00    -0.267 OA
HETATM    2  N2  UNK     1      30.655  -8.924  33.374  1.00  0.00    -0.323 N 
HETATM    3  C11 UNK     1      29.634  -9.856  33.134  1.00  0.00     0.257 C 
HETATM    4  H13 UNK     1      31.417  -8.901  32.700  1.00  0.00     0.169 HD
ENDROOT
BRANCH   2   5
HETATM    5  C10 UNK     1      30.763  -8.014  34.426  1.00  0.00     0.035 A 
HETATM    6  C8  UNK     1      31.703  -8.222  35.434  1.00  0.00     0.031 A 
HETATM    7  C6  UNK     1      31.812  -7.311  36.485  1.00  0.00     0.027 A 
HETATM    8  C5  UNK     1      30.978  -6.207  36.512  1.00  0.00     0.079 A 
HETATM    9  C7  UNK     1      30.038  -5.986  35.520  1.00  0.00     0.027 A 
HETATM   10  C9  UNK     1      29.930  -6.897  34.468  1.00  0.00     0.031 A 
BRANCH   8  11
HETATM   11  S1  UNK     1      31.115  -5.054  37.843  1.00  0.00     0.260 S 
HETATM   12  O1  UNK     1      32.347  -5.352  38.552  1.00  0.00    -0.200 OA
HETATM   13  O2  UNK     1      30.883  -3.727  37.300  1.00  0.00    -0.200 OA
BRANCH  11  14
HETATM   14  N1  UNK     1      29.786  -5.518  38.794  1.00  0.00    -0.307 N 
HETATM   15  C1  UNK     1      28.530  -4.719  38.684  1.00  0.00     0.135 C 
HETATM   16  C3  UNK     1      27.419  -5.749  38.521  1.00  0.00     0.022 C 
HETATM   17  C4  UNK     1      27.964  -6.967  39.239  1.00  0.00     0.022 C 
HETATM   18  C2  UNK     1      29.427  -6.962  38.827  1.00  0.00     0.135 C 
ENDBRANCH  11  14
ENDBRANCH   8  11
ENDBRANCH   2   5
BRANCH   3  19
HETATM   19  C12 UNK     1      29.848 -10.685  31.888  1.00  0.00     0.043 C 
HETATM   20  C14 UNK     1      29.521 -10.089  30.722  1.00  0.00     0.029 C 
BRANCH  19  21
HETATM   21  C13 UNK     1      30.414 -12.047  31.953  1.00  0.00    -0.021 A 
HETATM   22  C16 UNK     1      30.314 -12.873  30.848  1.00  0.00     0.012 A 
HETATM   23  C20 UNK     1      30.848 -14.160  30.909  1.00  0.00     0.001 A 
HETATM   24  C22 UNK     1      31.472 -14.602  32.075  1.00  0.00     0.000 A 
HETATM   25  C21 UNK     1      31.564 -13.755  33.181  1.00  0.00     0.001 A 
HETATM   26  C17 UNK     1      31.029 -12.468  33.119  1.00  0.00     0.012 A 
ENDBRANCH  19  21
BRANCH  20  27
HETATM   27  C15 UNK     1      28.956  -8.740  30.568  1.00  0.00    -0.035 A 
HETATM   28  C18 UNK     1      27.581  -8.567  30.622  1.00  0.00     0.011 A 
HETATM   29  C23 UNK     1      27.044  -7.289  30.477  1.00  0.00     0.001 A 
HETATM   30  C25 UNK     1      27.889  -6.196  30.279  1.00  0.00     0.000 A 
HETATM   31  C24 UNK     1      29.270  -6.383  30.226  1.00  0.00     0.001 A 
HETATM   32  C19 UNK     1      29.807  -7.663  30.371  1.00  0.00     0.011 A 
ENDBRANCH  20  27
ENDBRANCH   3  19
TORSDOF 6
ENDMDL
MODEL 6
REMARK VINA RESULT:      -8.9     11.264     13.924
REMARK  6 active torsions:
REMARK  status: ('A' for Active; 'I' for Inactive)
REMARK    1  A    between atoms: C5_11  and  S1_1 
REMARK    2  A    between atoms: N1_5  and  S1_1 
REMARK    3  A    between atoms: C10_16  and  N2_6 
REMARK       I    between atoms: C11_17  and  N2_6 
REMARK    4  A    between atoms: C11_17  and  C12_18 
REMARK    5  A    between atoms: C12_18  and  C13_19 
REMARK    6  A    between atoms: C14_20  and  C15_21 
ROOT
HETATM    1  O3  UNK     1      31.854  -8.799  35.817  1.00  0.00    -0.267 OA
HETATM    2  N2  UNK     1      30.246  -7.312  34.979  1.00  0.00    -0.323 N 
HETATM    3  C11 UNK     1      31.022  -7.910  35.982  1.00  0.00     0.257 C 
HETATM    4  H13 UNK     1      29.595  -6.588  35.277  1.00  0.00     0.169 HD
ENDROOT
BRANCH   2   5
HETATM    5  C10 UNK     1      30.252  -7.579  33.609  1.00  0.00     0.035 A 
HETATM    6  C8  UNK     1      31.054  -6.823  32.755  1.00  0.00     0.031 A 
HETATM    7  C6  UNK     1      31.060  -7.091  31.386  1.00  0.00     0.027 A 
HETATM    8  C5  UNK     1      30.265  -8.111  30.893  1.00  0.00     0.079 A 
HETATM    9  C7  UNK     1      29.463  -8.871  31.726  1.00  0.00     0.027 A 
HETATM   10  C9  UNK     1      29.456  -8.603  33.096  1.00  0.00     0.031 A 
BRANCH   8  11
HETATM   11  S1  UNK     1      30.274  -8.450  29.159  1.00  0.00     0.260 S 
HETATM   12  O1  UNK     1      28.951  -8.931  28.802  1.00  0.00    -0.200 OA
HETATM   13  O2  UNK     1      30.839  -7.294  28.488  1.00  0.00    -0.200 OA
BRANCH  11  14
HETATM   14  N1  UNK     1      31.381  -9.737  29.101  1.00  0.00    -0.307 N 
HETATM   15  C1  UNK     1      32.754  -9.509  29.643  1.00  0.00     0.135 C 
HETATM   16  C3  UNK     1      33.030 -10.710  30.538  1.00  0.00     0.022 C 
HETATM   17  C4  UNK     1      32.192 -11.809  29.917  1.00  0.00     0.022 C 
HETATM   18  C2  UNK     1      30.912 -11.077  29.549  1.00  0.00     0.135 C 
ENDBRANCH  11  14
ENDBRANCH   8  11
ENDBRANCH   2   5
BRANCH   3  19
HETATM   19  C12 UNK     1      30.750  -7.367  37.366  1.00  0.00     0.043 C 
HETATM   20  C14 UNK     1      31.566  -6.374  37.780  1.00  0.00     0.029 C 
BRANCH  19  21
HETATM   21  C13 UNK     1      29.635  -7.874  38.191  1.00  0.00    -0.021 A 
HETATM   22  C16 UNK     1      29.455  -9.241  38.316  1.00  0.00     0.012 A 
HETATM   23  C20 UNK     1      28.402  -9.720  39.095  1.00  0.00     0.001 A 
HETATM   24  C22 UNK     1      27.544  -8.826  39.735  1.00  0.00     0.000 A 
HETATM   25  C21 UNK     1      27.741  -7.452  39.598  1.00  0.00     0.001 A 
HETATM   26  C17 UNK     1      28.794  -6.972  38.819  1.00  0.00     0.012 A 
ENDBRANCH  19  21
BRANCH  20  27
HETATM   27  C15 UNK     1      32.694  -5.811  37.024  1.00  0.00    -0.035 A 
HETATM   28  C18 UNK     1      33.970  -6.318  37.225  1.00  0.00     0.011 A 
HETATM   29  C23 UNK     1      35.040  -5.784  36.508  1.00  0.00     0.001 A 
HETATM   30  C25 UNK     1      34.824  -4.749  35.598  1.00  0.00     0.000 A 
HETATM   31  C24 UNK     1      33.536  -4.248  35.406  1.00  0.00     0.001 A 
HETATM   32  C19 UNK     1      32.465  -4.782  36.123  1.00  0.00     0.011 A 
ENDBRANCH  20  27
ENDBRANCH   3  19
TORSDOF 6
ENDMDL
MODEL 7
REMARK VINA RESULT:      -8.9     28.297     30.651
REMARK  6 active torsions:
REMARK  status: ('A' for Active; 'I' for Inactive)
REMARK    1  A    between atoms: C5_11  and  S1_1 
REMARK    2  A    between atoms: N1_5  and  S1_1 
REMARK    3  A    between atoms: C10_16  and  N2_6 
REMARK       I    between atoms: C11_17  and  N2_6 
REMARK    4  A    between atoms: C11_17  and  C12_18 
REMARK    5  A    between atoms: C12_18  and  C13_19 
REMARK    6  A    between atoms: C14_20  and  C15_21 
ROOT
HETATM    1  O3  UNK     1      18.529  10.896   8.420  1.00  0.00    -0.267 OA
HETATM    2  N2  UNK     1      16.952  10.878  10.156  1.00  0.00    -0.323 N 
HETATM    3  C11 UNK     1      18.046  11.384   9.439  1.00  0.00     0.257 C 
HETATM    4  H13 UNK     1      16.673  11.396  10.986  1.00  0.00     0.169 HD
ENDROOT
BRANCH   2   5
HETATM    5  C10 UNK     1      16.186   9.745   9.875  1.00  0.00     0.035 A 
HETATM    6  C8  UNK     1      16.553   8.508  10.403  1.00  0.00     0.031 A 
HETATM    7  C6  UNK     1      15.787   7.375  10.124  1.00  0.00     0.027 A 
HETATM    8  C5  UNK     1      14.667   7.499   9.321  1.00  0.00     0.079 A 
HETATM    9  C7  UNK     1      14.289   8.719   8.788  1.00  0.00     0.027 A 
HETATM   10  C9  UNK     1      15.055   9.852   9.068  1.00  0.00     0.031 A 
BRANCH   8  11
HETATM   11  S1  UNK     1      13.697   6.065   8.967  1.00  0.00     0.260 S 
HETATM   12  O1  UNK     1      14.491   5.203   8.110  1.00  0.00    -0.200 OA
HETATM   13  O2  UNK     1      13.174   5.568  10.226  1.00  0.00    -0.200 OA
BRANCH  11  14
HETATM   14  N1  UNK     1      12.436   6.759   8.064  1.00  0.00    -0.307 N 
HETATM   15  C1  UNK     1      12.352   6.436   6.609  1.00  0.00     0.135 C 
HETATM   16  C3  UNK     1      10.894   6.067   6.369  1.00  0.00     0.022 C 
HETATM   17  C4  UNK     1      10.154   6.857   7.429  1.00  0.00     0.022 C 
HETATM   18  C2  UNK     1      11.063   6.712   8.639  1.00  0.00     0.135 C 
ENDBRANCH  11  14
ENDBRANCH   8  11
ENDBRANCH   2   5
BRANCH   3  19
HETATM   19  C12 UNK     1      18.636  12.640  10.039  1.00  0.00     0.043 C 
HETATM   20  C14 UNK     1      18.154  13.805   9.557  1.00  0.00     0.029 C 
BRANCH  19  21
HETATM   21  C13 UNK     1      19.651  12.582  11.109  1.00  0.00    -0.021 A 
HETATM   22  C16 UNK     1      19.318  13.015  12.381  1.00  0.00     0.012 A 
HETATM   23  C20 UNK     1      20.276  12.961  13.392  1.00  0.00     0.001 A 
HETATM   24  C22 UNK     1      21.555  12.476  13.116  1.00  0.00     0.000 A 
HETATM   25  C21 UNK     1      21.874  12.045  11.829  1.00  0.00     0.001 A 
HETATM   26  C17 UNK     1      20.915  12.099  10.817  1.00  0.00     0.012 A 
ENDBRANCH  19  21
BRANCH  20  27
HETATM   27  C15 UNK     1      17.146  13.951   8.496  1.00  0.00    -0.035 A 
HETATM   28  C18 UNK     1      17.557  14.157   7.188  1.00  0.00     0.011 A 
HETATM   29  C23 UNK     1      16.602  14.296   6.182  1.00  0.00     0.001 A 
HETATM   30  C25 UNK     1      15.244  14.226   6.496  1.00  0.00     0.000 A 
HETATM   31  C24 UNK     1      14.843  14.018   7.815  1.00  0.00     0.001 A 
HETATM   32  C19 UNK     1      15.800  13.881   8.822  1.00  0.00     0.011 A 
ENDBRANCH  20  27
ENDBRANCH   3  19
TORSDOF 6
ENDMDL
MODEL 8
REMARK VINA RESULT:      -8.9     11.189     13.853
REMARK  6 active torsions:
REMARK  status: ('A' for Active; 'I' for Inactive)
REMARK    1  A    between atoms: C5_11  and  S1_1 
REMARK    2  A    between atoms: N1_5  and  S1_1 
REMARK    3  A    between atoms: C10_16  and  N2_6 
REMARK       I    between atoms: C11_17  and  N2_6 
REMARK    4  A    between atoms: C11_17  and  C12_18 
REMARK    5  A    between atoms: C12_18  and  C13_19 
REMARK    6  A    between atoms: C14_20  and  C15_21 
ROOT
HETATM    1  O3  UNK     1      29.572  -6.474  35.202  1.00  0.00    -0.267 OA
HETATM    2  N2  UNK     1      31.316  -8.042  35.222  1.00  0.00    -0.323 N 
HETATM    3  C11 UNK     1      30.396  -7.157  35.805  1.00  0.00     0.257 C 
HETATM    4  H13 UNK     1      31.940  -8.535  35.858  1.00  0.00     0.169 HD
ENDROOT
BRANCH   2   5
HETATM    5  C10 UNK     1      31.489  -8.340  33.870  1.00  0.00     0.035 A 
HETATM    6  C8  UNK     1      31.146  -9.602  33.385  1.00  0.00     0.031 A 
HETATM    7  C6  UNK     1      31.318  -9.900  32.033  1.00  0.00     0.027 A 
HETATM    8  C5  UNK     1      31.829  -8.931  31.187  1.00  0.00     0.079 A 
HETATM    9  C7  UNK     1      32.176  -7.674  31.651  1.00  0.00     0.027 A 
HETATM   10  C9  UNK     1      32.004  -7.376  33.004  1.00  0.00     0.031 A 
BRANCH   8  11
HETATM   11  S1  UNK     1      32.046  -9.309  29.475  1.00  0.00     0.260 S 
HETATM   12  O1  UNK     1      32.966  -8.328  28.926  1.00  0.00    -0.200 OA
HETATM   13  O2  UNK     1      32.337 -10.727  29.371  1.00  0.00    -0.200 OA
BRANCH  11  14
HETATM   14  N1  UNK     1      30.480  -9.008  28.891  1.00  0.00    -0.307 N 
HETATM   15  C1  UNK     1      29.937  -9.912  27.833  1.00  0.00     0.135 C 
HETATM   16  C3  UNK     1      28.539 -10.284  28.310  1.00  0.00     0.022 C 
HETATM   17  C4  UNK     1      28.124  -9.088  29.143  1.00  0.00     0.022 C 
HETATM   18  C2  UNK     1      29.405  -8.748  29.888  1.00  0.00     0.135 C 
ENDBRANCH  11  14
ENDBRANCH   8  11
ENDBRANCH   2   5
BRANCH   3  19
HETATM   19  C12 UNK     1      30.494  -7.085  37.311  1.00  0.00     0.043 C 
HETATM   20  C14 UNK     1      31.518  -6.355  37.800  1.00  0.00     0.029 C 
BRANCH  19  21
HETATM   21  C13 UNK     1      29.503  -7.747  38.183  1.00  0.00    -0.021 A 
HETATM   22  C16 UNK     1      29.485  -9.128  38.258  1.00  0.00     0.012 A 
HETATM   23  C20 UNK     1      28.549  -9.753  39.081  1.00  0.00     0.001 A 
HETATM   24  C22 UNK     1      27.644  -8.988  39.817  1.00  0.00     0.000 A 
HETATM   25  C21 UNK     1      27.677  -7.596  39.729  1.00  0.00     0.001 A 
HETATM   26  C17 UNK     1      28.613  -6.970  38.906  1.00  0.00     0.012 A 
ENDBRANCH  19  21
BRANCH  20  27
HETATM   27  C15 UNK     1      32.545  -5.664  37.005  1.00  0.00    -0.035 A 
HETATM   28  C18 UNK     1      32.240  -4.453  36.402  1.00  0.00     0.011 A 
HETATM   29  C23 UNK     1      33.213  -3.797  35.649  1.00  0.00     0.001 A 
HETATM   30  C25 UNK     1      34.481  -4.360  35.506  1.00  0.00     0.000 A 
HETATM   31  C24 UNK     1      34.776  -5.579  36.118  1.00  0.00     0.001 A 
HETATM   32  C19 UNK     1      33.801  -6.235  36.871  1.00  0.00     0.011 A 
ENDBRANCH  20  27
ENDBRANCH   3  19
TORSDOF 6
ENDMDL
MODEL 9
REMARK VINA RESULT:      -8.9     28.306     30.625
REMARK  6 active torsions:
REMARK  status: ('A' for Active; 'I' for Inactive)
REMARK    1  A    between atoms: C5_11  and  S1_1 
REMARK    2  A    between atoms: N1_5  and  S1_1 
REMARK    3  A    between atoms: C10_16  and  N2_6 
REMARK       I    between atoms: C11_17  and  N2_6 
REMARK    4  A    between atoms: C11_17  and  C12_18 
REMARK    5  A    between atoms: C12_18  and  C13_19 
REMARK    6  A    between atoms: C14_20  and  C15_21 
ROOT
HETATM    1  O3  UNK     1      18.599  10.897   8.390  1.00  0.00    -0.267 OA
HETATM    2  N2  UNK     1      17.050  10.875  10.151  1.00  0.00    -0.323 N 
HETATM    3  C11 UNK     1      18.133  11.383   9.417  1.00  0.00     0.257 C 
HETATM    4  H13 UNK     1      16.784  11.392  10.987  1.00  0.00     0.169 HD
ENDROOT
BRANCH   2   5
HETATM    5  C10 UNK     1      16.280   9.744   9.880  1.00  0.00     0.035 A 
HETATM    6  C8  UNK     1      15.160   9.844   9.054  1.00  0.00     0.031 A 
HETATM    7  C6  UNK     1      14.391   8.713   8.782  1.00  0.00     0.027 A 
HETATM    8  C5  UNK     1      14.752   7.499   9.341  1.00  0.00     0.079 A 
HETATM    9  C7  UNK     1      15.859   7.382  10.163  1.00  0.00     0.027 A 
HETATM   10  C9  UNK     1      16.629   8.514  10.435  1.00  0.00     0.031 A 
BRANCH   8  11
HETATM   11  S1  UNK     1      13.777   6.066   8.996  1.00  0.00     0.260 S 
HETATM   12  O1  UNK     1      14.550   5.218   8.106  1.00  0.00    -0.200 OA
HETATM   13  O2  UNK     1      13.291   5.551  10.263  1.00  0.00    -0.200 OA
BRANCH  11  14
HETATM   14  N1  UNK     1      12.490   6.767   8.137  1.00  0.00    -0.307 N 
HETATM   15  C1  UNK     1      12.364   6.457   6.682  1.00  0.00     0.135 C 
HETATM   16  C3  UNK     1      10.899   6.088   6.481  1.00  0.00     0.022 C 
HETATM   17  C4  UNK     1      10.190   6.868   7.571  1.00  0.00     0.022 C 
HETATM   18  C2  UNK     1      11.135   6.712   8.752  1.00  0.00     0.135 C 
ENDBRANCH  11  14
ENDBRANCH   8  11
ENDBRANCH   2   5
BRANCH   3  19
HETATM   19  C12 UNK     1      18.733  12.637  10.010  1.00  0.00     0.043 C 
HETATM   20  C14 UNK     1      18.224  13.803   9.559  1.00  0.00     0.029 C 
BRANCH  19  21
HETATM   21  C13 UNK     1      19.786  12.577  11.043  1.00  0.00    -0.021 A 
HETATM   22  C16 UNK     1      19.479  12.940  12.343  1.00  0.00     0.012 A 
HETATM   23  C20 UNK     1      20.473  12.883  13.319  1.00  0.00     0.001 A 
HETATM   24  C22 UNK     1      21.760  12.465  12.981  1.00  0.00     0.000 A 
HETATM   25  C21 UNK     1      22.052  12.102  11.666  1.00  0.00     0.001 A 
HETATM   26  C17 UNK     1      21.057  12.159  10.689  1.00  0.00     0.012 A 
ENDBRANCH  19  21
BRANCH  20  27
HETATM   27  C15 UNK     1      17.177  13.952   8.537  1.00  0.00    -0.035 A 
HETATM   28  C18 UNK     1      15.844  13.871   8.910  1.00  0.00     0.011 A 
HETATM   29  C23 UNK     1      14.851  14.012   7.942  1.00  0.00     0.001 A 
HETATM   30  C25 UNK     1      15.202  14.235   6.610  1.00  0.00     0.000 A 
HETATM   31  C24 UNK     1      16.547  14.315   6.248  1.00  0.00     0.001 A 
HETATM   32  C19 UNK     1      17.541  14.172   7.217  1.00  0.00     0.011 A 
ENDBRANCH  20  27
ENDBRANCH   3  19
TORSDOF 6
ENDMDL
MODEL 10
REMARK VINA RESULT:      -8.8     10.161     11.963
REMARK  6 active torsions:
REMARK  status: ('A' for Active; 'I' for Inactive)
REMARK    1  A    between atoms: C5_11  and  S1_1 
REMARK    2  A    between atoms: N1_5  and  S1_1 
REMARK    3  A    between atoms: C10_16  and  N2_6 
REMARK       I    between atoms: C11_17  and  N2_6 
REMARK    4  A    between atoms: C11_17  and  C12_18 
REMARK    5  A    between atoms: C12_18  and  C13_19 
REMARK    6  A    between atoms: C14_20  and  C15_21 
ROOT
HETATM    1  O3  UNK     1      31.141  -5.515  33.086  1.00  0.00    -0.267 OA
HETATM    2  N2  UNK     1      30.610  -7.644  33.913  1.00  0.00    -0.323 N 
HETATM    3  C11 UNK     1      31.204  -6.740  33.020  1.00  0.00     0.257 C 
HETATM    4  H13 UNK     1      30.751  -8.634  33.720  1.00  0.00     0.169 HD
ENDROOT
BRANCH   2   5
HETATM    5  C10 UNK     1      29.846  -7.362  35.046  1.00  0.00     0.035 A 
HETATM    6  C8  UNK     1      28.471  -7.160  34.926  1.00  0.00     0.031 A 
HETATM    7  C6  UNK     1      27.706  -6.879  36.058  1.00  0.00     0.027 A 
HETATM    8  C5  UNK     1      28.328  -6.803  37.292  1.00  0.00     0.079 A 
HETATM    9  C7  UNK     1      29.692  -7.000  37.429  1.00  0.00     0.027 A 
HETATM   10  C9  UNK     1      30.457  -7.282  36.296  1.00  0.00     0.031 A 
BRANCH   8  11
HETATM   11  S1  UNK     1      27.359  -6.447  38.726  1.00  0.00     0.260 S 
HETATM   12  O1  UNK     1      28.265  -5.965  39.755  1.00  0.00    -0.200 OA
HETATM   13  O2  UNK     1      26.231  -5.638  38.304  1.00  0.00    -0.200 OA
BRANCH  11  14
HETATM   14  N1  UNK     1      26.819  -8.006  39.130  1.00  0.00    -0.307 N 
HETATM   15  C1  UNK     1      26.083  -8.787  38.092  1.00  0.00     0.135 C 
HETATM   16  C3  UNK     1      26.732 -10.164  38.097  1.00  0.00     0.022 C 
HETATM   17  C4  UNK     1      27.237 -10.307  39.519  1.00  0.00     0.022 C 
HETATM   18  C2  UNK     1      27.777  -8.917  39.815  1.00  0.00     0.135 C 
ENDBRANCH  11  14
ENDBRANCH   8  11
ENDBRANCH   2   5
BRANCH   3  19
HETATM   19  C12 UNK     1      31.966  -7.407  31.897  1.00  0.00     0.043 C 
HETATM   20  C14 UNK     1      31.236  -7.752  30.815  1.00  0.00     0.029 C 
BRANCH  19  21
HETATM   21  C13 UNK     1      33.423  -7.629  31.976  1.00  0.00    -0.021 A 
HETATM   22  C16 UNK     1      34.055  -8.335  30.968  1.00  0.00     0.012 A 
HETATM   23  C20 UNK     1      35.431  -8.545  31.042  1.00  0.00     0.001 A 
HETATM   24  C22 UNK     1      36.155  -8.047  32.125  1.00  0.00     0.000 A 
HETATM   25  C21 UNK     1      35.503  -7.337  33.133  1.00  0.00     0.001 A 
HETATM   26  C17 UNK     1      34.125  -7.127  33.058  1.00  0.00     0.012 A 
ENDBRANCH  19  21
BRANCH  20  27
HETATM   27  C15 UNK     1      29.786  -7.566  30.654  1.00  0.00    -0.035 A 
HETATM   28  C18 UNK     1      28.934  -8.641  30.857  1.00  0.00     0.011 A 
HETATM   29  C23 UNK     1      27.560  -8.465  30.705  1.00  0.00     0.001 A 
HETATM   30  C25 UNK     1      27.051  -7.215  30.352  1.00  0.00     0.000 A 
HETATM   31  C24 UNK     1      27.918  -6.141  30.152  1.00  0.00     0.001 A 
HETATM   32  C19 UNK     1      29.294  -6.317  30.303  1.00  0.00     0.011 A 
ENDBRANCH  20  27
ENDBRANCH   3  19
TORSDOF 6
ENDMDL
