MODEL 1
REMARK VINA RESULT:      -8.8      0.000      0.000
REMARK  4 active torsions:
REMARK  status: ('A' for Active; 'I' for Inactive)
REMARK    1  A    between atoms: C1_11  and  N1_7 
REMARK    2  A    between atoms: C13_23  and  N4_10 
REMARK    3  A    between atoms: C1_11  and  C4_14 
REMARK    4  A    between atoms: C2_12  and  C4_14 
ROOT
HETATM    1  O2  UNK     1      16.829   2.930  30.888  1.00  0.00    -0.290 OA
HETATM    2  C4  UNK     1      18.050   2.865  30.733  1.00  0.00     0.185 C 
ENDROOT
BRANCH   2   3
HETATM    3  C1  UNK     1      18.979   4.044  30.931  1.00  0.00     0.237 C 
BRANCH   3   4
HETATM    4  N1  UNK     1      18.376   5.117  31.720  1.00  0.00    -0.235 N 
HETATM    5  C10 UNK     1      18.133   5.134  33.045  1.00  0.00     0.198 A 
HETATM    6 Br1  UNK     1      18.508   3.755  34.292  1.00  0.00    -0.007 Br
HETATM    7  N3  UNK     1      17.580   6.281  33.364  1.00  0.00    -0.180 NA
HETATM    8  C13 UNK     1      17.518   6.920  32.160  1.00  0.00     0.313 A 
HETATM    9  N2  UNK     1      17.996   6.241  31.116  1.00  0.00    -0.125 NA
BRANCH   8  10
HETATM   10  N4  UNK     1      16.994   8.204  31.985  1.00  0.00    -0.074 N 
HETATM   11  O4  UNK     1      17.253   9.107  32.833  1.00  0.00    -0.529 OA
HETATM   12  O5  UNK     1      16.266   8.452  30.979  1.00  0.00    -0.529 OA
ENDBRANCH   8  10
ENDBRANCH   3   4
ENDBRANCH   2   3
BRANCH   2  13
HETATM   13  C2  UNK     1      18.673   1.599  30.331  1.00  0.00     0.088 A 
HETATM   14  C5  UNK     1      19.123   0.821  31.323  1.00  0.00     0.035 A 
HETATM   15  C3  UNK     1      19.757  -0.455  31.026  1.00  0.00    -0.001 A 
HETATM   16  C8  UNK     1      20.240  -1.298  32.029  1.00  0.00     0.014 A 
HETATM   17  C6  UNK     1      19.887  -0.847  29.698  1.00  0.00     0.089 A 
HETATM   18  C11 UNK     1      20.843  -2.513  31.690  1.00  0.00     0.001 A 
HETATM   19  C12 UNK     1      20.964  -2.891  30.352  1.00  0.00     0.003 A 
HETATM   20  C9  UNK     1      20.485  -2.055  29.345  1.00  0.00     0.038 A 
HETATM   21  O1  UNK     1      19.411  -0.025  28.657  1.00  0.00    -0.274 OA
HETATM   22  C7  UNK     1      18.801   1.200  28.912  1.00  0.00     0.302 A 
HETATM   23  O3  UNK     1      18.392   1.911  28.000  1.00  0.00    -0.259 OA
ENDBRANCH   2  13
TORSDOF 4
ENDMDL
MODEL 2
REMARK VINA RESULT:      -8.6      3.463      4.352
REMARK  4 active torsions:
REMARK  status: ('A' for Active; 'I' for Inactive)
REMARK    1  A    between atoms: C1_11  and  N1_7 
REMARK    2  A    between atoms: C13_23  and  N4_10 
REMARK    3  A    between atoms: C1_11  and  C4_14 
REMARK    4  A    between atoms: C2_12  and  C4_14 
ROOT
HETATM    1  O2  UNK     1      17.694   2.755  31.533  1.00  0.00    -0.290 OA
HETATM    2  C4  UNK     1      18.050   2.927  32.700  1.00  0.00     0.185 C 
ENDROOT
BRANCH   2   3
HETATM    3  C1  UNK     1      18.377   4.288  33.279  1.00  0.00     0.237 C 
BRANCH   3   4
HETATM    4  N1  UNK     1      17.900   5.390  32.447  1.00  0.00    -0.235 N 
HETATM    5  C10 UNK     1      18.567   6.041  31.473  1.00  0.00     0.198 A 
HETATM    6 Br1  UNK     1      20.341   5.711  30.889  1.00  0.00    -0.007 Br
HETATM    7  N3  UNK     1      17.788   6.969  30.968  1.00  0.00    -0.180 NA
HETATM    8  C13 UNK     1      16.644   6.819  31.697  1.00  0.00     0.313 A 
HETATM    9  N2  UNK     1      16.666   5.859  32.623  1.00  0.00    -0.125 NA
BRANCH   8  10
HETATM   10  N4  UNK     1      15.499   7.600  31.520  1.00  0.00    -0.074 N 
HETATM   11  O4  UNK     1      14.361   7.048  31.502  1.00  0.00    -0.529 OA
HETATM   12  O5  UNK     1      15.611   8.853  31.380  1.00  0.00    -0.529 OA
ENDBRANCH   8  10
ENDBRANCH   3   4
ENDBRANCH   2   3
BRANCH   2  13
HETATM   13  C2  UNK     1      18.178   1.780  33.606  1.00  0.00     0.088 A 
HETATM   14  C5  UNK     1      17.870   2.004  34.890  1.00  0.00     0.035 A 
HETATM   15  C3  UNK     1      17.966   0.929  35.866  1.00  0.00    -0.001 A 
HETATM   16  C8  UNK     1      17.655   1.118  37.215  1.00  0.00     0.014 A 
HETATM   17  C6  UNK     1      18.381  -0.328  35.442  1.00  0.00     0.089 A 
HETATM   18  C11 UNK     1      17.765   0.053  38.112  1.00  0.00     0.001 A 
HETATM   19  C12 UNK     1      18.183  -1.204  37.669  1.00  0.00     0.003 A 
HETATM   20  C9  UNK     1      18.495  -1.400  36.325  1.00  0.00     0.038 A 
HETATM   21  O1  UNK     1      18.703  -0.559  34.090  1.00  0.00    -0.274 OA
HETATM   22  C7  UNK     1      18.621   0.450  33.134  1.00  0.00     0.302 A 
HETATM   23  O3  UNK     1      18.905   0.241  31.959  1.00  0.00    -0.259 OA
ENDBRANCH   2  13
TORSDOF 4
ENDMDL
MODEL 3
REMARK VINA RESULT:      -8.5     14.441     16.860
REMARK  4 active torsions:
REMARK  status: ('A' for Active; 'I' for Inactive)
REMARK    1  A    between atoms: C1_11  and  N1_7 
REMARK    2  A    between atoms: C13_23  and  N4_10 
REMARK    3  A    between atoms: C1_11  and  C4_14 
REMARK    4  A    between atoms: C2_12  and  C4_14 
ROOT
HETATM    1  O2  UNK     1      18.061  -3.280  15.709  1.00  0.00    -0.290 OA
HETATM    2  C4  UNK     1      19.006  -2.521  15.483  1.00  0.00     0.185 C 
ENDROOT
BRANCH   2   3
HETATM    3  C1  UNK     1      20.163  -2.879  14.573  1.00  0.00     0.237 C 
BRANCH   3   4
HETATM    4  N1  UNK     1      21.154  -3.735  15.223  1.00  0.00    -0.235 N 
HETATM    5  C10 UNK     1      21.172  -5.081  15.282  1.00  0.00     0.198 A 
HETATM    6 Br1  UNK     1      19.904  -6.274  14.531  1.00  0.00    -0.007 Br
HETATM    7  N3  UNK     1      22.229  -5.465  15.959  1.00  0.00    -0.180 NA
HETATM    8  C13 UNK     1      22.816  -4.276  16.283  1.00  0.00     0.313 A 
HETATM    9  N2  UNK     1      22.188  -3.181  15.852  1.00  0.00    -0.125 NA
BRANCH   8  10
HETATM   10  N4  UNK     1      23.999  -4.165  17.019  1.00  0.00    -0.074 N 
HETATM   11  O4  UNK     1      25.019  -4.826  16.668  1.00  0.00    -0.529 OA
HETATM   12  O5  UNK     1      24.039  -3.405  18.031  1.00  0.00    -0.529 OA
ENDBRANCH   8  10
ENDBRANCH   3   4
ENDBRANCH   2   3
BRANCH   2  13
HETATM   13  C2  UNK     1      19.051  -1.196  16.111  1.00  0.00     0.088 A 
HETATM   14  C5  UNK     1      18.888  -1.165  17.439  1.00  0.00     0.035 A 
HETATM   15  C3  UNK     1      18.917   0.102  18.153  1.00  0.00    -0.001 A 
HETATM   16  C8  UNK     1      18.750   0.181  19.538  1.00  0.00     0.014 A 
HETATM   17  C6  UNK     1      19.116   1.275  17.433  1.00  0.00     0.089 A 
HETATM   18  C11 UNK     1      18.785   1.424  20.177  1.00  0.00     0.001 A 
HETATM   19  C12 UNK     1      18.987   2.591  19.438  1.00  0.00     0.003 A 
HETATM   20  C9  UNK     1      19.153   2.521  18.056  1.00  0.00     0.038 A 
HETATM   21  O1  UNK     1      19.288   1.237  16.035  1.00  0.00    -0.274 OA
HETATM   22  C7  UNK     1      19.265   0.040  15.326  1.00  0.00     0.302 A 
HETATM   23  O3  UNK     1      19.414   0.017  14.108  1.00  0.00    -0.259 OA
ENDBRANCH   2  13
TORSDOF 4
ENDMDL
MODEL 4
REMARK VINA RESULT:      -8.5      9.021     12.001
REMARK  4 active torsions:
REMARK  status: ('A' for Active; 'I' for Inactive)
REMARK    1  A    between atoms: C1_11  and  N1_7 
REMARK    2  A    between atoms: C13_23  and  N4_10 
REMARK    3  A    between atoms: C1_11  and  C4_14 
REMARK    4  A    between atoms: C2_12  and  C4_14 
ROOT
HETATM    1  O2  UNK     1      21.523  -4.654  37.154  1.00  0.00    -0.290 OA
HETATM    2  C4  UNK     1      20.466  -4.576  36.526  1.00  0.00     0.185 C 
ENDROOT
BRANCH   2   3
HETATM    3  C1  UNK     1      19.671  -5.784  36.078  1.00  0.00     0.237 C 
BRANCH   3   4
HETATM    4  N1  UNK     1      20.352  -7.048  36.355  1.00  0.00    -0.235 N 
HETATM    5  C10 UNK     1      20.501  -7.664  37.545  1.00  0.00     0.198 A 
HETATM    6 Br1  UNK     1      19.860  -7.067  39.227  1.00  0.00    -0.007 Br
HETATM    7  N3  UNK     1      21.176  -8.776  37.369  1.00  0.00    -0.180 NA
HETATM    8  C13 UNK     1      21.406  -8.768  36.023  1.00  0.00     0.313 A 
HETATM    9  N2  UNK     1      20.918  -7.721  35.356  1.00  0.00    -0.125 NA
BRANCH   8  10
HETATM   10  N4  UNK     1      22.105  -9.771  35.346  1.00  0.00    -0.074 N 
HETATM   11  O4  UNK     1      21.723 -10.133  34.196  1.00  0.00    -0.529 OA
HETATM   12  O5  UNK     1      23.114 -10.308  35.890  1.00  0.00    -0.529 OA
ENDBRANCH   8  10
ENDBRANCH   3   4
ENDBRANCH   2   3
BRANCH   2  13
HETATM   13  C2  UNK     1      19.917  -3.262  36.171  1.00  0.00     0.088 A 
HETATM   14  C5  UNK     1      19.201  -2.645  37.119  1.00  0.00     0.035 A 
HETATM   15  C3  UNK     1      18.616  -1.338  36.863  1.00  0.00    -0.001 A 
HETATM   16  C8  UNK     1      17.861  -0.658  37.822  1.00  0.00     0.014 A 
HETATM   17  C6  UNK     1      18.812  -0.745  35.620  1.00  0.00     0.089 A 
HETATM   18  C11 UNK     1      17.319   0.595  37.526  1.00  0.00     0.001 A 
HETATM   19  C12 UNK     1      17.527   1.175  36.273  1.00  0.00     0.003 A 
HETATM   20  C9  UNK     1      18.278   0.504  35.310  1.00  0.00     0.038 A 
HETATM   21  O1  UNK     1      19.567  -1.399  34.626  1.00  0.00    -0.274 OA
HETATM   22  C7  UNK     1      20.139  -2.649  34.843  1.00  0.00     0.302 A 
HETATM   23  O3  UNK     1      20.793  -3.211  33.971  1.00  0.00    -0.259 OA
ENDBRANCH   2  13
TORSDOF 4
ENDMDL
MODEL 5
REMARK VINA RESULT:      -8.3      4.764      7.630
REMARK  4 active torsions:
REMARK  status: ('A' for Active; 'I' for Inactive)
REMARK    1  A    between atoms: C1_11  and  N1_7 
REMARK    2  A    between atoms: C13_23  and  N4_10 
REMARK    3  A    between atoms: C1_11  and  C4_14 
REMARK    4  A    between atoms: C2_12  and  C4_14 
ROOT
HETATM    1  O2  UNK     1      16.719   0.814  34.159  1.00  0.00    -0.290 OA
HETATM    2  C4  UNK     1      17.810   1.385  34.125  1.00  0.00     0.185 C 
ENDROOT
BRANCH   2   3
HETATM    3  C1  UNK     1      18.846   1.269  35.224  1.00  0.00     0.237 C 
BRANCH   3   4
HETATM    4  N1  UNK     1      19.001  -0.098  35.718  1.00  0.00    -0.235 N 
HETATM    5  C10 UNK     1      18.523  -0.624  36.863  1.00  0.00     0.198 A 
HETATM    6 Br1  UNK     1      17.496   0.267  38.186  1.00  0.00    -0.007 Br
HETATM    7  N3  UNK     1      18.883  -1.884  36.938  1.00  0.00    -0.180 NA
HETATM    8  C13 UNK     1      19.588  -2.056  35.782  1.00  0.00     0.313 A 
HETATM    9  N2  UNK     1      19.689  -0.982  34.997  1.00  0.00    -0.125 NA
BRANCH   8  10
HETATM   10  N4  UNK     1      20.183  -3.262  35.404  1.00  0.00    -0.074 N 
HETATM   11  O4  UNK     1      20.503  -3.451  34.195  1.00  0.00    -0.529 OA
HETATM   12  O5  UNK     1      20.397  -4.155  36.275  1.00  0.00    -0.529 OA
ENDBRANCH   8  10
ENDBRANCH   3   4
ENDBRANCH   2   3
BRANCH   2  13
HETATM   13  C2  UNK     1      18.162   2.232  32.980  1.00  0.00     0.088 A 
HETATM   14  C5  UNK     1      18.031   3.552  33.159  1.00  0.00     0.035 A 
HETATM   15  C3  UNK     1      18.355   4.475  32.082  1.00  0.00    -0.001 A 
HETATM   16  C8  UNK     1      18.233   5.860  32.225  1.00  0.00     0.014 A 
HETATM   17  C6  UNK     1      18.801   3.962  30.869  1.00  0.00     0.089 A 
HETATM   18  C11 UNK     1      18.556   6.703  31.159  1.00  0.00     0.001 A 
HETATM   19  C12 UNK     1      19.003   6.171  29.948  1.00  0.00     0.003 A 
HETATM   20  C9  UNK     1      19.127   4.791  29.797  1.00  0.00     0.038 A 
HETATM   21  O1  UNK     1      18.938   2.572  30.685  1.00  0.00    -0.274 OA
HETATM   22  C7  UNK     1      18.635   1.665  31.697  1.00  0.00     0.302 A 
HETATM   23  O3  UNK     1      18.755   0.457  31.529  1.00  0.00    -0.259 OA
ENDBRANCH   2  13
TORSDOF 4
ENDMDL
MODEL 6
REMARK VINA RESULT:      -8.2      2.128      2.935
REMARK  4 active torsions:
REMARK  status: ('A' for Active; 'I' for Inactive)
REMARK    1  A    between atoms: C1_11  and  N1_7 
REMARK    2  A    between atoms: C13_23  and  N4_10 
REMARK    3  A    between atoms: C1_11  and  C4_14 
REMARK    4  A    between atoms: C2_12  and  C4_14 
ROOT
HETATM    1  O2  UNK     1      17.239   4.457  31.584  1.00  0.00    -0.290 OA
HETATM    2  C4  UNK     1      17.941   3.882  32.418  1.00  0.00     0.185 C 
ENDROOT
BRANCH   2   3
HETATM    3  C1  UNK     1      18.382   4.520  33.718  1.00  0.00     0.237 C 
BRANCH   3   4
HETATM    4  N1  UNK     1      18.368   5.981  33.668  1.00  0.00    -0.235 N 
HETATM    5  C10 UNK     1      19.346   6.804  33.241  1.00  0.00     0.198 A 
HETATM    6 Br1  UNK     1      21.047   6.302  32.570  1.00  0.00    -0.007 Br
HETATM    7  N3  UNK     1      18.942   8.047  33.359  1.00  0.00    -0.180 NA
HETATM    8  C13 UNK     1      17.686   7.898  33.874  1.00  0.00     0.313 A 
HETATM    9  N2  UNK     1      17.289   6.642  34.083  1.00  0.00    -0.125 NA
BRANCH   8  10
HETATM   10  N4  UNK     1      16.837   8.965  34.178  1.00  0.00    -0.074 N 
HETATM   11  O4  UNK     1      16.183   8.956  35.261  1.00  0.00    -0.529 OA
HETATM   12  O5  UNK     1      16.730   9.932  33.367  1.00  0.00    -0.529 OA
ENDBRANCH   8  10
ENDBRANCH   3   4
ENDBRANCH   2   3
BRANCH   2  13
HETATM   13  C2  UNK     1      18.395   2.508  32.174  1.00  0.00     0.088 A 
HETATM   14  C5  UNK     1      18.872   2.251  30.950  1.00  0.00     0.035 A 
HETATM   15  C3  UNK     1      19.348   0.918  30.613  1.00  0.00    -0.001 A 
HETATM   16  C8  UNK     1      19.853   0.606  29.348  1.00  0.00     0.014 A 
HETATM   17  C6  UNK     1      19.297  -0.079  31.581  1.00  0.00     0.089 A 
HETATM   18  C11 UNK     1      20.296  -0.691  29.074  1.00  0.00     0.001 A 
HETATM   19  C12 UNK     1      20.238  -1.679  30.058  1.00  0.00     0.003 A 
HETATM   20  C9  UNK     1      19.735  -1.376  31.322  1.00  0.00     0.038 A 
HETATM   21  O1  UNK     1      18.795   0.197  32.868  1.00  0.00    -0.274 OA
HETATM   22  C7  UNK     1      18.333   1.462  33.219  1.00  0.00     0.302 A 
HETATM   23  O3  UNK     1      17.896   1.693  34.342  1.00  0.00    -0.259 OA
ENDBRANCH   2  13
TORSDOF 4
ENDMDL
MODEL 7
REMARK VINA RESULT:      -8.2      3.225      8.393
REMARK  4 active torsions:
REMARK  status: ('A' for Active; 'I' for Inactive)
REMARK    1  A    between atoms: C1_11  and  N1_7 
REMARK    2  A    between atoms: C13_23  and  N4_10 
REMARK    3  A    between atoms: C1_11  and  C4_14 
REMARK    4  A    between atoms: C2_12  and  C4_14 
ROOT
HETATM    1  O2  UNK     1      19.580   6.750  32.386  1.00  0.00    -0.290 OA
HETATM    2  C4  UNK     1      18.493   6.505  32.914  1.00  0.00     0.185 C 
ENDROOT
BRANCH   2   3
HETATM    3  C1  UNK     1      18.201   5.221  33.661  1.00  0.00     0.237 C 
BRANCH   3   4
HETATM    4  N1  UNK     1      18.166   4.050  32.787  1.00  0.00    -0.235 N 
HETATM    5  C10 UNK     1      18.191   2.750  33.143  1.00  0.00     0.198 A 
HETATM    6 Br1  UNK     1      18.279   2.052  34.905  1.00  0.00    -0.007 Br
HETATM    7  N3  UNK     1      18.145   2.009  32.061  1.00  0.00    -0.180 NA
HETATM    8  C13 UNK     1      18.092   2.944  31.068  1.00  0.00     0.313 A 
HETATM    9  N2  UNK     1      18.104   4.217  31.468  1.00  0.00    -0.125 NA
BRANCH   8  10
HETATM   10  N4  UNK     1      18.029   2.633  29.708  1.00  0.00    -0.074 N 
HETATM   11  O4  UNK     1      18.510   3.438  28.858  1.00  0.00    -0.529 OA
HETATM   12  O5  UNK     1      17.492   1.549  29.337  1.00  0.00    -0.529 OA
ENDBRANCH   8  10
ENDBRANCH   3   4
ENDBRANCH   2   3
BRANCH   2  13
HETATM   13  C2  UNK     1      17.400   7.481  32.834  1.00  0.00     0.088 A 
HETATM   14  C5  UNK     1      17.004   8.021  33.993  1.00  0.00     0.035 A 
HETATM   15  C3  UNK     1      15.927   8.999  34.017  1.00  0.00    -0.001 A 
HETATM   16  C8  UNK     1      15.481   9.588  35.203  1.00  0.00     0.014 A 
HETATM   17  C6  UNK     1      15.319   9.359  32.819  1.00  0.00     0.089 A 
HETATM   18  C11 UNK     1      14.442  10.521  35.172  1.00  0.00     0.001 A 
HETATM   19  C12 UNK     1      13.843  10.871  33.960  1.00  0.00     0.003 A 
HETATM   20  C9  UNK     1      14.281  10.288  32.773  1.00  0.00     0.038 A 
HETATM   21  O1  UNK     1      15.740   8.788  31.602  1.00  0.00    -0.274 OA
HETATM   22  C7  UNK     1      16.768   7.850  31.548  1.00  0.00     0.302 A 
HETATM   23  O3  UNK     1      17.127   7.357  30.484  1.00  0.00    -0.259 OA
ENDBRANCH   2  13
TORSDOF 4
ENDMDL
MODEL 8
REMARK VINA RESULT:      -8.1     13.769     16.337
REMARK  4 active torsions:
REMARK  status: ('A' for Active; 'I' for Inactive)
REMARK    1  A    between atoms: C1_11  and  N1_7 
REMARK    2  A    between atoms: C13_23  and  N4_10 
REMARK    3  A    between atoms: C1_11  and  C4_14 
REMARK    4  A    between atoms: C2_12  and  C4_14 
ROOT
HETATM    1  O2  UNK     1      19.400  -0.366  14.336  1.00  0.00    -0.290 OA
HETATM    2  C4  UNK     1      19.037  -0.744  15.451  1.00  0.00     0.185 C 
ENDROOT
BRANCH   2   3
HETATM    3  C1  UNK     1      18.477  -2.125  15.722  1.00  0.00     0.237 C 
BRANCH   3   4
HETATM    4  N1  UNK     1      19.490  -3.175  15.647  1.00  0.00    -0.235 N 
HETATM    5  C10 UNK     1      19.336  -4.446  15.227  1.00  0.00     0.198 A 
HETATM    6 Br1  UNK     1      17.739  -5.254  14.599  1.00  0.00    -0.007 Br
HETATM    7  N3  UNK     1      20.487  -5.070  15.316  1.00  0.00    -0.180 NA
HETATM    8  C13 UNK     1      21.309  -4.096  15.807  1.00  0.00     0.313 A 
HETATM    9  N2  UNK     1      20.738  -2.911  16.029  1.00  0.00    -0.125 NA
BRANCH   8  10
HETATM   10  N4  UNK     1      22.667  -4.285  16.076  1.00  0.00    -0.074 N 
HETATM   11  O4  UNK     1      23.493  -3.366  15.806  1.00  0.00    -0.529 OA
HETATM   12  O5  UNK     1      23.058  -5.375  16.589  1.00  0.00    -0.529 OA
ENDBRANCH   8  10
ENDBRANCH   3   4
ENDBRANCH   2   3
BRANCH   2  13
HETATM   13  C2  UNK     1      19.134   0.161  16.602  1.00  0.00     0.088 A 
HETATM   14  C5  UNK     1      19.175  -0.418  17.808  1.00  0.00     0.035 A 
HETATM   15  C3  UNK     1      19.270   0.395  19.011  1.00  0.00    -0.001 A 
HETATM   16  C8  UNK     1      19.315  -0.167  20.289  1.00  0.00     0.014 A 
HETATM   17  C6  UNK     1      19.318   1.779  18.884  1.00  0.00     0.089 A 
HETATM   18  C11 UNK     1      19.406   0.659  21.413  1.00  0.00     0.001 A 
HETATM   19  C12 UNK     1      19.454   2.047  21.266  1.00  0.00     0.003 A 
HETATM   20  C9  UNK     1      19.409   2.615  19.995  1.00  0.00     0.038 A 
HETATM   21  O1  UNK     1      19.276   2.384  17.612  1.00  0.00    -0.274 OA
HETATM   22  C7  UNK     1      19.184   1.632  16.445  1.00  0.00     0.302 A 
HETATM   23  O3  UNK     1      19.146   2.167  15.342  1.00  0.00    -0.259 OA
ENDBRANCH   2  13
TORSDOF 4
ENDMDL
MODEL 9
REMARK VINA RESULT:      -8.1      5.011      6.783
REMARK  4 active torsions:
REMARK  status: ('A' for Active; 'I' for Inactive)
REMARK    1  A    between atoms: C1_11  and  N1_7 
REMARK    2  A    between atoms: C13_23  and  N4_10 
REMARK    3  A    between atoms: C1_11  and  C4_14 
REMARK    4  A    between atoms: C2_12  and  C4_14 
ROOT
HETATM    1  O2  UNK     1      18.454   2.475  34.883  1.00  0.00    -0.290 OA
HETATM    2  C4  UNK     1      18.063   1.463  34.298  1.00  0.00     0.185 C 
ENDROOT
BRANCH   2   3
HETATM    3  C1  UNK     1      17.175   0.419  34.943  1.00  0.00     0.237 C 
BRANCH   3   4
HETATM    4  N1  UNK     1      17.899  -0.451  35.867  1.00  0.00    -0.235 N 
HETATM    5  C10 UNK     1      18.112  -0.264  37.185  1.00  0.00     0.198 A 
HETATM    6 Br1  UNK     1      17.527   1.201  38.239  1.00  0.00    -0.007 Br
HETATM    7  N3  UNK     1      18.808  -1.273  37.654  1.00  0.00    -0.180 NA
HETATM    8  C13 UNK     1      18.983  -2.048  36.543  1.00  0.00     0.313 A 
HETATM    9  N2  UNK     1      18.441  -1.581  35.418  1.00  0.00    -0.125 NA
BRANCH   8  10
HETATM   10  N4  UNK     1      19.679  -3.259  36.540  1.00  0.00    -0.074 N 
HETATM   11  O4  UNK     1      19.047  -4.345  36.686  1.00  0.00    -0.529 OA
HETATM   12  O5  UNK     1      20.936  -3.259  36.391  1.00  0.00    -0.529 OA
ENDBRANCH   8  10
ENDBRANCH   3   4
ENDBRANCH   2   3
BRANCH   2  13
HETATM   13  C2  UNK     1      18.456   1.220  32.906  1.00  0.00     0.088 A 
HETATM   14  C5  UNK     1      19.017   0.032  32.650  1.00  0.00     0.035 A 
HETATM   15  C3  UNK     1      19.442  -0.303  31.299  1.00  0.00    -0.001 A 
HETATM   16  C8  UNK     1      20.032  -1.530  30.986  1.00  0.00     0.014 A 
HETATM   17  C6  UNK     1      19.255   0.630  30.285  1.00  0.00     0.089 A 
HETATM   18  C11 UNK     1      20.423  -1.803  29.673  1.00  0.00     0.001 A 
HETATM   19  C12 UNK     1      20.227  -0.855  28.667  1.00  0.00     0.003 A 
HETATM   20  C9  UNK     1      19.639   0.372  28.970  1.00  0.00     0.038 A 
HETATM   21  O1  UNK     1      18.663   1.878  30.559  1.00  0.00    -0.274 OA
HETATM   22  C7  UNK     1      18.247   2.227  31.841  1.00  0.00     0.302 A 
HETATM   23  O3  UNK     1      17.735   3.317  32.072  1.00  0.00    -0.259 OA
ENDBRANCH   2  13
TORSDOF 4
ENDMDL
MODEL 10
REMARK VINA RESULT:      -8.1      9.239     11.932
REMARK  4 active torsions:
REMARK  status: ('A' for Active; 'I' for Inactive)
REMARK    1  A    between atoms: C1_11  and  N1_7 
REMARK    2  A    between atoms: C13_23  and  N4_10 
REMARK    3  A    between atoms: C1_11  and  C4_14 
REMARK    4  A    between atoms: C2_12  and  C4_14 
ROOT
HETATM    1  O2  UNK     1      21.297  -4.383  37.151  1.00  0.00    -0.290 OA
HETATM    2  C4  UNK     1      20.139  -4.211  36.767  1.00  0.00     0.185 C 
ENDROOT
BRANCH   2   3
HETATM    3  C1  UNK     1      19.111  -5.322  36.694  1.00  0.00     0.237 C 
BRANCH   3   4
HETATM    4  N1  UNK     1      19.684  -6.644  36.940  1.00  0.00    -0.235 N 
HETATM    5  C10 UNK     1      20.245  -7.483  36.046  1.00  0.00     0.198 A 
HETATM    6 Br1  UNK     1      20.458  -7.189  34.184  1.00  0.00    -0.007 Br
HETATM    7  N3  UNK     1      20.636  -8.571  36.667  1.00  0.00    -0.180 NA
HETATM    8  C13 UNK     1      20.274  -8.316  37.959  1.00  0.00     0.313 A 
HETATM    9  N2  UNK     1      19.682  -7.140  38.175  1.00  0.00    -0.125 NA
BRANCH   8  10
HETATM   10  N4  UNK     1      20.489  -9.202  39.017  1.00  0.00    -0.074 N 
HETATM   11  O4  UNK     1      19.647 -10.117  39.250  1.00  0.00    -0.529 OA
HETATM   12  O5  UNK     1      21.526  -9.081  39.734  1.00  0.00    -0.529 OA
ENDBRANCH   8  10
ENDBRANCH   3   4
ENDBRANCH   2   3
BRANCH   2  13
HETATM   13  C2  UNK     1      19.693  -2.878  36.346  1.00  0.00     0.088 A 
HETATM   14  C5  UNK     1      18.982  -2.183  37.242  1.00  0.00     0.035 A 
HETATM   15  C3  UNK     1      18.495  -0.850  36.919  1.00  0.00    -0.001 A 
HETATM   16  C8  UNK     1      17.749  -0.090  37.822  1.00  0.00     0.014 A 
HETATM   17  C6  UNK     1      18.782  -0.316  35.667  1.00  0.00     0.089 A 
HETATM   18  C11 UNK     1      17.304   1.185  37.462  1.00  0.00     0.001 A 
HETATM   19  C12 UNK     1      17.601   1.706  36.202  1.00  0.00     0.003 A 
HETATM   20  C9  UNK     1      18.345   0.954  35.294  1.00  0.00     0.038 A 
HETATM   21  O1  UNK     1      19.532  -1.051  34.728  1.00  0.00    -0.274 OA
HETATM   22  C7  UNK     1      20.010  -2.327  35.010  1.00  0.00     0.302 A 
HETATM   23  O3  UNK     1      20.661  -2.961  34.186  1.00  0.00    -0.259 OA
ENDBRANCH   2  13
TORSDOF 4
ENDMDL
