MODEL 1
REMARK VINA RESULT:      -9.0      0.000      0.000
REMARK  6 active torsions:
REMARK  status: ('A' for Active; 'I' for Inactive)
REMARK    1  A    between atoms: C11_19  and  O2_2 
REMARK    2  A    between atoms: C8_16  and  O2_2 
REMARK    3  A    between atoms: C16_24  and  N1_8 
REMARK    4  A    between atoms: C11_19  and  C3_11 
REMARK    5  A    between atoms: C10_18  and  C5_13 
REMARK    6  A    between atoms: C10_18  and  C8_16 
ROOT
HETATM    1  O2  UNK     1      20.101   0.285  31.046  1.00  0.00    -0.309 OA
ENDROOT
BRANCH   1   2
HETATM    2  C11 UNK     1      19.819  -1.025  31.255  1.00  0.00     0.299 C 
HETATM    3  O5  UNK     1      19.798  -1.927  30.435  1.00  0.00    -0.259 OA
BRANCH   2   4
HETATM    4  C3  UNK     1      19.524  -1.218  32.679  1.00  0.00     0.115 A 
HETATM    5  C4  UNK     1      18.567  -0.437  33.196  1.00  0.00     0.038 A 
HETATM    6  C1  UNK     1      18.205  -0.556  34.601  1.00  0.00    -0.001 A 
HETATM    7  C2  UNK     1      18.867  -1.490  35.390  1.00  0.00     0.089 A 
HETATM    8  C6  UNK     1      17.213   0.238  35.182  1.00  0.00     0.014 A 
HETATM    9  O1  UNK     1      19.872  -2.309  34.840  1.00  0.00    -0.274 OA
HETATM   10  C7  UNK     1      18.567  -1.653  36.742  1.00  0.00     0.038 A 
HETATM   11  C9  UNK     1      20.241  -2.220  33.500  1.00  0.00     0.304 A 
HETATM   12  O3  UNK     1      21.118  -2.937  33.030  1.00  0.00    -0.259 OA
HETATM   13  C13 UNK     1      17.577  -0.857  37.314  1.00  0.00     0.003 A 
HETATM   14  C12 UNK     1      16.902   0.086  36.537  1.00  0.00     0.001 A 
ENDBRANCH   2   4
ENDBRANCH   1   2
BRANCH   1  15
HETATM   15  C8  UNK     1      19.793   0.775  29.736  1.00  0.00     0.263 C 
BRANCH  15  16
HETATM   16  C10 UNK     1      18.547   1.637  29.784  1.00  0.00     0.183 C 
HETATM   17  O4  UNK     1      17.492   1.276  29.268  1.00  0.00    -0.290 OA
BRANCH  16  18
HETATM   18  C5  UNK     1      18.615   2.958  30.475  1.00  0.00     0.012 A 
HETATM   19  C14 UNK     1      18.184   3.044  31.779  1.00  0.00     0.017 A 
HETATM   20  C17 UNK     1      18.247   4.279  32.424  1.00  0.00     0.037 A 
HETATM   21  C16 UNK     1      18.740   5.395  31.747  1.00  0.00     0.102 A 
HETATM   22  C18 UNK     1      19.169   5.276  30.426  1.00  0.00     0.037 A 
HETATM   23  C15 UNK     1      19.107   4.040  29.781  1.00  0.00     0.017 A 
BRANCH  21  24
HETATM   24  N1  UNK     1      18.801   6.653  32.403  1.00  0.00    -0.116 N 
HETATM   25  O6  UNK     1      17.787   7.392  32.398  1.00  0.00    -0.532 OA
HETATM   26  O7  UNK     1      19.867   6.992  32.970  1.00  0.00    -0.532 OA
ENDBRANCH  21  24
ENDBRANCH  16  18
ENDBRANCH  15  16
ENDBRANCH   1  15
TORSDOF 6
ENDMDL
MODEL 2
REMARK VINA RESULT:      -8.9      4.638      9.481
REMARK  6 active torsions:
REMARK  status: ('A' for Active; 'I' for Inactive)
REMARK    1  A    between atoms: C11_19  and  O2_2 
REMARK    2  A    between atoms: C8_16  and  O2_2 
REMARK    3  A    between atoms: C16_24  and  N1_8 
REMARK    4  A    between atoms: C11_19  and  C3_11 
REMARK    5  A    between atoms: C10_18  and  C5_13 
REMARK    6  A    between atoms: C10_18  and  C8_16 
ROOT
HETATM    1  O2  UNK     1      19.055  -0.976  35.841  1.00  0.00    -0.309 OA
ENDROOT
BRANCH   1   2
HETATM    2  C11 UNK     1      17.977  -0.891  35.023  1.00  0.00     0.299 C 
HETATM    3  O5  UNK     1      16.807  -1.102  35.300  1.00  0.00    -0.259 OA
BRANCH   2   4
HETATM    4  C3  UNK     1      18.433  -0.490  33.688  1.00  0.00     0.115 A 
HETATM    5  C4  UNK     1      19.057  -1.432  32.969  1.00  0.00     0.038 A 
HETATM    6  C1  UNK     1      19.546  -1.129  31.633  1.00  0.00    -0.001 A 
HETATM    7  C2  UNK     1      19.355   0.149  31.119  1.00  0.00     0.089 A 
HETATM    8  C6  UNK     1      20.201  -2.081  30.847  1.00  0.00     0.014 A 
HETATM    9  O1  UNK     1      18.698   1.135  31.880  1.00  0.00    -0.274 OA
HETATM   10  C7  UNK     1      19.800   0.503  29.846  1.00  0.00     0.038 A 
HETATM   11  C9  UNK     1      18.219   0.877  33.162  1.00  0.00     0.304 A 
HETATM   12  O3  UNK     1      17.648   1.742  33.817  1.00  0.00    -0.259 OA
HETATM   13  C13 UNK     1      20.452  -0.452  29.070  1.00  0.00     0.003 A 
HETATM   14  C12 UNK     1      20.653  -1.741  29.569  1.00  0.00     0.001 A 
ENDBRANCH   2   4
ENDBRANCH   1   2
BRANCH   1  15
HETATM   15  C8  UNK     1      19.029  -2.061  36.775  1.00  0.00     0.263 C 
BRANCH  15  16
HETATM   16  C10 UNK     1      20.039  -3.117  36.372  1.00  0.00     0.183 C 
HETATM   17  O4  UNK     1      20.964  -2.865  35.604  1.00  0.00    -0.290 OA
BRANCH  16  18
HETATM   18  C5  UNK     1      19.895  -4.495  36.926  1.00  0.00     0.012 A 
HETATM   19  C14 UNK     1      20.812  -4.932  37.856  1.00  0.00     0.017 A 
HETATM   20  C17 UNK     1      20.677  -6.221  38.372  1.00  0.00     0.037 A 
HETATM   21  C16 UNK     1      19.629  -7.038  37.946  1.00  0.00     0.102 A 
HETATM   22  C18 UNK     1      18.716  -6.566  37.003  1.00  0.00     0.037 A 
HETATM   23  C15 UNK     1      18.851  -5.276  36.487  1.00  0.00     0.017 A 
BRANCH  21  24
HETATM   24  N1  UNK     1      19.494  -8.351  38.470  1.00  0.00    -0.116 N 
HETATM   25  O6  UNK     1      20.026  -8.623  39.573  1.00  0.00    -0.532 OA
HETATM   26  O7  UNK     1      18.845  -9.202  37.817  1.00  0.00    -0.532 OA
ENDBRANCH  21  24
ENDBRANCH  16  18
ENDBRANCH  15  16
ENDBRANCH   1  15
TORSDOF 6
ENDMDL
MODEL 3
REMARK VINA RESULT:      -8.9      3.198      7.343
REMARK  6 active torsions:
REMARK  status: ('A' for Active; 'I' for Inactive)
REMARK    1  A    between atoms: C11_19  and  O2_2 
REMARK    2  A    between atoms: C8_16  and  O2_2 
REMARK    3  A    between atoms: C16_24  and  N1_8 
REMARK    4  A    between atoms: C11_19  and  C3_11 
REMARK    5  A    between atoms: C10_18  and  C5_13 
REMARK    6  A    between atoms: C10_18  and  C8_16 
ROOT
HETATM    1  O2  UNK     1      19.558   4.249  30.528  1.00  0.00    -0.309 OA
ENDROOT
BRANCH   1   2
HETATM    2  C11 UNK     1      19.656   5.592  30.369  1.00  0.00     0.299 C 
HETATM    3  O5  UNK     1      20.083   6.204  29.405  1.00  0.00    -0.259 OA
BRANCH   2   4
HETATM    4  C3  UNK     1      19.151   6.245  31.583  1.00  0.00     0.115 A 
HETATM    5  C4  UNK     1      17.847   6.552  31.591  1.00  0.00     0.038 A 
HETATM    6  C1  UNK     1      17.255   7.201  32.750  1.00  0.00    -0.001 A 
HETATM    7  C2  UNK     1      18.062   7.495  33.843  1.00  0.00     0.089 A 
HETATM    8  C6  UNK     1      15.900   7.539  32.801  1.00  0.00     0.014 A 
HETATM    9  O1  UNK     1      19.432   7.169  33.829  1.00  0.00    -0.274 OA
HETATM   10  C7  UNK     1      17.556   8.116  34.984  1.00  0.00     0.038 A 
HETATM   11  C9  UNK     1      20.029   6.547  32.735  1.00  0.00     0.304 A 
HETATM   12  O3  UNK     1      21.223   6.268  32.731  1.00  0.00    -0.259 OA
HETATM   13  C13 UNK     1      16.205   8.450  35.027  1.00  0.00     0.003 A 
HETATM   14  C12 UNK     1      15.378   8.162  33.939  1.00  0.00     0.001 A 
ENDBRANCH   2   4
ENDBRANCH   1   2
BRANCH   1  15
HETATM   15  C8  UNK     1      18.271   3.692  30.240  1.00  0.00     0.263 C 
BRANCH  15  16
HETATM   16  C10 UNK     1      18.421   2.463  29.366  1.00  0.00     0.183 C 
HETATM   17  O4  UNK     1      18.036   2.449  28.199  1.00  0.00    -0.290 OA
BRANCH  16  18
HETATM   18  C5  UNK     1      19.053   1.243  29.947  1.00  0.00     0.012 A 
HETATM   19  C14 UNK     1      18.835   0.955  31.276  1.00  0.00     0.017 A 
HETATM   20  C17 UNK     1      19.427  -0.185  31.818  1.00  0.00     0.037 A 
HETATM   21  C16 UNK     1      20.221  -1.008  31.018  1.00  0.00     0.102 A 
HETATM   22  C18 UNK     1      20.422  -0.690  29.676  1.00  0.00     0.037 A 
HETATM   23  C15 UNK     1      19.829   0.450  29.132  1.00  0.00     0.017 A 
BRANCH  21  24
HETATM   24  N1  UNK     1      20.825  -2.167  31.572  1.00  0.00    -0.116 N 
HETATM   25  O6  UNK     1      21.234  -2.133  32.758  1.00  0.00    -0.532 OA
HETATM   26  O7  UNK     1      20.933  -3.195  30.861  1.00  0.00    -0.532 OA
ENDBRANCH  21  24
ENDBRANCH  16  18
ENDBRANCH  15  16
ENDBRANCH   1  15
TORSDOF 6
ENDMDL
MODEL 4
REMARK VINA RESULT:      -8.9      2.882      4.721
REMARK  6 active torsions:
REMARK  status: ('A' for Active; 'I' for Inactive)
REMARK    1  A    between atoms: C11_19  and  O2_2 
REMARK    2  A    between atoms: C8_16  and  O2_2 
REMARK    3  A    between atoms: C16_24  and  N1_8 
REMARK    4  A    between atoms: C11_19  and  C3_11 
REMARK    5  A    between atoms: C10_18  and  C5_13 
REMARK    6  A    between atoms: C10_18  and  C8_16 
ROOT
HETATM    1  O2  UNK     1      18.597   3.843  30.270  1.00  0.00    -0.309 OA
ENDROOT
BRANCH   1   2
HETATM    2  C11 UNK     1      18.445   2.754  29.476  1.00  0.00     0.299 C 
HETATM    3  O5  UNK     1      18.050   2.717  28.322  1.00  0.00    -0.259 OA
BRANCH   2   4
HETATM    4  C3  UNK     1      18.838   1.562  30.235  1.00  0.00     0.115 A 
HETATM    5  C4  UNK     1      19.474   0.606  29.547  1.00  0.00     0.038 A 
HETATM    6  C1  UNK     1      19.904  -0.614  30.214  1.00  0.00    -0.001 A 
HETATM    7  C2  UNK     1      19.643  -0.767  31.571  1.00  0.00     0.089 A 
HETATM    8  C6  UNK     1      20.571  -1.637  29.536  1.00  0.00     0.014 A 
HETATM    9  O1  UNK     1      18.974   0.244  32.290  1.00  0.00    -0.274 OA
HETATM   10  C7  UNK     1      20.028  -1.910  32.269  1.00  0.00     0.038 A 
HETATM   11  C9  UNK     1      18.550   1.421  31.681  1.00  0.00     0.304 A 
HETATM   12  O3  UNK     1      17.967   2.295  32.314  1.00  0.00    -0.259 OA
HETATM   13  C13 UNK     1      20.692  -2.926  31.585  1.00  0.00     0.003 A 
HETATM   14  C12 UNK     1      20.963  -2.790  30.222  1.00  0.00     0.001 A 
ENDBRANCH   2   4
ENDBRANCH   1   2
BRANCH   1  15
HETATM   15  C8  UNK     1      19.206   4.977  29.642  1.00  0.00     0.263 C 
BRANCH  15  16
HETATM   16  C10 UNK     1      19.984   5.781  30.665  1.00  0.00     0.183 C 
HETATM   17  O4  UNK     1      21.211   5.831  30.648  1.00  0.00    -0.290 OA
BRANCH  16  18
HETATM   18  C5  UNK     1      19.230   6.526  31.715  1.00  0.00     0.012 A 
HETATM   19  C14 UNK     1      19.833   6.743  32.933  1.00  0.00     0.017 A 
HETATM   20  C17 UNK     1      19.127   7.438  33.914  1.00  0.00     0.037 A 
HETATM   21  C16 UNK     1      17.836   7.897  33.651  1.00  0.00     0.102 A 
HETATM   22  C18 UNK     1      17.252   7.662  32.408  1.00  0.00     0.037 A 
HETATM   23  C15 UNK     1      17.959   6.967  31.425  1.00  0.00     0.017 A 
BRANCH  21  24
HETATM   24  N1  UNK     1      17.116   8.603  34.652  1.00  0.00    -0.116 N 
HETATM   25  O6  UNK     1      16.755   9.783  34.424  1.00  0.00    -0.532 OA
HETATM   26  O7  UNK     1      16.859   8.027  35.736  1.00  0.00    -0.532 OA
ENDBRANCH  21  24
ENDBRANCH  16  18
ENDBRANCH  15  16
ENDBRANCH   1  15
TORSDOF 6
ENDMDL
MODEL 5
REMARK VINA RESULT:      -8.9      2.925      5.423
REMARK  6 active torsions:
REMARK  status: ('A' for Active; 'I' for Inactive)
REMARK    1  A    between atoms: C11_19  and  O2_2 
REMARK    2  A    between atoms: C8_16  and  O2_2 
REMARK    3  A    between atoms: C16_24  and  N1_8 
REMARK    4  A    between atoms: C11_19  and  C3_11 
REMARK    5  A    between atoms: C10_18  and  C5_13 
REMARK    6  A    between atoms: C10_18  and  C8_16 
ROOT
HETATM    1  O2  UNK     1      19.350   4.553  30.869  1.00  0.00    -0.309 OA
ENDROOT
BRANCH   1   2
HETATM    2  C11 UNK     1      18.270   3.869  31.320  1.00  0.00     0.299 C 
HETATM    3  O5  UNK     1      17.167   4.309  31.599  1.00  0.00    -0.259 OA
BRANCH   2   4
HETATM    4  C3  UNK     1      18.628   2.451  31.433  1.00  0.00     0.115 A 
HETATM    5  C4  UNK     1      19.184   1.893  30.350  1.00  0.00     0.038 A 
HETATM    6  C1  UNK     1      19.572   0.491  30.367  1.00  0.00    -0.001 A 
HETATM    7  C2  UNK     1      19.359  -0.254  31.521  1.00  0.00     0.089 A 
HETATM    8  C6  UNK     1      20.155  -0.132  29.260  1.00  0.00     0.014 A 
HETATM    9  O1  UNK     1      18.775   0.340  32.657  1.00  0.00    -0.274 OA
HETATM   10  C7  UNK     1      19.709  -1.600  31.602  1.00  0.00     0.038 A 
HETATM   11  C9  UNK     1      18.392   1.678  32.673  1.00  0.00     0.304 A 
HETATM   12  O3  UNK     1      17.883   2.186  33.667  1.00  0.00    -0.259 OA
HETATM   13  C13 UNK     1      20.289  -2.215  30.494  1.00  0.00     0.003 A 
HETATM   14  C12 UNK     1      20.511  -1.483  29.326  1.00  0.00     0.001 A 
ENDBRANCH   2   4
ENDBRANCH   1   2
BRANCH   1  15
HETATM   15  C8  UNK     1      19.188   5.974  30.797  1.00  0.00     0.263 C 
BRANCH  15  16
HETATM   16  C10 UNK     1      19.461   6.597  32.152  1.00  0.00     0.183 C 
HETATM   17  O4  UNK     1      20.551   6.483  32.707  1.00  0.00    -0.290 OA
BRANCH  16  18
HETATM   18  C5  UNK     1      18.371   7.365  32.820  1.00  0.00     0.012 A 
HETATM   19  C14 UNK     1      18.506   7.680  34.154  1.00  0.00     0.017 A 
HETATM   20  C17 UNK     1      17.485   8.397  34.778  1.00  0.00     0.037 A 
HETATM   21  C16 UNK     1      16.357   8.780  34.052  1.00  0.00     0.102 A 
HETATM   22  C18 UNK     1      16.249   8.447  32.703  1.00  0.00     0.037 A 
HETATM   23  C15 UNK     1      17.271   7.730  32.078  1.00  0.00     0.017 A 
BRANCH  21  24
HETATM   24  N1  UNK     1      15.317   9.508  34.689  1.00  0.00    -0.116 N 
HETATM   25  O6  UNK     1      15.619  10.433  35.482  1.00  0.00    -0.532 OA
HETATM   26  O7  UNK     1      14.125   9.208  34.441  1.00  0.00    -0.532 OA
ENDBRANCH  21  24
ENDBRANCH  16  18
ENDBRANCH  15  16
ENDBRANCH   1  15
TORSDOF 6
ENDMDL
MODEL 6
REMARK VINA RESULT:      -8.7      3.233      7.894
REMARK  6 active torsions:
REMARK  status: ('A' for Active; 'I' for Inactive)
REMARK    1  A    between atoms: C11_19  and  O2_2 
REMARK    2  A    between atoms: C8_16  and  O2_2 
REMARK    3  A    between atoms: C16_24  and  N1_8 
REMARK    4  A    between atoms: C11_19  and  C3_11 
REMARK    5  A    between atoms: C10_18  and  C5_13 
REMARK    6  A    between atoms: C10_18  and  C8_16 
ROOT
HETATM    1  O2  UNK     1      17.725   4.186  31.191  1.00  0.00    -0.309 OA
ENDROOT
BRANCH   1   2
HETATM    2  C11 UNK     1      17.894   4.340  32.528  1.00  0.00     0.299 C 
HETATM    3  O5  UNK     1      18.032   3.469  33.371  1.00  0.00    -0.259 OA
BRANCH   2   4
HETATM    4  C3  UNK     1      17.885   5.774  32.838  1.00  0.00     0.115 A 
HETATM    5  C4  UNK     1      19.032   6.285  33.304  1.00  0.00     0.038 A 
HETATM    6  C1  UNK     1      19.121   7.698  33.640  1.00  0.00    -0.001 A 
HETATM    7  C2  UNK     1      18.000   8.502  33.470  1.00  0.00     0.089 A 
HETATM    8  C6  UNK     1      20.297   8.273  34.128  1.00  0.00     0.014 A 
HETATM    9  O1  UNK     1      16.797   7.958  32.979  1.00  0.00    -0.274 OA
HETATM   10  C7  UNK     1      18.019   9.863  33.773  1.00  0.00     0.038 A 
HETATM   11  C9  UNK     1      16.680   6.611  32.649  1.00  0.00     0.304 A 
HETATM   12  O3  UNK     1      15.627   6.146  32.223  1.00  0.00    -0.259 OA
HETATM   13  C13 UNK     1      19.195  10.429  34.259  1.00  0.00     0.003 A 
HETATM   14  C12 UNK     1      20.332   9.637  34.437  1.00  0.00     0.001 A 
ENDBRANCH   2   4
ENDBRANCH   1   2
BRANCH   1  15
HETATM   15  C8  UNK     1      18.897   3.793  30.469  1.00  0.00     0.263 C 
BRANCH  15  16
HETATM   16  C10 UNK     1      18.629   2.514  29.700  1.00  0.00     0.183 C 
HETATM   17  O4  UNK     1      17.948   2.508  28.677  1.00  0.00    -0.290 OA
BRANCH  16  18
HETATM   18  C5  UNK     1      19.209   1.237  30.207  1.00  0.00     0.012 A 
HETATM   19  C14 UNK     1      20.005   0.492  29.366  1.00  0.00     0.017 A 
HETATM   20  C17 UNK     1      20.545  -0.702  29.842  1.00  0.00     0.037 A 
HETATM   21  C16 UNK     1      20.276  -1.120  31.145  1.00  0.00     0.102 A 
HETATM   22  C18 UNK     1      19.467  -0.343  31.973  1.00  0.00     0.037 A 
HETATM   23  C15 UNK     1      18.926   0.852  31.498  1.00  0.00     0.017 A 
BRANCH  21  24
HETATM   24  N1  UNK     1      20.825  -2.338  31.628  1.00  0.00    -0.116 N 
HETATM   25  O6  UNK     1      21.154  -2.420  32.836  1.00  0.00    -0.532 OA
HETATM   26  O7  UNK     1      20.965  -3.298  30.834  1.00  0.00    -0.532 OA
ENDBRANCH  21  24
ENDBRANCH  16  18
ENDBRANCH  15  16
ENDBRANCH   1  15
TORSDOF 6
ENDMDL
MODEL 7
REMARK VINA RESULT:      -8.5     13.600     15.669
REMARK  6 active torsions:
REMARK  status: ('A' for Active; 'I' for Inactive)
REMARK    1  A    between atoms: C11_19  and  O2_2 
REMARK    2  A    between atoms: C8_16  and  O2_2 
REMARK    3  A    between atoms: C16_24  and  N1_8 
REMARK    4  A    between atoms: C11_19  and  C3_11 
REMARK    5  A    between atoms: C10_18  and  C5_13 
REMARK    6  A    between atoms: C10_18  and  C8_16 
ROOT
HETATM    1  O2  UNK     1      27.946  -5.789  37.866  1.00  0.00    -0.309 OA
ENDROOT
BRANCH   1   2
HETATM    2  C11 UNK     1      27.787  -6.990  37.256  1.00  0.00     0.299 C 
HETATM    3  O5  UNK     1      26.774  -7.664  37.180  1.00  0.00    -0.259 OA
BRANCH   2   4
HETATM    4  C3  UNK     1      29.072  -7.389  36.669  1.00  0.00     0.115 A 
HETATM    5  C4  UNK     1      29.479  -6.687  35.605  1.00  0.00     0.038 A 
HETATM    6  C1  UNK     1      30.740  -7.010  34.954  1.00  0.00    -0.001 A 
HETATM    7  C2  UNK     1      31.509  -8.054  35.456  1.00  0.00     0.089 A 
HETATM    8  C6  UNK     1      31.205  -6.304  33.841  1.00  0.00     0.014 A 
HETATM    9  O1  UNK     1      31.074  -8.789  36.577  1.00  0.00    -0.274 OA
HETATM   10  C7  UNK     1      32.726  -8.413  34.879  1.00  0.00     0.038 A 
HETATM   11  C9  UNK     1      29.873  -8.505  37.221  1.00  0.00     0.304 A 
HETATM   12  O3  UNK     1      29.503  -9.150  38.196  1.00  0.00    -0.259 OA
HETATM   13  C13 UNK     1      33.182  -7.705  33.770  1.00  0.00     0.003 A 
HETATM   14  C12 UNK     1      32.423  -6.653  33.252  1.00  0.00     0.001 A 
ENDBRANCH   2   4
ENDBRANCH   1   2
BRANCH   1  15
HETATM   15  C8  UNK     1      28.656  -5.825  39.109  1.00  0.00     0.263 C 
BRANCH  15  16
HETATM   16  C10 UNK     1      29.637  -4.672  39.181  1.00  0.00     0.183 C 
HETATM   17  O4  UNK     1      29.463  -3.723  39.942  1.00  0.00    -0.290 OA
BRANCH  16  18
HETATM   18  C5  UNK     1      30.840  -4.699  38.299  1.00  0.00     0.012 A 
HETATM   19  C14 UNK     1      31.813  -5.643  38.537  1.00  0.00     0.017 A 
HETATM   20  C17 UNK     1      32.938  -5.666  37.712  1.00  0.00     0.037 A 
HETATM   21  C16 UNK     1      33.059  -4.745  36.672  1.00  0.00     0.102 A 
HETATM   22  C18 UNK     1      32.056  -3.801  36.455  1.00  0.00     0.037 A 
HETATM   23  C15 UNK     1      30.931  -3.778  37.280  1.00  0.00     0.017 A 
BRANCH  21  24
HETATM   24  N1  UNK     1      34.206  -4.767  35.834  1.00  0.00    -0.116 N 
HETATM   25  O6  UNK     1      34.249  -4.002  34.841  1.00  0.00    -0.532 OA
HETATM   26  O7  UNK     1      35.145  -5.551  36.110  1.00  0.00    -0.532 OA
ENDBRANCH  21  24
ENDBRANCH  16  18
ENDBRANCH  15  16
ENDBRANCH   1  15
TORSDOF 6
ENDMDL
MODEL 8
REMARK VINA RESULT:      -8.5     13.986     16.587
REMARK  6 active torsions:
REMARK  status: ('A' for Active; 'I' for Inactive)
REMARK    1  A    between atoms: C11_19  and  O2_2 
REMARK    2  A    between atoms: C8_16  and  O2_2 
REMARK    3  A    between atoms: C16_24  and  N1_8 
REMARK    4  A    between atoms: C11_19  and  C3_11 
REMARK    5  A    between atoms: C10_18  and  C5_13 
REMARK    6  A    between atoms: C10_18  and  C8_16 
ROOT
HETATM    1  O2  UNK     1      28.559  -8.723  37.367  1.00  0.00    -0.309 OA
ENDROOT
BRANCH   1   2
HETATM    2  C11 UNK     1      27.978  -7.501  37.281  1.00  0.00     0.299 C 
HETATM    3  O5  UNK     1      26.787  -7.236  37.270  1.00  0.00    -0.259 OA
BRANCH   2   4
HETATM    4  C3  UNK     1      29.034  -6.486  37.196  1.00  0.00     0.115 A 
HETATM    5  C4  UNK     1      29.730  -6.451  36.052  1.00  0.00     0.038 A 
HETATM    6  C1  UNK     1      30.798  -5.480  35.874  1.00  0.00    -0.001 A 
HETATM    7  C2  UNK     1      31.080  -4.593  36.908  1.00  0.00     0.089 A 
HETATM    8  C6  UNK     1      31.549  -5.407  34.698  1.00  0.00     0.014 A 
HETATM    9  O1  UNK     1      30.344  -4.635  38.108  1.00  0.00    -0.274 OA
HETATM   10  C7  UNK     1      32.090  -3.638  36.801  1.00  0.00     0.038 A 
HETATM   11  C9  UNK     1      29.317  -5.552  38.309  1.00  0.00     0.304 A 
HETATM   12  O3  UNK     1      28.682  -5.582  39.358  1.00  0.00    -0.259 OA
HETATM   13  C13 UNK     1      32.835  -3.572  35.625  1.00  0.00     0.003 A 
HETATM   14  C12 UNK     1      32.565  -4.455  34.576  1.00  0.00     0.001 A 
ENDBRANCH   2   4
ENDBRANCH   1   2
BRANCH   1  15
HETATM   15  C8  UNK     1      29.025  -9.087  38.671  1.00  0.00     0.263 C 
BRANCH  15  16
HETATM   16  C10 UNK     1      30.376  -9.767  38.568  1.00  0.00     0.183 C 
HETATM   17  O4  UNK     1      30.579 -10.877  39.053  1.00  0.00    -0.290 OA
BRANCH  16  18
HETATM   18  C5  UNK     1      31.483  -9.059  37.860  1.00  0.00     0.012 A 
HETATM   19  C14 UNK     1      31.796  -9.442  36.576  1.00  0.00     0.017 A 
HETATM   20  C17 UNK     1      32.832  -8.780  35.915  1.00  0.00     0.037 A 
HETATM   21  C16 UNK     1      33.526  -7.754  36.557  1.00  0.00     0.102 A 
HETATM   22  C18 UNK     1      33.184  -7.389  37.859  1.00  0.00     0.037 A 
HETATM   23  C15 UNK     1      32.148  -8.050  38.519  1.00  0.00     0.017 A 
BRANCH  21  24
HETATM   24  N1  UNK     1      34.581  -7.083  35.885  1.00  0.00    -0.116 N 
HETATM   25  O6  UNK     1      34.915  -7.469  34.739  1.00  0.00    -0.532 OA
HETATM   26  O7  UNK     1      35.151  -6.122  36.455  1.00  0.00    -0.532 OA
ENDBRANCH  21  24
ENDBRANCH  16  18
ENDBRANCH  15  16
ENDBRANCH   1  15
TORSDOF 6
ENDMDL
MODEL 9
REMARK VINA RESULT:      -8.4      4.286      6.621
REMARK  6 active torsions:
REMARK  status: ('A' for Active; 'I' for Inactive)
REMARK    1  A    between atoms: C11_19  and  O2_2 
REMARK    2  A    between atoms: C8_16  and  O2_2 
REMARK    3  A    between atoms: C16_24  and  N1_8 
REMARK    4  A    between atoms: C11_19  and  C3_11 
REMARK    5  A    between atoms: C10_18  and  C5_13 
REMARK    6  A    between atoms: C10_18  and  C8_16 
ROOT
HETATM    1  O2  UNK     1      20.199  -3.777  35.054  1.00  0.00    -0.309 OA
ENDROOT
BRANCH   1   2
HETATM    2  C11 UNK     1      19.688  -3.666  36.304  1.00  0.00     0.299 C 
HETATM    3  O5  UNK     1      19.117  -2.709  36.799  1.00  0.00    -0.259 OA
BRANCH   2   4
HETATM    4  C3  UNK     1      19.931  -4.923  37.022  1.00  0.00     0.115 A 
HETATM    5  C4  UNK     1      21.117  -5.035  37.633  1.00  0.00     0.038 A 
HETATM    6  C1  UNK     1      21.449  -6.245  38.370  1.00  0.00    -0.001 A 
HETATM    7  C2  UNK     1      20.518  -7.276  38.428  1.00  0.00     0.089 A 
HETATM    8  C6  UNK     1      22.674  -6.405  39.023  1.00  0.00     0.014 A 
HETATM    9  O1  UNK     1      19.272  -7.151  37.783  1.00  0.00    -0.274 OA
HETATM   10  C7  UNK     1      20.775  -8.460  39.117  1.00  0.00     0.038 A 
HETATM   11  C9  UNK     1      18.924  -6.007  37.070  1.00  0.00     0.304 A 
HETATM   12  O3  UNK     1      17.836  -5.907  36.512  1.00  0.00    -0.259 OA
HETATM   13  C13 UNK     1      21.998  -8.612  39.765  1.00  0.00     0.003 A 
HETATM   14  C12 UNK     1      22.947  -7.587  39.718  1.00  0.00     0.001 A 
ENDBRANCH   2   4
ENDBRANCH   1   2
BRANCH   1  15
HETATM   15  C8  UNK     1      20.506  -2.537  34.407  1.00  0.00     0.263 C 
BRANCH  15  16
HETATM   16  C10 UNK     1      20.735  -2.767  32.926  1.00  0.00     0.183 C 
HETATM   17  O4  UNK     1      21.287  -3.782  32.508  1.00  0.00    -0.290 OA
BRANCH  16  18
HETATM   18  C5  UNK     1      20.277  -1.726  31.960  1.00  0.00     0.012 A 
HETATM   19  C14 UNK     1      19.428  -0.739  32.406  1.00  0.00     0.017 A 
HETATM   20  C17 UNK     1      18.999   0.233  31.502  1.00  0.00     0.037 A 
HETATM   21  C16 UNK     1      19.431   0.191  30.176  1.00  0.00     0.102 A 
HETATM   22  C18 UNK     1      20.291  -0.821  29.754  1.00  0.00     0.037 A 
HETATM   23  C15 UNK     1      20.721  -1.793  30.659  1.00  0.00     0.017 A 
BRANCH  21  24
HETATM   24  N1  UNK     1      18.992   1.179  29.255  1.00  0.00    -0.116 N 
HETATM   25  O6  UNK     1      18.648   0.826  28.101  1.00  0.00    -0.532 OA
HETATM   26  O7  UNK     1      18.959   2.379  29.620  1.00  0.00    -0.532 OA
ENDBRANCH  21  24
ENDBRANCH  16  18
ENDBRANCH  15  16
ENDBRANCH   1  15
TORSDOF 6
ENDMDL
MODEL 10
REMARK VINA RESULT:      -8.3      2.816      4.919
REMARK  6 active torsions:
REMARK  status: ('A' for Active; 'I' for Inactive)
REMARK    1  A    between atoms: C11_19  and  O2_2 
REMARK    2  A    between atoms: C8_16  and  O2_2 
REMARK    3  A    between atoms: C16_24  and  N1_8 
REMARK    4  A    between atoms: C11_19  and  C3_11 
REMARK    5  A    between atoms: C10_18  and  C5_13 
REMARK    6  A    between atoms: C10_18  and  C8_16 
ROOT
HETATM    1  O2  UNK     1      17.875   2.898  33.129  1.00  0.00    -0.309 OA
ENDROOT
BRANCH   1   2
HETATM    2  C11 UNK     1      17.978   1.799  33.917  1.00  0.00     0.299 C 
HETATM    3  O5  UNK     1      17.672   1.688  35.092  1.00  0.00    -0.259 OA
BRANCH   2   4
HETATM    4  C3  UNK     1      18.541   0.703  33.119  1.00  0.00     0.115 A 
HETATM    5  C4  UNK     1      18.994   1.030  31.902  1.00  0.00     0.038 A 
HETATM    6  C1  UNK     1      19.569   0.011  31.037  1.00  0.00    -0.001 A 
HETATM    7  C2  UNK     1      19.640  -1.300  31.496  1.00  0.00     0.089 A 
HETATM    8  C6  UNK     1      20.055   0.306  29.761  1.00  0.00     0.014 A 
HETATM    9  O1  UNK     1      19.161  -1.636  32.778  1.00  0.00    -0.274 OA
HETATM   10  C7  UNK     1      20.179  -2.322  30.717  1.00  0.00     0.038 A 
HETATM   11  C9  UNK     1      18.606  -0.685  33.628  1.00  0.00     0.304 A 
HETATM   12  O3  UNK     1      18.191  -0.987  34.742  1.00  0.00    -0.259 OA
HETATM   13  C13 UNK     1      20.660  -2.020  29.446  1.00  0.00     0.003 A 
HETATM   14  C12 UNK     1      20.598  -0.709  28.968  1.00  0.00     0.001 A 
ENDBRANCH   2   4
ENDBRANCH   1   2
BRANCH   1  15
HETATM   15  C8  UNK     1      18.281   4.128  33.739  1.00  0.00     0.263 C 
BRANCH  15  16
HETATM   16  C10 UNK     1      18.482   5.192  32.679  1.00  0.00     0.183 C 
HETATM   17  O4  UNK     1      18.822   4.906  31.533  1.00  0.00    -0.290 OA
BRANCH  16  18
HETATM   18  C5  UNK     1      18.261   6.621  33.046  1.00  0.00     0.012 A 
HETATM   19  C14 UNK     1      17.094   7.233  32.648  1.00  0.00     0.017 A 
HETATM   20  C17 UNK     1      16.889   8.569  32.992  1.00  0.00     0.037 A 
HETATM   21  C16 UNK     1      17.856   9.258  33.724  1.00  0.00     0.102 A 
HETATM   22  C18 UNK     1      19.028   8.611  34.113  1.00  0.00     0.037 A 
HETATM   23  C15 UNK     1      19.233   7.273  33.770  1.00  0.00     0.017 A 
BRANCH  21  24
HETATM   24  N1  UNK     1      17.648  10.619  34.071  1.00  0.00    -0.116 N 
HETATM   25  O6  UNK     1      18.420  11.491  33.603  1.00  0.00    -0.532 OA
HETATM   26  O7  UNK     1      16.698  10.913  34.835  1.00  0.00    -0.532 OA
ENDBRANCH  21  24
ENDBRANCH  16  18
ENDBRANCH  15  16
ENDBRANCH   1  15
TORSDOF 6
ENDMDL
