MODEL 1
REMARK VINA RESULT:      -7.9      0.000      0.000
REMARK  7 active torsions:
REMARK  status: ('A' for Active; 'I' for Inactive)
REMARK    1  A    between atoms: C22_29  and  S1_1 
REMARK    2  A    between atoms: C24_31  and  S1_1 
REMARK    3  A    between atoms: C12_19  and  O3_4 
REMARK    4  A    between atoms: C20_27  and  O3_4 
REMARK    5  A    between atoms: C1_8  and  C10_17 
REMARK    6  A    between atoms: C12_19  and  C6_13 
REMARK    7  A    between atoms: C20_27  and  C22_29 
ROOT
HETATM    1  O1  UNK     1      29.017  -5.454  32.197  1.00  0.00    -0.293 OA
HETATM    2  N1  UNK     1      28.976 -10.106  31.307  1.00  0.00    -0.362 N 
HETATM    3  C1  UNK     1      29.971  -8.057  32.997  1.00  0.00     0.104 C 
HETATM    4  C2  UNK     1      28.974  -7.806  31.871  1.00  0.00     0.024 C 
HETATM    5  C3  UNK     1      28.512  -8.820  31.110  1.00  0.00     0.020 C 
HETATM    6  C4  UNK     1      27.490  -8.636  30.019  1.00  0.00     0.058 C 
HETATM    7  C5  UNK     1      26.684  -7.355  30.195  1.00  0.00     0.014 C 
HETATM    8  C6  UNK     1      30.499  -9.495  33.013  1.00  0.00     0.052 C 
HETATM    9  C7  UNK     1      27.602  -6.165  30.412  1.00  0.00     0.084 C 
HETATM   10  C8  UNK     1      28.552  -6.403  31.566  1.00  0.00     0.158 C 
HETATM   11  C9  UNK     1      29.983 -10.444  32.198  1.00  0.00     0.018 C 
HETATM   12  C13 UNK     1      30.416 -11.885  32.126  1.00  0.00     0.069 C 
HETATM   13  H8  UNK     1      28.612 -10.837  30.707  1.00  0.00     0.165 HD
ENDROOT
BRANCH   3  14
HETATM   14  C10 UNK     1      29.349  -7.717  34.325  1.00  0.00     0.029 A 
HETATM   15  C14 UNK     1      28.282  -8.349  34.831  1.00  0.00     0.154 A 
HETATM   16  O2  UNK     1      27.668  -8.089  36.032  1.00  0.00    -0.321 OA
HETATM   17  C16 UNK     1      28.188  -7.085  36.808  1.00  0.00     0.089 A 
HETATM   18  C15 UNK     1      29.298  -6.333  36.422  1.00  0.00     0.049 A 
HETATM   19  C18 UNK     1      27.559  -6.828  38.027  1.00  0.00     0.039 A 
HETATM   20  C11 UNK     1      29.946  -6.622  35.130  1.00  0.00     0.194 A 
HETATM   21  C17 UNK     1      29.784  -5.320  37.253  1.00  0.00     0.025 A 
HETATM   22  O4  UNK     1      30.922  -5.991  34.747  1.00  0.00    -0.287 OA
HETATM   23  C19 UNK     1      29.153  -5.065  38.471  1.00  0.00    -0.061 A 
HETATM   24  C21 UNK     1      28.044  -5.817  38.857  1.00  0.00     0.009 A 
HETATM   25  C23 UNK     1      29.666  -3.985  39.363  1.00  0.00     0.048 C 
ENDBRANCH   3  14
BRANCH   8  26
HETATM   26  C12 UNK     1      31.600  -9.769  33.951  1.00  0.00     0.292 C 
HETATM   27  O5  UNK     1      31.511 -10.554  34.877  1.00  0.00    -0.259 OA
BRANCH  26  28
HETATM   28  O3  UNK     1      32.665  -9.013  33.591  1.00  0.00    -0.317 OA
BRANCH  28  29
HETATM   29  C20 UNK     1      33.695  -8.907  34.579  1.00  0.00     0.189 C 
BRANCH  29  30
HETATM   30  C22 UNK     1      34.121  -7.455  34.736  1.00  0.00     0.100 C 
BRANCH  30  31
HETATM   31  S1  UNK     1      33.973  -6.903  36.463  1.00  0.00    -0.167 SA
BRANCH  31  32
HETATM   32  C24 UNK     1      32.834  -8.180  37.046  1.00  0.00     0.069 C 
HETATM   33  C25 UNK     1      32.232  -7.787  38.381  1.00  0.00     0.016 C 
ENDBRANCH  31  32
ENDBRANCH  30  31
ENDBRANCH  29  30
ENDBRANCH  28  29
ENDBRANCH  26  28
ENDBRANCH   8  26
TORSDOF 7
ENDMDL
MODEL 2
REMARK VINA RESULT:      -7.9      2.210      6.142
REMARK  7 active torsions:
REMARK  status: ('A' for Active; 'I' for Inactive)
REMARK    1  A    between atoms: C22_29  and  S1_1 
REMARK    2  A    between atoms: C24_31  and  S1_1 
REMARK    3  A    between atoms: C12_19  and  O3_4 
REMARK    4  A    between atoms: C20_27  and  O3_4 
REMARK    5  A    between atoms: C1_8  and  C10_17 
REMARK    6  A    between atoms: C12_19  and  C6_13 
REMARK    7  A    between atoms: C20_27  and  C22_29 
ROOT
HETATM    1  O1  UNK     1      28.052  -9.671  35.986  1.00  0.00    -0.293 OA
HETATM    2  N1  UNK     1      29.142  -5.391  37.697  1.00  0.00    -0.362 N 
HETATM    3  C1  UNK     1      29.587  -7.259  35.608  1.00  0.00     0.104 C 
HETATM    4  C2  UNK     1      28.579  -7.479  36.731  1.00  0.00     0.024 C 
HETATM    5  C3  UNK     1      28.387  -6.548  37.688  1.00  0.00     0.020 C 
HETATM    6  C4  UNK     1      27.371  -6.692  38.790  1.00  0.00     0.058 C 
HETATM    7  C5  UNK     1      26.278  -7.694  38.437  1.00  0.00     0.014 C 
HETATM    8  C6  UNK     1      30.444  -6.006  35.817  1.00  0.00     0.052 C 
HETATM    9  C7  UNK     1      26.880  -9.002  37.954  1.00  0.00     0.084 C 
HETATM   10  C8  UNK     1      27.839  -8.778  36.805  1.00  0.00     0.158 C 
HETATM   11  C9  UNK     1      30.185  -5.134  36.820  1.00  0.00     0.018 C 
HETATM   12  C13 UNK     1      30.952  -3.874  37.122  1.00  0.00     0.069 C 
HETATM   13  H8  UNK     1      28.975  -4.723  38.439  1.00  0.00     0.165 HD
ENDROOT
BRANCH   3  14
HETATM   14  C10 UNK     1      28.879  -7.187  34.282  1.00  0.00     0.029 A 
HETATM   15  C14 UNK     1      27.977  -6.247  33.968  1.00  0.00     0.154 A 
HETATM   16  O2  UNK     1      27.297  -6.126  32.781  1.00  0.00    -0.321 OA
HETATM   17  C16 UNK     1      27.556  -7.052  31.803  1.00  0.00     0.089 A 
HETATM   18  C15 UNK     1      28.469  -8.093  31.973  1.00  0.00     0.049 A 
HETATM   19  C18 UNK     1      26.862  -6.921  30.599  1.00  0.00     0.039 A 
HETATM   20  C11 UNK     1      29.190  -8.212  33.254  1.00  0.00     0.194 A 
HETATM   21  C17 UNK     1      28.692  -9.009  30.942  1.00  0.00     0.025 A 
HETATM   22  O4  UNK     1      30.001  -9.106  33.452  1.00  0.00    -0.287 OA
HETATM   23  C19 UNK     1      27.996  -8.876  29.740  1.00  0.00    -0.061 A 
HETATM   24  C21 UNK     1      27.084  -7.835  29.568  1.00  0.00     0.009 A 
HETATM   25  C23 UNK     1      28.228  -9.850  28.634  1.00  0.00     0.048 C 
ENDBRANCH   3  14
BRANCH   8  26
HETATM   26  C12 UNK     1      31.562  -5.823  34.876  1.00  0.00     0.292 C 
HETATM   27  O5  UNK     1      31.667  -4.859  34.141  1.00  0.00    -0.259 OA
BRANCH  26  28
HETATM   28  O3  UNK     1      32.397  -6.883  34.994  1.00  0.00    -0.317 OA
BRANCH  28  29
HETATM   29  C20 UNK     1      33.307  -6.819  36.096  1.00  0.00     0.189 C 
BRANCH  29  30
HETATM   30  C22 UNK     1      33.272  -8.124  36.878  1.00  0.00     0.100 C 
BRANCH  30  31
HETATM   31  S1  UNK     1      32.162  -8.007  38.314  1.00  0.00    -0.167 SA
BRANCH  31  32
HETATM   32  C24 UNK     1      31.284  -9.570  38.090  1.00  0.00     0.069 C 
HETATM   33  C25 UNK     1      31.494 -10.102  36.685  1.00  0.00     0.016 C 
ENDBRANCH  31  32
ENDBRANCH  30  31
ENDBRANCH  29  30
ENDBRANCH  28  29
ENDBRANCH  26  28
ENDBRANCH   8  26
TORSDOF 7
ENDMDL
MODEL 3
REMARK VINA RESULT:      -7.8      2.222      6.111
REMARK  7 active torsions:
REMARK  status: ('A' for Active; 'I' for Inactive)
REMARK    1  A    between atoms: C22_29  and  S1_1 
REMARK    2  A    between atoms: C24_31  and  S1_1 
REMARK    3  A    between atoms: C12_19  and  O3_4 
REMARK    4  A    between atoms: C20_27  and  O3_4 
REMARK    5  A    between atoms: C1_8  and  C10_17 
REMARK    6  A    between atoms: C12_19  and  C6_13 
REMARK    7  A    between atoms: C20_27  and  C22_29 
ROOT
HETATM    1  O1  UNK     1      28.944  -9.626  36.055  1.00  0.00    -0.293 OA
HETATM    2  N1  UNK     1      29.907  -5.271  37.649  1.00  0.00    -0.362 N 
HETATM    3  C1  UNK     1      30.213  -7.096  35.499  1.00  0.00     0.104 C 
HETATM    4  C2  UNK     1      29.389  -7.398  36.745  1.00  0.00     0.024 C 
HETATM    5  C3  UNK     1      29.254  -6.486  37.731  1.00  0.00     0.020 C 
HETATM    6  C4  UNK     1      28.412  -6.712  38.958  1.00  0.00     0.058 C 
HETATM    7  C5  UNK     1      27.367  -7.800  38.746  1.00  0.00     0.014 C 
HETATM    8  C6  UNK     1      30.986  -5.777  35.603  1.00  0.00     0.052 C 
HETATM    9  C7  UNK     1      28.001  -9.054  38.172  1.00  0.00     0.084 C 
HETATM   10  C8  UNK     1      28.773  -8.753  36.905  1.00  0.00     0.158 C 
HETATM   11  C9  UNK     1      30.796  -4.929  36.641  1.00  0.00     0.018 C 
HETATM   12  C13 UNK     1      31.492  -3.611  36.850  1.00  0.00     0.069 C 
HETATM   13  H8  UNK     1      29.789  -4.618  38.415  1.00  0.00     0.165 HD
ENDROOT
BRANCH   3  14
HETATM   14  C10 UNK     1      29.326  -7.082  34.282  1.00  0.00     0.029 A 
HETATM   15  C14 UNK     1      28.300  -6.239  34.117  1.00  0.00     0.154 A 
HETATM   16  O2  UNK     1      27.455  -6.174  33.036  1.00  0.00    -0.321 OA
HETATM   17  C16 UNK     1      27.671  -7.056  32.007  1.00  0.00     0.089 A 
HETATM   18  C15 UNK     1      28.701  -7.997  32.026  1.00  0.00     0.049 A 
HETATM   19  C18 UNK     1      26.810  -6.983  30.912  1.00  0.00     0.039 A 
HETATM   20  C11 UNK     1      29.598  -8.056  33.195  1.00  0.00     0.194 A 
HETATM   21  C17 UNK     1      28.874  -8.872  30.950  1.00  0.00     0.025 A 
HETATM   22  O4  UNK     1      30.516  -8.863  33.258  1.00  0.00    -0.287 OA
HETATM   23  C19 UNK     1      28.010  -8.798  29.856  1.00  0.00    -0.061 A 
HETATM   24  C21 UNK     1      26.982  -7.856  29.837  1.00  0.00     0.009 A 
HETATM   25  C23 UNK     1      28.188  -9.728  28.704  1.00  0.00     0.048 C 
ENDBRANCH   3  14
BRANCH   8  26
HETATM   26  C12 UNK     1      31.947  -5.503  34.521  1.00  0.00     0.292 C 
HETATM   27  O5  UNK     1      31.719  -4.739  33.602  1.00  0.00    -0.259 OA
BRANCH  26  28
HETATM   28  O3  UNK     1      33.066  -6.232  34.750  1.00  0.00    -0.317 OA
BRANCH  28  29
HETATM   29  C20 UNK     1      34.255  -5.467  34.962  1.00  0.00     0.189 C 
BRANCH  29  30
HETATM   30  C22 UNK     1      35.121  -6.130  36.022  1.00  0.00     0.100 C 
BRANCH  30  31
HETATM   31  S1  UNK     1      34.269  -6.200  37.627  1.00  0.00    -0.167 SA
BRANCH  31  32
HETATM   32  C24 UNK     1      33.485  -7.816  37.434  1.00  0.00     0.069 C 
HETATM   33  C25 UNK     1      32.358  -7.984  38.434  1.00  0.00     0.016 C 
ENDBRANCH  31  32
ENDBRANCH  30  31
ENDBRANCH  29  30
ENDBRANCH  28  29
ENDBRANCH  26  28
ENDBRANCH   8  26
TORSDOF 7
ENDMDL
MODEL 4
REMARK VINA RESULT:      -7.8      2.480      6.404
REMARK  7 active torsions:
REMARK  status: ('A' for Active; 'I' for Inactive)
REMARK    1  A    between atoms: C22_29  and  S1_1 
REMARK    2  A    between atoms: C24_31  and  S1_1 
REMARK    3  A    between atoms: C12_19  and  O3_4 
REMARK    4  A    between atoms: C20_27  and  O3_4 
REMARK    5  A    between atoms: C1_8  and  C10_17 
REMARK    6  A    between atoms: C12_19  and  C6_13 
REMARK    7  A    between atoms: C20_27  and  C22_29 
ROOT
HETATM    1  O1  UNK     1      27.252 -10.031  36.382  1.00  0.00    -0.293 OA
HETATM    2  N1  UNK     1      29.974  -6.815  38.545  1.00  0.00    -0.362 N 
HETATM    3  C1  UNK     1      29.678  -8.477  36.265  1.00  0.00     0.104 C 
HETATM    4  C2  UNK     1      28.624  -8.358  37.359  1.00  0.00     0.024 C 
HETATM    5  C3  UNK     1      28.802  -7.534  38.413  1.00  0.00     0.020 C 
HETATM    6  C4  UNK     1      27.772  -7.341  39.495  1.00  0.00     0.058 C 
HETATM    7  C5  UNK     1      26.376  -7.743  39.038  1.00  0.00     0.014 C 
HETATM    8  C6  UNK     1      30.975  -7.735  36.606  1.00  0.00     0.052 C 
HETATM    9  C7  UNK     1      26.388  -9.127  38.415  1.00  0.00     0.084 C 
HETATM   10  C8  UNK     1      27.401  -9.219  37.294  1.00  0.00     0.158 C 
HETATM   11  C9  UNK     1      31.065  -6.940  37.698  1.00  0.00     0.018 C 
HETATM   12  C13 UNK     1      32.279  -6.163  38.133  1.00  0.00     0.069 C 
HETATM   13  H8  UNK     1      30.073  -6.217  39.356  1.00  0.00     0.165 HD
ENDROOT
BRANCH   3  14
HETATM   14  C10 UNK     1      29.125  -7.979  34.956  1.00  0.00     0.029 A 
HETATM   15  C14 UNK     1      28.637  -6.745  34.774  1.00  0.00     0.154 A 
HETATM   16  O2  UNK     1      28.120  -6.230  33.611  1.00  0.00    -0.321 OA
HETATM   17  C16 UNK     1      28.094  -7.048  32.510  1.00  0.00     0.089 A 
HETATM   18  C15 UNK     1      28.567  -8.361  32.535  1.00  0.00     0.049 A 
HETATM   19  C18 UNK     1      27.568  -6.517  31.331  1.00  0.00     0.039 A 
HETATM   20  C11 UNK     1      29.117  -8.901  33.792  1.00  0.00     0.194 A 
HETATM   21  C17 UNK     1      28.514  -9.149  31.383  1.00  0.00     0.025 A 
HETATM   22  O4  UNK     1      29.545 -10.045  33.865  1.00  0.00    -0.287 OA
HETATM   23  C19 UNK     1      27.987  -8.617  30.206  1.00  0.00    -0.061 A 
HETATM   24  C21 UNK     1      27.516  -7.304  30.180  1.00  0.00     0.009 A 
HETATM   25  C23 UNK     1      27.928  -9.452  28.972  1.00  0.00     0.048 C 
ENDBRANCH   3  14
BRANCH   8  26
HETATM   26  C12 UNK     1      32.105  -7.952  35.688  1.00  0.00     0.292 C 
HETATM   27  O5  UNK     1      32.693  -9.013  35.589  1.00  0.00    -0.259 OA
BRANCH  26  28
HETATM   28  O3  UNK     1      32.338  -6.798  35.018  1.00  0.00    -0.317 OA
BRANCH  28  29
HETATM   29  C20 UNK     1      32.888  -6.958  33.707  1.00  0.00     0.189 C 
BRANCH  29  30
HETATM   30  C22 UNK     1      31.832  -6.651  32.656  1.00  0.00     0.100 C 
BRANCH  30  31
HETATM   31  S1  UNK     1      32.071  -7.658  31.161  1.00  0.00    -0.167 SA
BRANCH  31  32
HETATM   32  C24 UNK     1      31.191  -6.598  29.991  1.00  0.00     0.069 C 
HETATM   33  C25 UNK     1      31.061  -7.285  28.645  1.00  0.00     0.016 C 
ENDBRANCH  31  32
ENDBRANCH  30  31
ENDBRANCH  29  30
ENDBRANCH  28  29
ENDBRANCH  26  28
ENDBRANCH   8  26
TORSDOF 7
ENDMDL
MODEL 5
REMARK VINA RESULT:      -7.7      1.645      2.537
REMARK  7 active torsions:
REMARK  status: ('A' for Active; 'I' for Inactive)
REMARK    1  A    between atoms: C22_29  and  S1_1 
REMARK    2  A    between atoms: C24_31  and  S1_1 
REMARK    3  A    between atoms: C12_19  and  O3_4 
REMARK    4  A    between atoms: C20_27  and  O3_4 
REMARK    5  A    between atoms: C1_8  and  C10_17 
REMARK    6  A    between atoms: C12_19  and  C6_13 
REMARK    7  A    between atoms: C20_27  and  C22_29 
ROOT
HETATM    1  O1  UNK     1      29.047  -5.453  32.229  1.00  0.00    -0.293 OA
HETATM    2  N1  UNK     1      29.063 -10.122  31.433  1.00  0.00    -0.362 N 
HETATM    3  C1  UNK     1      30.012  -8.030  33.096  1.00  0.00     0.104 C 
HETATM    4  C2  UNK     1      29.031  -7.811  31.950  1.00  0.00     0.024 C 
HETATM    5  C3  UNK     1      28.590  -8.845  31.202  1.00  0.00     0.020 C 
HETATM    6  C4  UNK     1      27.584  -8.693  30.092  1.00  0.00     0.058 C 
HETATM    7  C5  UNK     1      26.764  -7.416  30.229  1.00  0.00     0.014 C 
HETATM    8  C6  UNK     1      30.553  -9.462  33.150  1.00  0.00     0.052 C 
HETATM    9  C7  UNK     1      27.667  -6.214  30.436  1.00  0.00     0.084 C 
HETATM   10  C8  UNK     1      28.601  -6.418  31.610  1.00  0.00     0.158 C 
HETATM   11  C9  UNK     1      30.058 -10.433  32.346  1.00  0.00     0.018 C 
HETATM   12  C13 UNK     1      30.505 -11.870  32.310  1.00  0.00     0.069 C 
HETATM   13  H8  UNK     1      28.715 -10.869  30.842  1.00  0.00     0.165 HD
ENDROOT
BRANCH   3  14
HETATM   14  C10 UNK     1      29.365  -7.670  34.407  1.00  0.00     0.029 A 
HETATM   15  C14 UNK     1      28.272  -8.274  34.889  1.00  0.00     0.154 A 
HETATM   16  O2  UNK     1      27.634  -7.994  36.074  1.00  0.00    -0.321 OA
HETATM   17  C16 UNK     1      28.158  -6.999  36.858  1.00  0.00     0.089 A 
HETATM   18  C15 UNK     1      29.296  -6.275  36.497  1.00  0.00     0.049 A 
HETATM   19  C18 UNK     1      27.506  -6.722  38.060  1.00  0.00     0.039 A 
HETATM   20  C11 UNK     1      29.968  -6.585  35.222  1.00  0.00     0.194 A 
HETATM   21  C17 UNK     1      29.785  -5.270  37.335  1.00  0.00     0.025 A 
HETATM   22  O4  UNK     1      30.968  -5.979  34.861  1.00  0.00    -0.287 OA
HETATM   23  C19 UNK     1      29.130  -4.994  38.536  1.00  0.00    -0.061 A 
HETATM   24  C21 UNK     1      27.994  -5.718  38.898  1.00  0.00     0.009 A 
HETATM   25  C23 UNK     1      29.647  -3.923  39.436  1.00  0.00     0.048 C 
ENDBRANCH   3  14
BRANCH   8  26
HETATM   26  C12 UNK     1      31.641  -9.707  34.111  1.00  0.00     0.292 C 
HETATM   27  O5  UNK     1      31.531 -10.445  35.073  1.00  0.00    -0.259 OA
BRANCH  26  28
HETATM   28  O3  UNK     1      32.721  -8.986  33.725  1.00  0.00    -0.317 OA
BRANCH  28  29
HETATM   29  C20 UNK     1      33.514  -9.585  32.696  1.00  0.00     0.189 C 
BRANCH  29  30
HETATM   30  C22 UNK     1      33.810  -8.566  31.605  1.00  0.00     0.100 C 
BRANCH  30  31
HETATM   31  S1  UNK     1      32.817  -8.882  30.115  1.00  0.00    -0.167 SA
BRANCH  31  32
HETATM   32  C24 UNK     1      32.102  -7.233  29.927  1.00  0.00     0.069 C 
HETATM   33  C25 UNK     1      31.040  -7.233  28.843  1.00  0.00     0.016 C 
ENDBRANCH  31  32
ENDBRANCH  30  31
ENDBRANCH  29  30
ENDBRANCH  28  29
ENDBRANCH  26  28
ENDBRANCH   8  26
TORSDOF 7
ENDMDL
MODEL 6
REMARK VINA RESULT:      -7.6      2.289      6.104
REMARK  7 active torsions:
REMARK  status: ('A' for Active; 'I' for Inactive)
REMARK    1  A    between atoms: C22_29  and  S1_1 
REMARK    2  A    between atoms: C24_31  and  S1_1 
REMARK    3  A    between atoms: C12_19  and  O3_4 
REMARK    4  A    between atoms: C20_27  and  O3_4 
REMARK    5  A    between atoms: C1_8  and  C10_17 
REMARK    6  A    between atoms: C12_19  and  C6_13 
REMARK    7  A    between atoms: C20_27  and  C22_29 
ROOT
HETATM    1  O1  UNK     1      27.369 -10.093  36.362  1.00  0.00    -0.293 OA
HETATM    2  N1  UNK     1      29.883  -6.669  38.458  1.00  0.00    -0.362 N 
HETATM    3  C1  UNK     1      29.671  -8.363  36.192  1.00  0.00     0.104 C 
HETATM    4  C2  UNK     1      28.630  -8.316  37.305  1.00  0.00     0.024 C 
HETATM    5  C3  UNK     1      28.765  -7.474  38.351  1.00  0.00     0.020 C 
HETATM    6  C4  UNK     1      27.744  -7.351  39.450  1.00  0.00     0.058 C 
HETATM    7  C5  UNK     1      26.373  -7.858  39.022  1.00  0.00     0.014 C 
HETATM    8  C6  UNK     1      30.914  -7.525  36.506  1.00  0.00     0.052 C 
HETATM    9  C7  UNK     1      26.477  -9.242  38.405  1.00  0.00     0.084 C 
HETATM   10  C8  UNK     1      27.474  -9.265  37.266  1.00  0.00     0.158 C 
HETATM   11  C9  UNK     1      30.965  -6.718  37.592  1.00  0.00     0.018 C 
HETATM   12  C13 UNK     1      32.125  -5.850  38.001  1.00  0.00     0.069 C 
HETATM   13  H8  UNK     1      29.951  -6.060  39.264  1.00  0.00     0.165 HD
ENDROOT
BRANCH   3  14
HETATM   14  C10 UNK     1      29.059  -7.916  34.891  1.00  0.00     0.029 A 
HETATM   15  C14 UNK     1      28.457  -6.733  34.718  1.00  0.00     0.154 A 
HETATM   16  O2  UNK     1      27.881  -6.266  33.562  1.00  0.00    -0.321 OA
HETATM   17  C16 UNK     1      27.918  -7.080  32.459  1.00  0.00     0.089 A 
HETATM   18  C15 UNK     1      28.510  -8.344  32.476  1.00  0.00     0.049 A 
HETATM   19  C18 UNK     1      27.332  -6.599  31.288  1.00  0.00     0.039 A 
HETATM   20  C11 UNK     1      29.123  -8.833  33.725  1.00  0.00     0.194 A 
HETATM   21  C17 UNK     1      28.517  -9.132  31.322  1.00  0.00     0.025 A 
HETATM   22  O4  UNK     1      29.655  -9.933  33.790  1.00  0.00    -0.287 OA
HETATM   23  C19 UNK     1      27.930  -8.648  30.153  1.00  0.00    -0.061 A 
HETATM   24  C21 UNK     1      27.339  -7.385  30.136  1.00  0.00     0.009 A 
HETATM   25  C23 UNK     1      27.933  -9.484  28.917  1.00  0.00     0.048 C 
ENDBRANCH   3  14
BRANCH   8  26
HETATM   26  C12 UNK     1      32.041  -7.663  35.569  1.00  0.00     0.292 C 
HETATM   27  O5  UNK     1      32.803  -8.612  35.573  1.00  0.00    -0.259 OA
BRANCH  26  28
HETATM   28  O3  UNK     1      32.051  -6.583  34.751  1.00  0.00    -0.317 OA
BRANCH  28  29
HETATM   29  C20 UNK     1      33.317  -6.287  34.153  1.00  0.00     0.189 C 
BRANCH  29  30
HETATM   30  C22 UNK     1      34.037  -5.215  34.958  1.00  0.00     0.100 C 
BRANCH  30  31
HETATM   31  S1  UNK     1      35.461  -5.904  35.856  1.00  0.00    -0.167 SA
BRANCH  31  32
HETATM   32  C24 UNK     1      35.853  -7.255  34.721  1.00  0.00     0.069 C 
HETATM   33  C25 UNK     1      37.345  -7.307  34.452  1.00  0.00     0.016 C 
ENDBRANCH  31  32
ENDBRANCH  30  31
ENDBRANCH  29  30
ENDBRANCH  28  29
ENDBRANCH  26  28
ENDBRANCH   8  26
TORSDOF 7
ENDMDL
MODEL 7
REMARK VINA RESULT:      -7.6      2.319      6.285
REMARK  7 active torsions:
REMARK  status: ('A' for Active; 'I' for Inactive)
REMARK    1  A    between atoms: C22_29  and  S1_1 
REMARK    2  A    between atoms: C24_31  and  S1_1 
REMARK    3  A    between atoms: C12_19  and  O3_4 
REMARK    4  A    between atoms: C20_27  and  O3_4 
REMARK    5  A    between atoms: C1_8  and  C10_17 
REMARK    6  A    between atoms: C12_19  and  C6_13 
REMARK    7  A    between atoms: C20_27  and  C22_29 
ROOT
HETATM    1  O1  UNK     1      28.767  -9.666  36.349  1.00  0.00    -0.293 OA
HETATM    2  N1  UNK     1      30.340  -5.448  37.822  1.00  0.00    -0.362 N 
HETATM    3  C1  UNK     1      30.383  -7.360  35.726  1.00  0.00     0.104 C 
HETATM    4  C2  UNK     1      29.524  -7.505  36.978  1.00  0.00     0.024 C 
HETATM    5  C3  UNK     1      29.520  -6.555  37.936  1.00  0.00     0.020 C 
HETATM    6  C4  UNK     1      28.655  -6.624  39.166  1.00  0.00     0.058 C 
HETATM    7  C5  UNK     1      27.466  -7.558  38.981  1.00  0.00     0.014 C 
HETATM    8  C6  UNK     1      31.336  -6.162  35.796  1.00  0.00     0.052 C 
HETATM    9  C7  UNK     1      27.915  -8.905  38.445  1.00  0.00     0.084 C 
HETATM   10  C8  UNK     1      28.721  -8.754  37.173  1.00  0.00     0.158 C 
HETATM   11  C9  UNK     1      31.269  -5.266  36.809  1.00  0.00     0.018 C 
HETATM   12  C13 UNK     1      32.145  -4.054  36.983  1.00  0.00     0.069 C 
HETATM   13  H8  UNK     1      30.316  -4.764  38.569  1.00  0.00     0.165 HD
ENDROOT
BRANCH   3  14
HETATM   14  C10 UNK     1      29.507  -7.256  34.506  1.00  0.00     0.029 A 
HETATM   15  C14 UNK     1      28.544  -6.337  34.356  1.00  0.00     0.154 A 
HETATM   16  O2  UNK     1      27.714  -6.188  33.272  1.00  0.00    -0.321 OA
HETATM   17  C16 UNK     1      27.873  -7.059  32.225  1.00  0.00     0.089 A 
HETATM   18  C15 UNK     1      28.833  -8.072  32.227  1.00  0.00     0.049 A 
HETATM   19  C18 UNK     1      27.026  -6.901  31.127  1.00  0.00     0.039 A 
HETATM   20  C11 UNK     1      29.716  -8.221  33.398  1.00  0.00     0.194 A 
HETATM   21  C17 UNK     1      28.949  -8.932  31.132  1.00  0.00     0.025 A 
HETATM   22  O4  UNK     1      30.573  -9.093  33.448  1.00  0.00    -0.287 OA
HETATM   23  C19 UNK     1      28.101  -8.773  30.036  1.00  0.00    -0.061 A 
HETATM   24  C21 UNK     1      27.142  -7.759  30.033  1.00  0.00     0.009 A 
HETATM   25  C23 UNK     1      28.219  -9.687  28.863  1.00  0.00     0.048 C 
ENDBRANCH   3  14
BRANCH   8  26
HETATM   26  C12 UNK     1      32.326  -6.059  34.711  1.00  0.00     0.292 C 
HETATM   27  O5  UNK     1      32.300  -5.187  33.863  1.00  0.00    -0.259 OA
BRANCH  26  28
HETATM   28  O3  UNK     1      33.214  -7.072  34.847  1.00  0.00    -0.317 OA
BRANCH  28  29
HETATM   29  C20 UNK     1      34.306  -6.807  35.732  1.00  0.00     0.189 C 
BRANCH  29  30
HETATM   30  C22 UNK     1      35.457  -6.171  34.967  1.00  0.00     0.100 C 
BRANCH  30  31
HETATM   31  S1  UNK     1      36.768  -7.381  34.614  1.00  0.00    -0.167 SA
BRANCH  31  32
HETATM   32  C24 UNK     1      36.468  -7.579  32.843  1.00  0.00     0.069 C 
HETATM   33  C25 UNK     1      35.804  -6.340  32.274  1.00  0.00     0.016 C 
ENDBRANCH  31  32
ENDBRANCH  30  31
ENDBRANCH  29  30
ENDBRANCH  28  29
ENDBRANCH  26  28
ENDBRANCH   8  26
TORSDOF 7
ENDMDL
MODEL 8
REMARK VINA RESULT:      -7.4      2.261      6.028
REMARK  7 active torsions:
REMARK  status: ('A' for Active; 'I' for Inactive)
REMARK    1  A    between atoms: C22_29  and  S1_1 
REMARK    2  A    between atoms: C24_31  and  S1_1 
REMARK    3  A    between atoms: C12_19  and  O3_4 
REMARK    4  A    between atoms: C20_27  and  O3_4 
REMARK    5  A    between atoms: C1_8  and  C10_17 
REMARK    6  A    between atoms: C12_19  and  C6_13 
REMARK    7  A    between atoms: C20_27  and  C22_29 
ROOT
HETATM    1  O1  UNK     1      31.793  -5.098  33.915  1.00  0.00    -0.293 OA
HETATM    2  N1  UNK     1      32.621  -8.701  36.876  1.00  0.00    -0.362 N 
HETATM    3  C1  UNK     1      30.639  -7.226  35.483  1.00  0.00     0.104 C 
HETATM    4  C2  UNK     1      32.134  -6.974  35.330  1.00  0.00     0.024 C 
HETATM    5  C3  UNK     1      33.039  -7.721  35.997  1.00  0.00     0.020 C 
HETATM    6  C4  UNK     1      34.527  -7.548  35.845  1.00  0.00     0.058 C 
HETATM    7  C5  UNK     1      34.895  -6.843  34.545  1.00  0.00     0.014 C 
HETATM    8  C6  UNK     1      30.317  -8.242  36.584  1.00  0.00     0.052 C 
HETATM    9  C7  UNK     1      34.088  -5.569  34.374  1.00  0.00     0.084 C 
HETATM   10  C8  UNK     1      32.602  -5.838  34.474  1.00  0.00     0.158 C 
HETATM   11  C9  UNK     1      31.296  -8.935  37.211  1.00  0.00     0.018 C 
HETATM   12  C13 UNK     1      31.104  -9.956  38.301  1.00  0.00     0.069 C 
HETATM   13  H8  UNK     1      33.332  -9.231  37.365  1.00  0.00     0.165 HD
ENDROOT
BRANCH   3  14
HETATM   14  C10 UNK     1      30.053  -7.679  34.172  1.00  0.00     0.029 A 
HETATM   15  C14 UNK     1      30.472  -8.759  33.501  1.00  0.00     0.154 A 
HETATM   16  O2  UNK     1      29.982  -9.225  32.305  1.00  0.00    -0.321 OA
HETATM   17  C16 UNK     1      28.956  -8.526  31.723  1.00  0.00     0.089 A 
HETATM   18  C15 UNK     1      28.406  -7.378  32.297  1.00  0.00     0.049 A 
HETATM   19  C18 UNK     1      28.463  -9.006  30.510  1.00  0.00     0.039 A 
HETATM   20  C11 UNK     1      28.943  -6.889  33.580  1.00  0.00     0.194 A 
HETATM   21  C17 UNK     1      27.361  -6.705  31.658  1.00  0.00     0.025 A 
HETATM   22  O4  UNK     1      28.495  -5.889  34.123  1.00  0.00    -0.287 OA
HETATM   23  C19 UNK     1      26.871  -7.186  30.444  1.00  0.00    -0.061 A 
HETATM   24  C21 UNK     1      27.420  -8.334  29.871  1.00  0.00     0.009 A 
HETATM   25  C23 UNK     1      25.756  -6.473  29.756  1.00  0.00     0.048 C 
ENDBRANCH   3  14
BRANCH   8  26
HETATM   26  C12 UNK     1      28.893  -8.403  36.919  1.00  0.00     0.292 C 
HETATM   27  O5  UNK     1      28.323  -9.479  36.919  1.00  0.00    -0.259 OA
BRANCH  26  28
HETATM   28  O3  UNK     1      28.382  -7.183  37.209  1.00  0.00    -0.317 OA
BRANCH  28  29
HETATM   29  C20 UNK     1      28.670  -6.702  38.525  1.00  0.00     0.189 C 
BRANCH  29  30
HETATM   30  C22 UNK     1      28.221  -5.255  38.662  1.00  0.00     0.100 C 
BRANCH  30  31
HETATM   31  S1  UNK     1      29.591  -4.182  39.194  1.00  0.00    -0.167 SA
BRANCH  31  32
HETATM   32  C24 UNK     1      30.756  -4.576  37.871  1.00  0.00     0.069 C 
HETATM   33  C25 UNK     1      32.050  -5.120  38.446  1.00  0.00     0.016 C 
ENDBRANCH  31  32
ENDBRANCH  30  31
ENDBRANCH  29  30
ENDBRANCH  28  29
ENDBRANCH  26  28
ENDBRANCH   8  26
TORSDOF 7
ENDMDL
MODEL 9
REMARK VINA RESULT:      -7.2      2.742      6.540
REMARK  7 active torsions:
REMARK  status: ('A' for Active; 'I' for Inactive)
REMARK    1  A    between atoms: C22_29  and  S1_1 
REMARK    2  A    between atoms: C24_31  and  S1_1 
REMARK    3  A    between atoms: C12_19  and  O3_4 
REMARK    4  A    between atoms: C20_27  and  O3_4 
REMARK    5  A    between atoms: C1_8  and  C10_17 
REMARK    6  A    between atoms: C12_19  and  C6_13 
REMARK    7  A    between atoms: C20_27  and  C22_29 
ROOT
HETATM    1  O1  UNK     1      29.112  -8.046  36.655  1.00  0.00    -0.293 OA
HETATM    2  N1  UNK     1      33.048  -5.460  37.166  1.00  0.00    -0.362 N 
HETATM    3  C1  UNK     1      31.696  -7.372  35.564  1.00  0.00     0.104 C 
HETATM    4  C2  UNK     1      31.075  -6.717  36.793  1.00  0.00     0.024 C 
HETATM    5  C3  UNK     1      31.751  -5.794  37.508  1.00  0.00     0.020 C 
HETATM    6  C4  UNK     1      31.168  -5.080  38.699  1.00  0.00     0.058 C 
HETATM    7  C5  UNK     1      29.645  -5.115  38.701  1.00  0.00     0.014 C 
HETATM    8  C6  UNK     1      33.174  -7.013  35.383  1.00  0.00     0.052 C 
HETATM    9  C7  UNK     1      29.137  -6.531  38.499  1.00  0.00     0.084 C 
HETATM   10  C8  UNK     1      29.717  -7.153  37.248  1.00  0.00     0.158 C 
HETATM   11  C9  UNK     1      33.774  -6.082  36.162  1.00  0.00     0.018 C 
HETATM   12  C13 UNK     1      35.213  -5.646  36.077  1.00  0.00     0.069 C 
HETATM   13  H8  UNK     1      33.524  -4.771  37.736  1.00  0.00     0.165 HD
ENDROOT
BRANCH   3  14
HETATM   14  C10 UNK     1      30.917  -7.001  34.330  1.00  0.00     0.029 A 
HETATM   15  C14 UNK     1      30.674  -5.739  33.953  1.00  0.00     0.154 A 
HETATM   16  O2  UNK     1      29.974  -5.334  32.843  1.00  0.00    -0.321 OA
HETATM   17  C16 UNK     1      29.464  -6.308  32.023  1.00  0.00     0.089 A 
HETATM   18  C15 UNK     1      29.631  -7.670  32.277  1.00  0.00     0.049 A 
HETATM   19  C18 UNK     1      28.755  -5.889  30.897  1.00  0.00     0.039 A 
HETATM   20  C11 UNK     1      30.384  -8.090  33.473  1.00  0.00     0.194 A 
HETATM   21  C17 UNK     1      29.089  -8.619  31.406  1.00  0.00     0.025 A 
HETATM   22  O4  UNK     1      30.559  -9.271  33.739  1.00  0.00    -0.287 OA
HETATM   23  C19 UNK     1      28.379  -8.197  30.282  1.00  0.00    -0.061 A 
HETATM   24  C21 UNK     1      28.213  -6.836  30.027  1.00  0.00     0.009 A 
HETATM   25  C23 UNK     1      27.797  -9.204  29.348  1.00  0.00     0.048 C 
ENDBRANCH   3  14
BRANCH   8  26
HETATM   26  C12 UNK     1      33.894  -7.747  34.329  1.00  0.00     0.292 C 
HETATM   27  O5  UNK     1      34.207  -8.919  34.425  1.00  0.00    -0.259 OA
BRANCH  26  28
HETATM   28  O3  UNK     1      34.118  -6.900  33.296  1.00  0.00    -0.317 OA
BRANCH  28  29
HETATM   29  C20 UNK     1      33.742  -7.399  32.009  1.00  0.00     0.189 C 
BRANCH  29  30
HETATM   30  C22 UNK     1      34.927  -7.336  31.058  1.00  0.00     0.100 C 
BRANCH  30  31
HETATM   31  S1  UNK     1      34.383  -7.272  29.323  1.00  0.00    -0.167 SA
BRANCH  31  32
HETATM   32  C24 UNK     1      32.707  -7.905  29.554  1.00  0.00     0.069 C 
HETATM   33  C25 UNK     1      31.692  -6.959  28.942  1.00  0.00     0.016 C 
ENDBRANCH  31  32
ENDBRANCH  30  31
ENDBRANCH  29  30
ENDBRANCH  28  29
ENDBRANCH  26  28
ENDBRANCH   8  26
TORSDOF 7
ENDMDL
MODEL 10
REMARK VINA RESULT:      -7.2      2.807      6.623
REMARK  7 active torsions:
REMARK  status: ('A' for Active; 'I' for Inactive)
REMARK    1  A    between atoms: C22_29  and  S1_1 
REMARK    2  A    between atoms: C24_31  and  S1_1 
REMARK    3  A    between atoms: C12_19  and  O3_4 
REMARK    4  A    between atoms: C20_27  and  O3_4 
REMARK    5  A    between atoms: C1_8  and  C10_17 
REMARK    6  A    between atoms: C12_19  and  C6_13 
REMARK    7  A    between atoms: C20_27  and  C22_29 
ROOT
HETATM    1  O1  UNK     1      29.759  -7.836  36.659  1.00  0.00    -0.293 OA
HETATM    2  N1  UNK     1      34.095  -5.933  36.575  1.00  0.00    -0.362 N 
HETATM    3  C1  UNK     1      32.255  -7.621  35.230  1.00  0.00     0.104 C 
HETATM    4  C2  UNK     1      31.913  -6.850  36.500  1.00  0.00     0.024 C 
HETATM    5  C3  UNK     1      32.817  -6.040  37.089  1.00  0.00     0.020 C 
HETATM    6  C4  UNK     1      32.517  -5.218  38.314  1.00  0.00     0.058 C 
HETATM    7  C5  UNK     1      31.021  -4.998  38.507  1.00  0.00     0.014 C 
HETATM    8  C6  UNK     1      33.736  -7.517  34.853  1.00  0.00     0.052 C 
HETATM    9  C7  UNK     1      30.268  -6.314  38.425  1.00  0.00     0.084 C 
HETATM   10  C8  UNK     1      30.573  -7.046  37.137  1.00  0.00     0.158 C 
HETATM   11  C9  UNK     1      34.575  -6.685  35.514  1.00  0.00     0.018 C 
HETATM   12  C13 UNK     1      36.042  -6.496  35.234  1.00  0.00     0.069 C 
HETATM   13  H8  UNK     1      34.747  -5.323  37.054  1.00  0.00     0.165 HD
ENDROOT
BRANCH   3  14
HETATM   14  C10 UNK     1      31.394  -7.148  34.089  1.00  0.00     0.029 A 
HETATM   15  C14 UNK     1      31.291  -5.866  33.715  1.00  0.00     0.154 A 
HETATM   16  O2  UNK     1      30.527  -5.370  32.687  1.00  0.00    -0.321 OA
HETATM   17  C16 UNK     1      29.788  -6.264  31.955  1.00  0.00     0.089 A 
HETATM   18  C15 UNK     1      29.788  -7.635  32.217  1.00  0.00     0.049 A 
HETATM   19  C18 UNK     1      29.016  -5.753  30.911  1.00  0.00     0.039 A 
HETATM   20  C11 UNK     1      30.612  -8.153  33.325  1.00  0.00     0.194 A 
HETATM   21  C17 UNK     1      29.015  -8.500  31.439  1.00  0.00     0.025 A 
HETATM   22  O4  UNK     1      30.647  -9.346  33.595  1.00  0.00    -0.287 OA
HETATM   23  C19 UNK     1      28.243  -7.986  30.397  1.00  0.00    -0.061 A 
HETATM   24  C21 UNK     1      28.243  -6.616  30.133  1.00  0.00     0.009 A 
HETATM   25  C23 UNK     1      27.414  -8.903  29.562  1.00  0.00     0.048 C 
ENDBRANCH   3  14
BRANCH   8  26
HETATM   26  C12 UNK     1      34.184  -8.380  33.747  1.00  0.00     0.292 C 
HETATM   27  O5  UNK     1      34.470  -9.554  33.888  1.00  0.00    -0.259 OA
BRANCH  26  28
HETATM   28  O3  UNK     1      34.209  -7.640  32.612  1.00  0.00    -0.317 OA
BRANCH  28  29
HETATM   29  C20 UNK     1      34.166  -8.393  31.396  1.00  0.00     0.189 C 
BRANCH  29  30
HETATM   30  C22 UNK     1      34.244  -7.457  30.199  1.00  0.00     0.100 C 
BRANCH  30  31
HETATM   31  S1  UNK     1      32.600  -7.161  29.479  1.00  0.00    -0.167 SA
BRANCH  31  32
HETATM   32  C24 UNK     1      32.102  -8.884  29.257  1.00  0.00     0.069 C 
HETATM   33  C25 UNK     1      30.999  -8.990  28.221  1.00  0.00     0.016 C 
ENDBRANCH  31  32
ENDBRANCH  30  31
ENDBRANCH  29  30
ENDBRANCH  28  29
ENDBRANCH  26  28
ENDBRANCH   8  26
TORSDOF 7
ENDMDL
