MODEL 1
REMARK VINA RESULT:      -8.9      0.000      0.000
REMARK  5 active torsions:
REMARK  status: ('A' for Active; 'I' for Inactive)
REMARK    1  A    between atoms: C2_10  and  N1_6 
REMARK    2  A    between atoms: C3_11  and  N1_6 
REMARK       I    between atoms: C5_13  and  N1_6 
REMARK       I    between atoms: C12_20  and  N2_7 
REMARK    3  A    between atoms: C7_15  and  N2_7 
REMARK    4  A    between atoms: C1_9  and  C5_13 
REMARK    5  A    between atoms: C11_19  and  C12_20 
ROOT
HETATM    1  S1  UNK     1      16.814   6.061  33.826  1.00  0.00    -0.065 SA
HETATM    2  N3  UNK     1      21.765   6.534  32.734  1.00  0.00    -0.191 NA
HETATM    3  C1  UNK     1      17.274   7.690  34.083  1.00  0.00     0.082 A 
HETATM    4  C4  UNK     1      18.607   7.901  33.809  1.00  0.00    -0.016 A 
HETATM    5  C6  UNK     1      19.260   6.709  33.381  1.00  0.00     0.086 A 
HETATM    6  C7  UNK     1      18.393   5.678  33.357  1.00  0.00     0.099 A 
HETATM    7  C10 UNK     1      19.279   9.219  33.944  1.00  0.00     0.051 C 
HETATM    8  C18 UNK     1      20.642   6.613  33.025  1.00  0.00     0.103 C 
ENDROOT
BRANCH   6   9
HETATM    9  N2  UNK     1      18.600   4.322  33.001  1.00  0.00    -0.316 N 
HETATM   10  C12 UNK     1      18.030   3.629  31.942  1.00  0.00     0.262 C 
HETATM   11  O3  UNK     1      17.234   4.046  31.102  1.00  0.00    -0.267 OA
HETATM   12  H14 UNK     1      19.263   3.842  33.604  1.00  0.00     0.170 HD
BRANCH  10  13
HETATM   13  C11 UNK     1      18.484   2.235  31.885  1.00  0.00     0.108 A 
HETATM   14  C14 UNK     1      19.025   1.836  30.728  1.00  0.00     0.037 A 
HETATM   15  C13 UNK     1      19.503   0.471  30.575  1.00  0.00    -0.001 A 
HETATM   16  C15 UNK     1      19.389  -0.408  31.647  1.00  0.00     0.089 A 
HETATM   17  C17 UNK     1      20.075   0.011  29.385  1.00  0.00     0.014 A 
HETATM   18  O2  UNK     1      18.820   0.018  32.863  1.00  0.00    -0.274 OA
HETATM   19  C19 UNK     1      19.828  -1.727  31.565  1.00  0.00     0.038 A 
HETATM   20  C16 UNK     1      18.353   1.318  33.040  1.00  0.00     0.304 A 
HETATM   21  O4  UNK     1      17.857   1.679  34.102  1.00  0.00    -0.259 OA
HETATM   22  C21 UNK     1      20.396  -2.178  30.375  1.00  0.00     0.003 A 
HETATM   23  C20 UNK     1      20.519  -1.311  29.288  1.00  0.00     0.001 A 
ENDBRANCH  10  13
ENDBRANCH   6   9
BRANCH   3  24
HETATM   24  C5  UNK     1      16.285   8.618  34.532  1.00  0.00     0.261 C 
HETATM   25  O1  UNK     1      16.316   9.098  35.686  1.00  0.00    -0.267 OA
HETATM   26  N1  UNK     1      15.243   8.995  33.637  1.00  0.00    -0.348 N 
BRANCH  26  27
HETATM   27  C2  UNK     1      14.211   9.938  34.050  1.00  0.00     0.121 C 
HETATM   28  C8  UNK     1      14.037  11.051  33.038  1.00  0.00     0.026 C 
ENDBRANCH  26  27
BRANCH  26  29
HETATM   29  C3  UNK     1      15.134   8.508  32.263  1.00  0.00     0.121 C 
HETATM   30  C9  UNK     1      14.050   7.458  32.130  1.00  0.00     0.026 C 
ENDBRANCH  26  29
ENDBRANCH   3  24
TORSDOF 5
ENDMDL
MODEL 2
REMARK VINA RESULT:      -8.8      1.090      1.781
REMARK  5 active torsions:
REMARK  status: ('A' for Active; 'I' for Inactive)
REMARK    1  A    between atoms: C2_10  and  N1_6 
REMARK    2  A    between atoms: C3_11  and  N1_6 
REMARK       I    between atoms: C5_13  and  N1_6 
REMARK       I    between atoms: C12_20  and  N2_7 
REMARK    3  A    between atoms: C7_15  and  N2_7 
REMARK    4  A    between atoms: C1_9  and  C5_13 
REMARK    5  A    between atoms: C11_19  and  C12_20 
ROOT
HETATM    1  S1  UNK     1      17.055   5.911  33.080  1.00  0.00    -0.065 SA
HETATM    2  N3  UNK     1      22.091   6.457  32.559  1.00  0.00    -0.191 NA
HETATM    3  C1  UNK     1      17.519   7.390  33.806  1.00  0.00     0.082 A 
HETATM    4  C4  UNK     1      18.875   7.613  33.708  1.00  0.00    -0.016 A 
HETATM    5  C6  UNK     1      19.542   6.554  33.025  1.00  0.00     0.086 A 
HETATM    6  C7  UNK     1      18.663   5.603  32.653  1.00  0.00     0.099 A 
HETATM    7  C10 UNK     1      19.555   8.817  34.250  1.00  0.00     0.051 C 
HETATM    8  C18 UNK     1      20.948   6.501  32.769  1.00  0.00     0.103 C 
ENDROOT
BRANCH   6   9
HETATM    9  N2  UNK     1      18.876   4.387  31.959  1.00  0.00    -0.316 N 
HETATM   10  C12 UNK     1      18.355   3.137  32.262  1.00  0.00     0.262 C 
HETATM   11  O3  UNK     1      17.605   2.831  33.188  1.00  0.00    -0.267 OA
HETATM   12  H14 UNK     1      19.472   4.488  31.141  1.00  0.00     0.170 HD
BRANCH  10  13
HETATM   13  C11 UNK     1      18.797   2.108  31.314  1.00  0.00     0.108 A 
HETATM   14  C14 UNK     1      19.172   0.937  31.844  1.00  0.00     0.037 A 
HETATM   15  C13 UNK     1      19.627  -0.144  30.984  1.00  0.00    -0.001 A 
HETATM   16  C15 UNK     1      19.666   0.060  29.608  1.00  0.00     0.089 A 
HETATM   17  C17 UNK     1      20.027  -1.382  31.493  1.00  0.00     0.014 A 
HETATM   18  O2  UNK     1      19.270   1.294  29.057  1.00  0.00    -0.274 OA
HETATM   19  C19 UNK     1      20.093  -0.935  28.731  1.00  0.00     0.038 A 
HETATM   20  C16 UNK     1      18.830   2.348  29.853  1.00  0.00     0.304 A 
HETATM   21  O4  UNK     1      18.490   3.419  29.364  1.00  0.00    -0.259 OA
HETATM   22  C21 UNK     1      20.490  -2.166  29.247  1.00  0.00     0.003 A 
HETATM   23  C20 UNK     1      20.457  -2.390  30.625  1.00  0.00     0.001 A 
ENDBRANCH  10  13
ENDBRANCH   6   9
BRANCH   3  24
HETATM   24  C5  UNK     1      16.511   8.202  34.410  1.00  0.00     0.261 C 
HETATM   25  O1  UNK     1      16.536   8.476  35.629  1.00  0.00    -0.267 OA
HETATM   26  N1  UNK     1      15.457   8.704  33.594  1.00  0.00    -0.348 N 
BRANCH  26  27
HETATM   27  C2  UNK     1      14.404   9.536  34.165  1.00  0.00     0.121 C 
HETATM   28  C8  UNK     1      14.046  10.686  33.247  1.00  0.00     0.026 C 
ENDBRANCH  26  27
BRANCH  26  29
HETATM   29  C3  UNK     1      15.353   8.460  32.157  1.00  0.00     0.121 C 
HETATM   30  C9  UNK     1      14.317   7.399  31.847  1.00  0.00     0.026 C 
ENDBRANCH  26  29
ENDBRANCH   3  24
TORSDOF 5
ENDMDL
MODEL 3
REMARK VINA RESULT:      -8.5      7.349     12.446
REMARK  5 active torsions:
REMARK  status: ('A' for Active; 'I' for Inactive)
REMARK    1  A    between atoms: C2_10  and  N1_6 
REMARK    2  A    between atoms: C3_11  and  N1_6 
REMARK       I    between atoms: C5_13  and  N1_6 
REMARK       I    between atoms: C12_20  and  N2_7 
REMARK    3  A    between atoms: C7_15  and  N2_7 
REMARK    4  A    between atoms: C1_9  and  C5_13 
REMARK    5  A    between atoms: C11_19  and  C12_20 
ROOT
HETATM    1  S1  UNK     1      19.842  -6.440  35.013  1.00  0.00    -0.065 SA
HETATM    2  N3  UNK     1      19.930  -2.620  38.380  1.00  0.00    -0.191 NA
HETATM    3  C1  UNK     1      19.979  -7.104  36.585  1.00  0.00     0.082 A 
HETATM    4  C4  UNK     1      20.009  -6.130  37.558  1.00  0.00    -0.016 A 
HETATM    5  C6  UNK     1      19.919  -4.820  37.005  1.00  0.00     0.086 A 
HETATM    6  C7  UNK     1      19.827  -4.878  35.663  1.00  0.00     0.099 A 
HETATM    7  C10 UNK     1      20.123  -6.417  39.012  1.00  0.00     0.051 C 
HETATM    8  C18 UNK     1      19.925  -3.606  37.764  1.00  0.00     0.103 C 
ENDROOT
BRANCH   6   9
HETATM    9  N2  UNK     1      19.719  -3.835  34.711  1.00  0.00    -0.316 N 
HETATM   10  C12 UNK     1      20.537  -2.721  34.579  1.00  0.00     0.262 C 
HETATM   11  O3  UNK     1      21.517  -2.415  35.256  1.00  0.00    -0.267 OA
HETATM   12  H14 UNK     1      18.951  -3.962  34.056  1.00  0.00     0.170 HD
BRANCH  10  13
HETATM   13  C11 UNK     1      20.117  -1.854  33.472  1.00  0.00     0.108 A 
HETATM   14  C14 UNK     1      20.698  -2.082  32.288  1.00  0.00     0.037 A 
HETATM   15  C13 UNK     1      20.347  -1.274  31.132  1.00  0.00    -0.001 A 
HETATM   16  C15 UNK     1      19.402  -0.263  31.277  1.00  0.00     0.089 A 
HETATM   17  C17 UNK     1      20.929  -1.477  29.877  1.00  0.00     0.014 A 
HETATM   18  O2  UNK     1      18.794  -0.028  32.525  1.00  0.00    -0.274 OA
HETATM   19  C19 UNK     1      19.023   0.546  30.209  1.00  0.00     0.038 A 
HETATM   20  C16 UNK     1      19.108  -0.785  33.651  1.00  0.00     0.304 A 
HETATM   21  O4  UNK     1      18.575  -0.572  34.734  1.00  0.00    -0.259 OA
HETATM   22  C21 UNK     1      19.607   0.337  28.961  1.00  0.00     0.003 A 
HETATM   23  C20 UNK     1      20.558  -0.672  28.796  1.00  0.00     0.001 A 
ENDBRANCH  10  13
ENDBRANCH   6   9
BRANCH   3  24
HETATM   24  C5  UNK     1      20.044  -8.524  36.726  1.00  0.00     0.261 C 
HETATM   25  O1  UNK     1      19.011  -9.227  36.741  1.00  0.00    -0.267 OA
HETATM   26  N1  UNK     1      21.321  -9.142  36.853  1.00  0.00    -0.348 N 
BRANCH  26  27
HETATM   27  C2  UNK     1      21.438 -10.587  37.000  1.00  0.00     0.121 C 
HETATM   28  C8  UNK     1      22.373 -11.177  35.965  1.00  0.00     0.026 C 
ENDBRANCH  26  27
BRANCH  26  29
HETATM   29  C3  UNK     1      22.586  -8.409  36.822  1.00  0.00     0.121 C 
HETATM   30  C9  UNK     1      23.169  -8.250  38.211  1.00  0.00     0.026 C 
ENDBRANCH  26  29
ENDBRANCH   3  24
TORSDOF 5
ENDMDL
MODEL 4
REMARK VINA RESULT:      -8.5     16.761     21.341
REMARK  5 active torsions:
REMARK  status: ('A' for Active; 'I' for Inactive)
REMARK    1  A    between atoms: C2_10  and  N1_6 
REMARK    2  A    between atoms: C3_11  and  N1_6 
REMARK       I    between atoms: C5_13  and  N1_6 
REMARK       I    between atoms: C12_20  and  N2_7 
REMARK    3  A    between atoms: C7_15  and  N2_7 
REMARK    4  A    between atoms: C1_9  and  C5_13 
REMARK    5  A    between atoms: C11_19  and  C12_20 
ROOT
HETATM    1  S1  UNK     1      18.858  -4.140  12.684  1.00  0.00    -0.065 SA
HETATM    2  N3  UNK     1      22.219  -5.347  16.314  1.00  0.00    -0.191 NA
HETATM    3  C1  UNK     1      19.501  -5.689  12.336  1.00  0.00     0.082 A 
HETATM    4  C4  UNK     1      20.423  -6.090  13.277  1.00  0.00    -0.016 A 
HETATM    5  C6  UNK     1      20.605  -5.112  14.298  1.00  0.00     0.086 A 
HETATM    6  C7  UNK     1      19.819  -4.041  14.072  1.00  0.00     0.099 A 
HETATM    7  C10 UNK     1      21.141  -7.390  13.228  1.00  0.00     0.051 C 
HETATM    8  C18 UNK     1      21.496  -5.242  15.410  1.00  0.00     0.103 C 
ENDROOT
BRANCH   6   9
HETATM    9  N2  UNK     1      19.673  -2.845  14.817  1.00  0.00    -0.316 N 
HETATM   10  C12 UNK     1      18.613  -2.482  15.636  1.00  0.00     0.262 C 
HETATM   11  O3  UNK     1      17.590  -3.120  15.881  1.00  0.00    -0.267 OA
HETATM   12  H14 UNK     1      20.466  -2.215  14.729  1.00  0.00     0.170 HD
BRANCH  10  13
HETATM   13  C11 UNK     1      18.814  -1.164  16.249  1.00  0.00     0.108 A 
HETATM   14  C14 UNK     1      18.637  -1.096  17.574  1.00  0.00     0.037 A 
HETATM   15  C13 UNK     1      18.813   0.168  18.272  1.00  0.00    -0.001 A 
HETATM   16  C15 UNK     1      19.165   1.299  17.542  1.00  0.00     0.089 A 
HETATM   17  C17 UNK     1      18.639   0.287  19.654  1.00  0.00     0.014 A 
HETATM   18  O2  UNK     1      19.349   1.220  16.147  1.00  0.00    -0.274 OA
HETATM   19  C19 UNK     1      19.347   2.539  18.150  1.00  0.00     0.038 A 
HETATM   20  C16 UNK     1      19.189   0.025  15.451  1.00  0.00     0.304 A 
HETATM   21  O4  UNK     1      19.349  -0.034  14.237  1.00  0.00    -0.259 OA
HETATM   22  C21 UNK     1      19.173   2.648  19.527  1.00  0.00     0.003 A 
HETATM   23  C20 UNK     1      18.819   1.524  20.278  1.00  0.00     0.001 A 
ENDBRANCH  10  13
ENDBRANCH   6   9
BRANCH   3  24
HETATM   24  C5  UNK     1      19.043  -6.374  11.170  1.00  0.00     0.261 C 
HETATM   25  O1  UNK     1      19.582  -6.201  10.056  1.00  0.00    -0.267 OA
HETATM   26  N1  UNK     1      17.943  -7.272  11.291  1.00  0.00    -0.348 N 
BRANCH  26  27
HETATM   27  C2  UNK     1      17.439  -7.993  10.128  1.00  0.00     0.121 C 
HETATM   28  C8  UNK     1      16.024  -7.577   9.787  1.00  0.00     0.026 C 
ENDBRANCH  26  27
BRANCH  26  29
HETATM   29  C3  UNK     1      17.262  -7.560  12.552  1.00  0.00     0.121 C 
HETATM   30  C9  UNK     1      17.502  -8.987  12.999  1.00  0.00     0.026 C 
ENDBRANCH  26  29
ENDBRANCH   3  24
TORSDOF 5
ENDMDL
MODEL 5
REMARK VINA RESULT:      -8.4     23.255     25.262
REMARK  5 active torsions:
REMARK  status: ('A' for Active; 'I' for Inactive)
REMARK    1  A    between atoms: C2_10  and  N1_6 
REMARK    2  A    between atoms: C3_11  and  N1_6 
REMARK       I    between atoms: C5_13  and  N1_6 
REMARK       I    between atoms: C12_20  and  N2_7 
REMARK    3  A    between atoms: C7_15  and  N2_7 
REMARK    4  A    between atoms: C1_9  and  C5_13 
REMARK    5  A    between atoms: C11_19  and  C12_20 
ROOT
HETATM    1  S1  UNK     1      12.199   5.332   9.997  1.00  0.00    -0.065 SA
HETATM    2  N3  UNK     1       9.581   6.191   5.715  1.00  0.00    -0.191 NA
HETATM    3  C1  UNK     1      13.284   5.905   8.803  1.00  0.00     0.082 A 
HETATM    4  C4  UNK     1      12.649   6.162   7.608  1.00  0.00    -0.016 A 
HETATM    5  C6  UNK     1      11.253   5.885   7.674  1.00  0.00     0.086 A 
HETATM    6  C7  UNK     1      10.917   5.439   8.900  1.00  0.00     0.099 A 
HETATM    7  C10 UNK     1      13.344   6.670   6.397  1.00  0.00     0.051 C 
HETATM    8  C18 UNK     1      10.331   6.054   6.593  1.00  0.00     0.103 C 
ENDROOT
BRANCH   6   9
HETATM    9  N2  UNK     1       9.656   5.047   9.412  1.00  0.00    -0.316 N 
HETATM   10  C12 UNK     1       8.599   5.868   9.782  1.00  0.00     0.262 C 
HETATM   11  O3  UNK     1       8.542   7.096   9.740  1.00  0.00    -0.267 OA
HETATM   12  H14 UNK     1       9.545   4.038   9.485  1.00  0.00     0.170 HD
BRANCH  10  13
HETATM   13  C11 UNK     1       7.447   5.101  10.269  1.00  0.00     0.108 A 
HETATM   14  C14 UNK     1       6.990   5.429  11.484  1.00  0.00     0.037 A 
HETATM   15  C13 UNK     1       5.851   4.725  12.053  1.00  0.00    -0.001 A 
HETATM   16  C15 UNK     1       5.250   3.709  11.316  1.00  0.00     0.089 A 
HETATM   17  C17 UNK     1       5.340   5.034  13.316  1.00  0.00     0.014 A 
HETATM   18  O2  UNK     1       5.736   3.369  10.038  1.00  0.00    -0.274 OA
HETATM   19  C19 UNK     1       4.158   2.996  11.805  1.00  0.00     0.038 A 
HETATM   20  C16 UNK     1       6.823   4.024   9.467  1.00  0.00     0.304 A 
HETATM   21  O4  UNK     1       7.240   3.720   8.355  1.00  0.00    -0.259 OA
HETATM   22  C21 UNK     1       3.654   3.311  13.065  1.00  0.00     0.003 A 
HETATM   23  C20 UNK     1       4.244   4.327  13.819  1.00  0.00     0.001 A 
ENDBRANCH  10  13
ENDBRANCH   6   9
BRANCH   3  24
HETATM   24  C5  UNK     1      14.663   6.052   9.144  1.00  0.00     0.261 C 
HETATM   25  O1  UNK     1      15.452   5.083   9.106  1.00  0.00    -0.267 OA
HETATM   26  N1  UNK     1      15.138   7.336   9.538  1.00  0.00    -0.348 N 
BRANCH  26  27
HETATM   27  C2  UNK     1      16.537   7.535   9.897  1.00  0.00     0.121 C 
HETATM   28  C8  UNK     1      16.701   7.771  11.384  1.00  0.00     0.026 C 
ENDBRANCH  26  27
BRANCH  26  29
HETATM   29  C3  UNK     1      14.300   8.532   9.591  1.00  0.00     0.121 C 
HETATM   30  C9  UNK     1      14.686   9.528   8.516  1.00  0.00     0.026 C 
ENDBRANCH  26  29
ENDBRANCH   3  24
TORSDOF 5
ENDMDL
MODEL 6
REMARK VINA RESULT:      -8.4     12.548     16.235
REMARK  5 active torsions:
REMARK  status: ('A' for Active; 'I' for Inactive)
REMARK    1  A    between atoms: C2_10  and  N1_6 
REMARK    2  A    between atoms: C3_11  and  N1_6 
REMARK       I    between atoms: C5_13  and  N1_6 
REMARK       I    between atoms: C12_20  and  N2_7 
REMARK    3  A    between atoms: C7_15  and  N2_7 
REMARK    4  A    between atoms: C1_9  and  C5_13 
REMARK    5  A    between atoms: C11_19  and  C12_20 
ROOT
HETATM    1  S1  UNK     1      22.119  -8.060  37.487  1.00  0.00    -0.065 SA
HETATM    2  N3  UNK     1      24.277 -12.170  35.396  1.00  0.00    -0.191 NA
HETATM    3  C1  UNK     1      20.882  -9.053  36.842  1.00  0.00     0.082 A 
HETATM    4  C4  UNK     1      21.387 -10.192  36.255  1.00  0.00    -0.016 A 
HETATM    5  C6  UNK     1      22.809 -10.250  36.336  1.00  0.00     0.086 A 
HETATM    6  C7  UNK     1      23.291  -9.164  36.972  1.00  0.00     0.099 A 
HETATM    7  C10 UNK     1      20.544 -11.234  35.614  1.00  0.00     0.051 C 
HETATM    8  C18 UNK     1      23.619 -11.309  35.817  1.00  0.00     0.103 C 
ENDROOT
BRANCH   6   9
HETATM    9  N2  UNK     1      24.627  -8.805  37.276  1.00  0.00    -0.316 N 
HETATM   10  C12 UNK     1      25.115  -8.292  38.470  1.00  0.00     0.262 C 
HETATM   11  O3  UNK     1      24.492  -8.047  39.501  1.00  0.00    -0.267 OA
HETATM   12  H14 UNK     1      25.275  -8.975  36.511  1.00  0.00     0.170 HD
BRANCH  10  13
HETATM   13  C11 UNK     1      26.560  -8.041  38.414  1.00  0.00     0.108 A 
HETATM   14  C14 UNK     1      26.947  -6.772  38.594  1.00  0.00     0.037 A 
HETATM   15  C13 UNK     1      28.358  -6.424  38.556  1.00  0.00    -0.001 A 
HETATM   16  C15 UNK     1      29.294  -7.428  38.330  1.00  0.00     0.089 A 
HETATM   17  C17 UNK     1      28.807  -5.113  38.738  1.00  0.00     0.014 A 
HETATM   18  O2  UNK     1      28.881  -8.762  38.142  1.00  0.00    -0.274 OA
HETATM   19  C19 UNK     1      30.660  -7.161  38.281  1.00  0.00     0.038 A 
HETATM   20  C16 UNK     1      27.538  -9.126  38.173  1.00  0.00     0.304 A 
HETATM   21  O4  UNK     1      27.187 -10.289  38.007  1.00  0.00    -0.259 OA
HETATM   22  C21 UNK     1      31.100  -5.851  38.464  1.00  0.00     0.003 A 
HETATM   23  C20 UNK     1      30.175  -4.830  38.692  1.00  0.00     0.001 A 
ENDBRANCH  10  13
ENDBRANCH   6   9
BRANCH   3  24
HETATM   24  C5  UNK     1      19.525  -8.627  36.969  1.00  0.00     0.261 C 
HETATM   25  O1  UNK     1      18.757  -9.135  37.813  1.00  0.00    -0.267 OA
HETATM   26  N1  UNK     1      19.046  -7.601  36.105  1.00  0.00    -0.348 N 
BRANCH  26  27
HETATM   27  C2  UNK     1      17.668  -7.134  36.195  1.00  0.00     0.121 C 
HETATM   28  C8  UNK     1      16.836  -7.629  35.030  1.00  0.00     0.026 C 
ENDBRANCH  26  27
BRANCH  26  29
HETATM   29  C3  UNK     1      19.872  -6.929  35.102  1.00  0.00     0.121 C 
HETATM   30  C9  UNK     1      20.057  -5.461  35.428  1.00  0.00     0.026 C 
ENDBRANCH  26  29
ENDBRANCH   3  24
TORSDOF 5
ENDMDL
MODEL 7
REMARK VINA RESULT:      -8.2     14.336     17.641
REMARK  5 active torsions:
REMARK  status: ('A' for Active; 'I' for Inactive)
REMARK    1  A    between atoms: C2_10  and  N1_6 
REMARK    2  A    between atoms: C3_11  and  N1_6 
REMARK       I    between atoms: C5_13  and  N1_6 
REMARK       I    between atoms: C12_20  and  N2_7 
REMARK    3  A    between atoms: C7_15  and  N2_7 
REMARK    4  A    between atoms: C1_9  and  C5_13 
REMARK    5  A    between atoms: C11_19  and  C12_20 
ROOT
HETATM    1  S1  UNK     1      29.558  -7.723  36.761  1.00  0.00    -0.065 SA
HETATM    2  N3  UNK     1      29.560  -3.715  39.901  1.00  0.00    -0.191 NA
HETATM    3  C1  UNK     1      31.166  -7.159  36.920  1.00  0.00     0.082 A 
HETATM    4  C4  UNK     1      31.252  -6.070  37.759  1.00  0.00    -0.016 A 
HETATM    5  C6  UNK     1      29.979  -5.693  38.278  1.00  0.00     0.086 A 
HETATM    6  C7  UNK     1      29.016  -6.509  37.807  1.00  0.00     0.099 A 
HETATM    7  C10 UNK     1      32.525  -5.374  38.081  1.00  0.00     0.051 C 
HETATM    8  C18 UNK     1      29.748  -4.602  39.173  1.00  0.00     0.103 C 
ENDROOT
BRANCH   6   9
HETATM    9  N2  UNK     1      27.621  -6.508  38.052  1.00  0.00    -0.316 N 
HETATM   10  C12 UNK     1      26.884  -7.453  38.752  1.00  0.00     0.262 C 
HETATM   11  O3  UNK     1      27.288  -8.478  39.300  1.00  0.00    -0.267 OA
HETATM   12  H14 UNK     1      27.144  -5.695  37.670  1.00  0.00     0.170 HD
BRANCH  10  13
HETATM   13  C11 UNK     1      25.457  -7.116  38.802  1.00  0.00     0.108 A 
HETATM   14  C14 UNK     1      24.603  -8.140  38.684  1.00  0.00     0.037 A 
HETATM   15  C13 UNK     1      23.168  -7.905  38.721  1.00  0.00    -0.001 A 
HETATM   16  C15 UNK     1      22.701  -6.604  38.879  1.00  0.00     0.089 A 
HETATM   17  C17 UNK     1      22.240  -8.943  38.602  1.00  0.00     0.014 A 
HETATM   18  O2  UNK     1      23.605  -5.530  39.002  1.00  0.00    -0.274 OA
HETATM   19  C19 UNK     1      21.340  -6.312  38.921  1.00  0.00     0.038 A 
HETATM   20  C16 UNK     1      24.984  -5.723  38.971  1.00  0.00     0.304 A 
HETATM   21  O4  UNK     1      25.763  -4.782  39.077  1.00  0.00    -0.259 OA
HETATM   22  C21 UNK     1      20.422  -7.353  38.802  1.00  0.00     0.003 A 
HETATM   23  C20 UNK     1      20.871  -8.665  38.643  1.00  0.00     0.001 A 
ENDBRANCH  10  13
ENDBRANCH   6   9
BRANCH   3  24
HETATM   24  C5  UNK     1      32.203  -7.836  36.209  1.00  0.00     0.261 C 
HETATM   25  O1  UNK     1      32.736  -8.873  36.659  1.00  0.00    -0.267 OA
HETATM   26  N1  UNK     1      32.635  -7.305  34.959  1.00  0.00    -0.348 N 
BRANCH  26  27
HETATM   27  C2  UNK     1      33.691  -7.960  34.197  1.00  0.00     0.121 C 
HETATM   28  C8  UNK     1      35.047  -7.352  34.491  1.00  0.00     0.026 C 
ENDBRANCH  26  27
BRANCH  26  29
HETATM   29  C3  UNK     1      32.059  -6.113  34.339  1.00  0.00     0.121 C 
HETATM   30  C9  UNK     1      31.215  -6.468  33.132  1.00  0.00     0.026 C 
ENDBRANCH  26  29
ENDBRANCH   3  24
TORSDOF 5
ENDMDL
MODEL 8
REMARK VINA RESULT:      -8.1     14.227     17.734
REMARK  5 active torsions:
REMARK  status: ('A' for Active; 'I' for Inactive)
REMARK    1  A    between atoms: C2_10  and  N1_6 
REMARK    2  A    between atoms: C3_11  and  N1_6 
REMARK       I    between atoms: C5_13  and  N1_6 
REMARK       I    between atoms: C12_20  and  N2_7 
REMARK    3  A    between atoms: C7_15  and  N2_7 
REMARK    4  A    between atoms: C1_9  and  C5_13 
REMARK    5  A    between atoms: C11_19  and  C12_20 
ROOT
HETATM    1  S1  UNK     1      29.209  -6.866  38.446  1.00  0.00    -0.065 SA
HETATM    2  N3  UNK     1      27.229 -10.276  35.225  1.00  0.00    -0.191 NA
HETATM    3  C1  UNK     1      30.493  -7.655  37.634  1.00  0.00     0.082 A 
HETATM    4  C4  UNK     1      30.037  -8.598  36.739  1.00  0.00    -0.016 A 
HETATM    5  C6  UNK     1      28.615  -8.673  36.721  1.00  0.00     0.086 A 
HETATM    6  C7  UNK     1      28.083  -7.795  37.592  1.00  0.00     0.099 A 
HETATM    7  C10 UNK     1      30.930  -9.434  35.896  1.00  0.00     0.051 C 
HETATM    8  C18 UNK     1      27.850  -9.558  35.896  1.00  0.00     0.103 C 
ENDROOT
BRANCH   6   9
HETATM    9  N2  UNK     1      26.727  -7.527  37.903  1.00  0.00    -0.316 N 
HETATM   10  C12 UNK     1      25.945  -8.138  38.874  1.00  0.00     0.262 C 
HETATM   11  O3  UNK     1      26.267  -9.029  39.658  1.00  0.00    -0.267 OA
HETATM   12  H14 UNK     1      26.322  -6.784  37.340  1.00  0.00     0.170 HD
BRANCH  10  13
HETATM   13  C11 UNK     1      24.581  -7.597  38.907  1.00  0.00     0.108 A 
HETATM   14  C14 UNK     1      23.592  -8.493  39.007  1.00  0.00     0.037 A 
HETATM   15  C13 UNK     1      22.206  -8.053  39.046  1.00  0.00    -0.001 A 
HETATM   16  C15 UNK     1      21.929  -6.691  38.978  1.00  0.00     0.089 A 
HETATM   17  C17 UNK     1      21.141  -8.952  39.151  1.00  0.00     0.014 A 
HETATM   18  O2  UNK     1      22.974  -5.753  38.873  1.00  0.00    -0.274 OA
HETATM   19  C19 UNK     1      20.624  -6.205  39.009  1.00  0.00     0.038 A 
HETATM   20  C16 UNK     1      24.311  -6.143  38.833  1.00  0.00     0.304 A 
HETATM   21  O4  UNK     1      25.214  -5.319  38.739  1.00  0.00    -0.259 OA
HETATM   22  C21 UNK     1      19.568  -7.108  39.114  1.00  0.00     0.003 A 
HETATM   23  C20 UNK     1      19.827  -8.479  39.184  1.00  0.00     0.001 A 
ENDBRANCH  10  13
ENDBRANCH   6   9
BRANCH   3  24
HETATM   24  C5  UNK     1      31.835  -7.278  37.946  1.00  0.00     0.261 C 
HETATM   25  O1  UNK     1      32.534  -7.947  38.737  1.00  0.00    -0.267 OA
HETATM   26  N1  UNK     1      32.378  -6.110  37.338  1.00  0.00    -0.348 N 
BRANCH  26  27
HETATM   27  C2  UNK     1      33.742  -5.685  37.626  1.00  0.00     0.121 C 
HETATM   28  C8  UNK     1      34.721  -6.230  36.607  1.00  0.00     0.026 C 
ENDBRANCH  26  27
BRANCH  26  29
HETATM   29  C3  UNK     1      31.649  -5.276  36.383  1.00  0.00     0.121 C 
HETATM   30  C9  UNK     1      31.277  -3.937  36.986  1.00  0.00     0.026 C 
ENDBRANCH  26  29
ENDBRANCH   3  24
TORSDOF 5
ENDMDL
MODEL 9
REMARK VINA RESULT:      -8.1      5.708      8.937
REMARK  5 active torsions:
REMARK  status: ('A' for Active; 'I' for Inactive)
REMARK    1  A    between atoms: C2_10  and  N1_6 
REMARK    2  A    between atoms: C3_11  and  N1_6 
REMARK       I    between atoms: C5_13  and  N1_6 
REMARK       I    between atoms: C12_20  and  N2_7 
REMARK    3  A    between atoms: C7_15  and  N2_7 
REMARK    4  A    between atoms: C1_9  and  C5_13 
REMARK    5  A    between atoms: C11_19  and  C12_20 
ROOT
HETATM    1  S1  UNK     1      19.008  -1.121  33.048  1.00  0.00    -0.065 SA
HETATM    2  N3  UNK     1      18.262  -0.053  37.970  1.00  0.00    -0.191 NA
HETATM    3  C1  UNK     1      18.576   0.530  33.185  1.00  0.00     0.082 A 
HETATM    4  C4  UNK     1      18.356   0.900  34.494  1.00  0.00    -0.016 A 
HETATM    5  C6  UNK     1      18.545  -0.188  35.396  1.00  0.00     0.086 A 
HETATM    6  C7  UNK     1      18.891  -1.303  34.725  1.00  0.00     0.099 A 
HETATM    7  C10 UNK     1      17.968   2.272  34.910  1.00  0.00     0.051 C 
HETATM    8  C18 UNK     1      18.388  -0.113  36.816  1.00  0.00     0.103 C 
ENDROOT
BRANCH   6   9
HETATM    9  N2  UNK     1      19.174  -2.605  35.207  1.00  0.00    -0.316 N 
HETATM   10  C12 UNK     1      20.312  -3.030  35.879  1.00  0.00     0.262 C 
HETATM   11  O3  UNK     1      21.300  -2.369  36.192  1.00  0.00    -0.267 OA
HETATM   12  H14 UNK     1      18.425  -3.271  35.037  1.00  0.00     0.170 HD
BRANCH  10  13
HETATM   13  C11 UNK     1      20.250  -4.455  36.226  1.00  0.00     0.108 A 
HETATM   14  C14 UNK     1      20.167  -4.743  37.531  1.00  0.00     0.037 A 
HETATM   15  C13 UNK     1      20.101  -6.127  37.972  1.00  0.00    -0.001 A 
HETATM   16  C15 UNK     1      20.126  -7.141  37.020  1.00  0.00     0.089 A 
HETATM   17  C17 UNK     1      20.014  -6.474  39.324  1.00  0.00     0.014 A 
HETATM   18  O2  UNK     1      20.213  -6.831  35.649  1.00  0.00    -0.274 OA
HETATM   19  C19 UNK     1      20.068  -8.486  37.378  1.00  0.00     0.038 A 
HETATM   20  C16 UNK     1      20.277  -5.516  35.194  1.00  0.00     0.304 A 
HETATM   21  O4  UNK     1      20.355  -5.257  33.999  1.00  0.00    -0.259 OA
HETATM   22  C21 UNK     1      19.980  -8.823  38.727  1.00  0.00     0.003 A 
HETATM   23  C20 UNK     1      19.954  -7.819  39.697  1.00  0.00     0.001 A 
ENDBRANCH  10  13
ENDBRANCH   6   9
BRANCH   3  24
HETATM   24  C5  UNK     1      18.492   1.317  31.997  1.00  0.00     0.261 C 
HETATM   25  O1  UNK     1      17.742   2.315  31.926  1.00  0.00    -0.267 OA
HETATM   26  N1  UNK     1      19.283   0.947  30.872  1.00  0.00    -0.348 N 
BRANCH  26  27
HETATM   27  C2  UNK     1      19.229   1.719  29.636  1.00  0.00     0.121 C 
HETATM   28  C8  UNK     1      17.948   1.457  28.873  1.00  0.00     0.026 C 
ENDBRANCH  26  27
BRANCH  26  29
HETATM   29  C3  UNK     1      20.207  -0.186  30.865  1.00  0.00     0.121 C 
HETATM   30  C9  UNK     1      20.733  -0.465  29.472  1.00  0.00     0.026 C 
ENDBRANCH  26  29
ENDBRANCH   3  24
TORSDOF 5
ENDMDL
MODEL 10
REMARK VINA RESULT:      -8.1     17.565     22.237
REMARK  5 active torsions:
REMARK  status: ('A' for Active; 'I' for Inactive)
REMARK    1  A    between atoms: C2_10  and  N1_6 
REMARK    2  A    between atoms: C3_11  and  N1_6 
REMARK       I    between atoms: C5_13  and  N1_6 
REMARK       I    between atoms: C12_20  and  N2_7 
REMARK    3  A    between atoms: C7_15  and  N2_7 
REMARK    4  A    between atoms: C1_9  and  C5_13 
REMARK    5  A    between atoms: C11_19  and  C12_20 
ROOT
HETATM    1  S1  UNK     1      19.025  -4.799  12.231  1.00  0.00    -0.065 SA
HETATM    2  N3  UNK     1      22.239  -5.618  16.094  1.00  0.00    -0.191 NA
HETATM    3  C1  UNK     1      19.688  -6.368  12.061  1.00  0.00     0.082 A 
HETATM    4  C4  UNK     1      20.573  -6.668  13.074  1.00  0.00    -0.016 A 
HETATM    5  C6  UNK     1      20.708  -5.594  14.001  1.00  0.00     0.086 A 
HETATM    6  C7  UNK     1      19.927  -4.557  13.640  1.00  0.00     0.099 A 
HETATM    7  C10 UNK     1      21.299  -7.960  13.181  1.00  0.00     0.051 C 
HETATM    8  C18 UNK     1      21.553  -5.607  15.155  1.00  0.00     0.103 C 
ENDROOT
BRANCH   6   9
HETATM    9  N2  UNK     1      19.745  -3.296  14.260  1.00  0.00    -0.316 N 
HETATM   10  C12 UNK     1      18.767  -2.937  15.178  1.00  0.00     0.262 C 
HETATM   11  O3  UNK     1      17.866  -3.636  15.639  1.00  0.00    -0.267 OA
HETATM   12  H14 UNK     1      20.441  -2.607  13.986  1.00  0.00     0.170 HD
BRANCH  10  13
HETATM   13  C11 UNK     1      18.894  -1.538  15.602  1.00  0.00     0.108 A 
HETATM   14  C14 UNK     1      18.757  -1.304  16.913  1.00  0.00     0.037 A 
HETATM   15  C13 UNK     1      18.866   0.051  17.430  1.00  0.00    -0.001 A 
HETATM   16  C15 UNK     1      19.113   1.094  16.542  1.00  0.00     0.089 A 
HETATM   17  C17 UNK     1      18.730   0.343  18.790  1.00  0.00     0.014 A 
HETATM   18  O2  UNK     1      19.257   0.840  15.164  1.00  0.00    -0.274 OA
HETATM   19  C19 UNK     1      19.227   2.413  16.973  1.00  0.00     0.038 A 
HETATM   20  C16 UNK     1      19.158  -0.445  14.639  1.00  0.00     0.304 A 
HETATM   21  O4  UNK     1      19.283  -0.656  13.438  1.00  0.00    -0.259 OA
HETATM   22  C21 UNK     1      19.091   2.696  18.331  1.00  0.00     0.003 A 
HETATM   23  C20 UNK     1      18.842   1.663  19.237  1.00  0.00     0.001 A 
ENDBRANCH  10  13
ENDBRANCH   6   9
BRANCH   3  24
HETATM   24  C5  UNK     1      19.282  -7.168  10.950  1.00  0.00     0.261 C 
HETATM   25  O1  UNK     1      18.327  -7.969  11.036  1.00  0.00    -0.267 OA
HETATM   26  N1  UNK     1      19.991  -7.043   9.721  1.00  0.00    -0.348 N 
BRANCH  26  27
HETATM   27  C2  UNK     1      19.615  -7.839   8.559  1.00  0.00     0.121 C 
HETATM   28  C8  UNK     1      20.588  -8.975   8.325  1.00  0.00     0.026 C 
ENDBRANCH  26  27
BRANCH  26  29
HETATM   29  C3  UNK     1      21.104  -6.118   9.514  1.00  0.00     0.121 C 
HETATM   30  C9  UNK     1      20.674  -4.897   8.728  1.00  0.00     0.026 C 
ENDBRANCH  26  29
ENDBRANCH   3  24
TORSDOF 5
ENDMDL
