MODEL 1
REMARK VINA RESULT:      -9.4      0.000      0.000
REMARK  6 active torsions:
REMARK  status: ('A' for Active; 'I' for Inactive)
REMARK    1  A    between atoms: C2_8  and  O1_4 
REMARK    2  A    between atoms: C4_10  and  O1_4 
REMARK    3  A    between atoms: C3_9  and  O2_5 
REMARK    4  A    between atoms: C1_7  and  C9_15 
REMARK    5  A    between atoms: C4_10  and  C8_14 
REMARK    6  A    between atoms: C10_16  and  C11_17 
ROOT
HETATM    1  N1  UNK     1      22.126  -1.750  35.321  1.00  0.00    -0.191 NA
HETATM    2  C9  UNK     1      18.782  -2.463  36.062  1.00  0.00     0.036 C 
HETATM    3  C10 UNK     1      20.023  -2.945  36.221  1.00  0.00     0.055 C 
HETATM    4  C23 UNK     1      21.184  -2.291  35.727  1.00  0.00     0.100 C 
ENDROOT
BRANCH   3   5
HETATM    5  C11 UNK     1      20.172  -4.221  36.904  1.00  0.00    -0.015 A 
HETATM    6  C14 UNK     1      19.201  -5.211  36.754  1.00  0.00     0.014 A 
HETATM    7  C19 UNK     1      19.346  -6.433  37.409  1.00  0.00     0.020 A 
HETATM    8  C21 UNK     1      20.460  -6.666  38.215  1.00  0.00     0.011 A 
HETATM    9 Br2  UNK     1      20.655  -8.323  39.102  1.00  0.00    -0.051 Br
HETATM   10  C20 UNK     1      21.431  -5.676  38.365  1.00  0.00     0.020 A 
HETATM   11  C15 UNK     1      21.288  -4.453  37.710  1.00  0.00     0.014 A 
ENDBRANCH   3   5
BRANCH   2  12
HETATM   12  C1  UNK     1      18.446  -1.198  35.394  1.00  0.00    -0.015 A 
HETATM   13  C5  UNK     1      18.664  -1.128  34.024  1.00  0.00     0.052 A 
HETATM   14  C3  UNK     1      18.364   0.049  33.338  1.00  0.00     0.102 A 
HETATM   15  C2  UNK     1      17.846   1.146  34.028  1.00  0.00     0.103 A 
HETATM   16  C7  UNK     1      17.630   1.066  35.403  1.00  0.00     0.059 A 
HETATM   17  C6  UNK     1      17.931  -0.112  36.089  1.00  0.00     0.024 A 
HETATM   18 Br1  UNK     1      17.613  -0.154  37.962  1.00  0.00    -0.050 Br
BRANCH  14  19
HETATM   19  O2  UNK     1      18.578   0.115  31.993  1.00  0.00    -0.353 OA
HETATM   20  C22 UNK     1      19.525  -0.799  31.443  1.00  0.00     0.210 C 
ENDBRANCH  14  19
BRANCH  15  21
HETATM   21  O1  UNK     1      17.549   2.300  33.368  1.00  0.00    -0.344 OA
BRANCH  21  22
HETATM   22  C4  UNK     1      18.182   3.492  33.831  1.00  0.00     0.214 C 
BRANCH  22  23
HETATM   23  C8  UNK     1      18.680   4.272  32.649  1.00  0.00    -0.034 A 
HETATM   24  C12 UNK     1      19.254   5.523  32.844  1.00  0.00     0.012 A 
HETATM   25  C16 UNK     1      19.718   6.248  31.745  1.00  0.00     0.043 A 
HETATM   26  C18 UNK     1      19.606   5.716  30.461  1.00  0.00     0.116 A 
HETATM   27  C17 UNK     1      19.030   4.459  30.274  1.00  0.00     0.043 A 
HETATM   28  F1  UNK     1      20.053   6.411  29.407  1.00  0.00    -0.206 F 
HETATM   29  C13 UNK     1      18.566   3.735  31.372  1.00  0.00     0.012 A 
ENDBRANCH  22  23
ENDBRANCH  21  22
ENDBRANCH  15  21
ENDBRANCH   2  12
TORSDOF 6
ENDMDL
MODEL 2
REMARK VINA RESULT:      -9.2      1.282      1.632
REMARK  6 active torsions:
REMARK  status: ('A' for Active; 'I' for Inactive)
REMARK    1  A    between atoms: C2_8  and  O1_4 
REMARK    2  A    between atoms: C4_10  and  O1_4 
REMARK    3  A    between atoms: C3_9  and  O2_5 
REMARK    4  A    between atoms: C1_7  and  C9_15 
REMARK    5  A    between atoms: C4_10  and  C8_14 
REMARK    6  A    between atoms: C10_16  and  C11_17 
ROOT
HETATM    1  N1  UNK     1      22.101  -1.761  35.350  1.00  0.00    -0.191 NA
HETATM    2  C9  UNK     1      18.670  -2.225  35.857  1.00  0.00     0.036 C 
HETATM    3  C10 UNK     1      19.857  -2.805  36.085  1.00  0.00     0.055 C 
HETATM    4  C23 UNK     1      21.095  -2.235  35.682  1.00  0.00     0.100 C 
ENDROOT
BRANCH   3   5
HETATM    5  C11 UNK     1      19.863  -4.100  36.747  1.00  0.00    -0.015 A 
HETATM    6  C14 UNK     1      20.860  -4.405  37.673  1.00  0.00     0.014 A 
HETATM    7  C19 UNK     1      20.865  -5.648  38.308  1.00  0.00     0.020 A 
HETATM    8  C21 UNK     1      19.874  -6.585  38.016  1.00  0.00     0.011 A 
HETATM    9 Br2  UNK     1      19.881  -8.267  38.876  1.00  0.00    -0.051 Br
HETATM   10  C20 UNK     1      18.877  -6.279  37.088  1.00  0.00     0.020 A 
HETATM   11  C15 UNK     1      18.871  -5.037  36.454  1.00  0.00     0.014 A 
ENDBRANCH   3   5
BRANCH   2  12
HETATM   12  C1  UNK     1      18.477  -0.926  35.197  1.00  0.00    -0.015 A 
HETATM   13  C5  UNK     1      18.690  -0.875  33.825  1.00  0.00     0.052 A 
HETATM   14  C3  UNK     1      18.522   0.333  33.147  1.00  0.00     0.102 A 
HETATM   15  C2  UNK     1      18.141   1.478  33.846  1.00  0.00     0.103 A 
HETATM   16  C7  UNK     1      17.929   1.417  35.223  1.00  0.00     0.059 A 
HETATM   17  C6  UNK     1      18.098   0.209  35.901  1.00  0.00     0.024 A 
HETATM   18 Br1  UNK     1      17.793   0.194  37.776  1.00  0.00    -0.050 Br
BRANCH  14  19
HETATM   19  O2  UNK     1      18.731   0.380  31.801  1.00  0.00    -0.353 OA
HETATM   20  C22 UNK     1      19.817  -0.388  31.287  1.00  0.00     0.210 C 
ENDBRANCH  14  19
BRANCH  15  21
HETATM   21  O1  UNK     1      17.973   2.663  33.194  1.00  0.00    -0.344 OA
BRANCH  21  22
HETATM   22  C4  UNK     1      18.398   3.842  33.874  1.00  0.00     0.214 C 
BRANCH  22  23
HETATM   23  C8  UNK     1      17.989   5.044  33.073  1.00  0.00    -0.034 A 
HETATM   24  C12 UNK     1      17.187   6.018  33.657  1.00  0.00     0.012 A 
HETATM   25  C16 UNK     1      16.807   7.136  32.912  1.00  0.00     0.043 A 
HETATM   26  C18 UNK     1      17.232   7.271  31.591  1.00  0.00     0.116 A 
HETATM   27  C17 UNK     1      18.037   6.289  31.013  1.00  0.00     0.043 A 
HETATM   28  F1  UNK     1      16.868   8.344  30.877  1.00  0.00    -0.206 F 
HETATM   29  C13 UNK     1      18.417   5.172  31.757  1.00  0.00     0.012 A 
ENDBRANCH  22  23
ENDBRANCH  21  22
ENDBRANCH  15  21
ENDBRANCH   2  12
TORSDOF 6
ENDMDL
MODEL 3
REMARK VINA RESULT:      -8.8      5.550     10.329
REMARK  6 active torsions:
REMARK  status: ('A' for Active; 'I' for Inactive)
REMARK    1  A    between atoms: C2_8  and  O1_4 
REMARK    2  A    between atoms: C4_10  and  O1_4 
REMARK    3  A    between atoms: C3_9  and  O2_5 
REMARK    4  A    between atoms: C1_7  and  C9_15 
REMARK    5  A    between atoms: C4_10  and  C8_14 
REMARK    6  A    between atoms: C10_16  and  C11_17 
ROOT
HETATM    1  N1  UNK     1      21.747   6.232  32.707  1.00  0.00    -0.191 NA
HETATM    2  C9  UNK     1      18.257   6.140  32.927  1.00  0.00     0.036 C 
HETATM    3  C10 UNK     1      19.302   6.962  33.097  1.00  0.00     0.055 C 
HETATM    4  C23 UNK     1      20.650   6.565  32.884  1.00  0.00     0.100 C 
ENDROOT
BRANCH   3   5
HETATM    5  C11 UNK     1      19.033   8.316  33.556  1.00  0.00    -0.015 A 
HETATM    6  C14 UNK     1      17.756   8.860  33.415  1.00  0.00     0.014 A 
HETATM    7  C19 UNK     1      17.500  10.158  33.856  1.00  0.00     0.020 A 
HETATM    8  C21 UNK     1      18.518  10.912  34.437  1.00  0.00     0.011 A 
HETATM    9 Br2  UNK     1      18.170  12.671  35.034  1.00  0.00    -0.051 Br
HETATM   10  C20 UNK     1      19.795  10.368  34.577  1.00  0.00     0.020 A 
HETATM   11  C15 UNK     1      20.053   9.070  34.137  1.00  0.00     0.014 A 
ENDBRANCH   3   5
BRANCH   2  12
HETATM   12  C1  UNK     1      18.343   4.743  32.477  1.00  0.00    -0.015 A 
HETATM   13  C5  UNK     1      18.179   3.756  33.440  1.00  0.00     0.052 A 
HETATM   14  C3  UNK     1      18.253   2.413  33.069  1.00  0.00     0.102 A 
HETATM   15  C2  UNK     1      18.489   2.069  31.738  1.00  0.00     0.103 A 
HETATM   16  C7  UNK     1      18.652   3.068  30.778  1.00  0.00     0.059 A 
HETATM   17  C6  UNK     1      18.579   4.411  31.150  1.00  0.00     0.024 A 
HETATM   18 Br1  UNK     1      18.810   5.721  29.793  1.00  0.00    -0.050 Br
BRANCH  14  19
HETATM   19  O2  UNK     1      18.090   1.447  34.016  1.00  0.00    -0.353 OA
HETATM   20  C22 UNK     1      18.159   1.858  35.380  1.00  0.00     0.210 C 
ENDBRANCH  14  19
BRANCH  15  21
HETATM   21  O1  UNK     1      18.562   0.761  31.364  1.00  0.00    -0.344 OA
BRANCH  21  22
HETATM   22  C4  UNK     1      19.596   0.406  30.448  1.00  0.00     0.214 C 
BRANCH  22  23
HETATM   23  C8  UNK     1      20.128  -0.949  30.811  1.00  0.00    -0.034 A 
HETATM   24  C12 UNK     1      20.427  -1.862  29.806  1.00  0.00     0.012 A 
HETATM   25  C16 UNK     1      20.923  -3.122  30.144  1.00  0.00     0.043 A 
HETATM   26  C18 UNK     1      21.116  -3.459  31.484  1.00  0.00     0.116 A 
HETATM   27  C17 UNK     1      20.815  -2.536  32.486  1.00  0.00     0.043 A 
HETATM   28  F1  UNK     1      21.593  -4.668  31.808  1.00  0.00    -0.206 F 
HETATM   29  C13 UNK     1      20.319  -1.278  32.148  1.00  0.00     0.012 A 
ENDBRANCH  22  23
ENDBRANCH  21  22
ENDBRANCH  15  21
ENDBRANCH   2  12
TORSDOF 6
ENDMDL
MODEL 4
REMARK VINA RESULT:      -8.4     26.805     28.593
REMARK  6 active torsions:
REMARK  status: ('A' for Active; 'I' for Inactive)
REMARK    1  A    between atoms: C2_8  and  O1_4 
REMARK    2  A    between atoms: C4_10  and  O1_4 
REMARK    3  A    between atoms: C3_9  and  O2_5 
REMARK    4  A    between atoms: C1_7  and  C9_15 
REMARK    5  A    between atoms: C4_10  and  C8_14 
REMARK    6  A    between atoms: C10_16  and  C11_17 
ROOT
HETATM    1  N1  UNK     1      15.294  11.085   7.463  1.00  0.00    -0.191 NA
HETATM    2  C9  UNK     1      16.805   9.521  10.203  1.00  0.00     0.036 C 
HETATM    3  C10 UNK     1      16.960  10.552   9.361  1.00  0.00     0.055 C 
HETATM    4  C23 UNK     1      16.045  10.850   8.314  1.00  0.00     0.100 C 
ENDROOT
BRANCH   3   5
HETATM    5  C11 UNK     1      18.147  11.380   9.513  1.00  0.00    -0.015 A 
HETATM    6  C14 UNK     1      18.393  12.031  10.722  1.00  0.00     0.014 A 
HETATM    7  C19 UNK     1      19.531  12.824  10.866  1.00  0.00     0.020 A 
HETATM    8  C21 UNK     1      20.422  12.967   9.803  1.00  0.00     0.011 A 
HETATM    9 Br2  UNK     1      21.964  14.042  10.001  1.00  0.00    -0.051 Br
HETATM   10  C20 UNK     1      20.175  12.316   8.595  1.00  0.00     0.020 A 
HETATM   11  C15 UNK     1      19.038  11.522   8.449  1.00  0.00     0.014 A 
ENDBRANCH   3   5
BRANCH   2  12
HETATM   12  C1  UNK     1      15.674   8.581  10.191  1.00  0.00    -0.015 A 
HETATM   13  C5  UNK     1      14.422   9.093  10.503  1.00  0.00     0.052 A 
HETATM   14  C3  UNK     1      13.313   8.246  10.507  1.00  0.00     0.102 A 
HETATM   15  C2  UNK     1      13.467   6.894  10.198  1.00  0.00     0.103 A 
HETATM   16  C7  UNK     1      14.729   6.390   9.886  1.00  0.00     0.059 A 
HETATM   17  C6  UNK     1      15.838   7.237   9.882  1.00  0.00     0.024 A 
HETATM   18 Br1  UNK     1      17.528   6.486   9.448  1.00  0.00    -0.050 Br
BRANCH  14  19
HETATM   19  O2  UNK     1      12.085   8.751  10.812  1.00  0.00    -0.353 OA
HETATM   20  C22 UNK     1      11.313   9.272   9.732  1.00  0.00     0.210 C 
ENDBRANCH  14  19
BRANCH  15  21
HETATM   21  O1  UNK     1      12.391   6.058  10.198  1.00  0.00    -0.344 OA
BRANCH  21  22
HETATM   22  C4  UNK     1      12.309   5.109   9.137  1.00  0.00     0.214 C 
BRANCH  22  23
HETATM   23  C8  UNK     1      11.312   5.591   8.124  1.00  0.00    -0.034 A 
HETATM   24  C12 UNK     1       9.990   5.795   8.504  1.00  0.00     0.012 A 
HETATM   25  C16 UNK     1       9.064   6.244   7.562  1.00  0.00     0.043 A 
HETATM   26  C18 UNK     1       9.466   6.487   6.249  1.00  0.00     0.116 A 
HETATM   27  C17 UNK     1      10.795   6.281   5.877  1.00  0.00     0.043 A 
HETATM   28  F1  UNK     1       8.576   6.919   5.345  1.00  0.00    -0.206 F 
HETATM   29  C13 UNK     1      11.720   5.832   6.817  1.00  0.00     0.012 A 
ENDBRANCH  22  23
ENDBRANCH  21  22
ENDBRANCH  15  21
ENDBRANCH   2  12
TORSDOF 6
ENDMDL
MODEL 5
REMARK VINA RESULT:      -8.3      6.545      9.087
REMARK  6 active torsions:
REMARK  status: ('A' for Active; 'I' for Inactive)
REMARK    1  A    between atoms: C2_8  and  O1_4 
REMARK    2  A    between atoms: C4_10  and  O1_4 
REMARK    3  A    between atoms: C3_9  and  O2_5 
REMARK    4  A    between atoms: C1_7  and  C9_15 
REMARK    5  A    between atoms: C4_10  and  C8_14 
REMARK    6  A    between atoms: C10_16  and  C11_17 
ROOT
HETATM    1  N1  UNK     1      18.254   3.148  34.793  1.00  0.00    -0.191 NA
HETATM    2  C9  UNK     1      17.946   4.938  31.803  1.00  0.00     0.036 C 
HETATM    3  C10 UNK     1      18.213   3.711  32.274  1.00  0.00     0.055 C 
HETATM    4  C23 UNK     1      18.237   3.396  33.660  1.00  0.00     0.100 C 
ENDROOT
BRANCH   3   5
HETATM    5  C11 UNK     1      18.527   2.668  31.311  1.00  0.00    -0.015 A 
HETATM    6  C14 UNK     1      18.300   2.881  29.952  1.00  0.00     0.014 A 
HETATM    7  C19 UNK     1      18.601   1.879  29.030  1.00  0.00     0.020 A 
HETATM    8  C21 UNK     1      19.130   0.664  29.466  1.00  0.00     0.011 A 
HETATM    9 Br2  UNK     1      19.538  -0.692  28.215  1.00  0.00    -0.051 Br
HETATM   10  C20 UNK     1      19.357   0.451  30.826  1.00  0.00     0.020 A 
HETATM   11  C15 UNK     1      19.056   1.453  31.749  1.00  0.00     0.014 A 
ENDBRANCH   3   5
BRANCH   2  12
HETATM   12  C1  UNK     1      17.616   6.108  32.628  1.00  0.00    -0.015 A 
HETATM   13  C5  UNK     1      16.269   6.395  32.811  1.00  0.00     0.052 A 
HETATM   14  C3  UNK     1      15.898   7.494  33.585  1.00  0.00     0.102 A 
HETATM   15  C2  UNK     1      16.877   8.298  34.169  1.00  0.00     0.103 A 
HETATM   16  C7  UNK     1      18.227   8.003  33.980  1.00  0.00     0.059 A 
HETATM   17  C6  UNK     1      18.598   6.902  33.205  1.00  0.00     0.024 A 
HETATM   18 Br1  UNK     1      20.453   6.556  32.987  1.00  0.00    -0.050 Br
BRANCH  14  19
HETATM   19  O2  UNK     1      14.576   7.772  33.764  1.00  0.00    -0.353 OA
HETATM   20  C22 UNK     1      13.693   7.437  32.695  1.00  0.00     0.210 C 
ENDBRANCH  14  19
BRANCH  15  21
HETATM   21  O1  UNK     1      16.526   9.375  34.927  1.00  0.00    -0.344 OA
BRANCH  21  22
HETATM   22  C4  UNK     1      16.517  10.646  34.281  1.00  0.00     0.214 C 
BRANCH  22  23
HETATM   23  C8  UNK     1      15.102  11.139  34.190  1.00  0.00    -0.034 A 
HETATM   24  C12 UNK     1      14.428  11.075  32.976  1.00  0.00     0.012 A 
HETATM   25  C16 UNK     1      13.112  11.533  32.893  1.00  0.00     0.043 A 
HETATM   26  C18 UNK     1      12.481  12.051  34.024  1.00  0.00     0.116 A 
HETATM   27  C17 UNK     1      13.165  12.111  35.238  1.00  0.00     0.043 A 
HETATM   28  F1  UNK     1      11.218  12.489  33.943  1.00  0.00    -0.206 F 
HETATM   29  C13 UNK     1      14.479  11.654  35.322  1.00  0.00     0.012 A 
ENDBRANCH  22  23
ENDBRANCH  21  22
ENDBRANCH  15  21
ENDBRANCH   2  12
TORSDOF 6
ENDMDL
MODEL 6
REMARK VINA RESULT:      -8.1     10.772     13.108
REMARK  6 active torsions:
REMARK  status: ('A' for Active; 'I' for Inactive)
REMARK    1  A    between atoms: C2_8  and  O1_4 
REMARK    2  A    between atoms: C4_10  and  O1_4 
REMARK    3  A    between atoms: C3_9  and  O2_5 
REMARK    4  A    between atoms: C1_7  and  C9_15 
REMARK    5  A    between atoms: C4_10  and  C8_14 
REMARK    6  A    between atoms: C10_16  and  C11_17 
ROOT
HETATM    1  N1  UNK     1      26.473  -5.771  39.028  1.00  0.00    -0.191 NA
HETATM    2  C9  UNK     1      26.208  -9.001  37.710  1.00  0.00     0.036 C 
HETATM    3  C10 UNK     1      25.465  -7.998  38.201  1.00  0.00     0.055 C 
HETATM    4  C23 UNK     1      26.015  -6.770  38.658  1.00  0.00     0.100 C 
ENDROOT
BRANCH   3   5
HETATM    5  C11 UNK     1      24.028  -8.203  38.299  1.00  0.00    -0.015 A 
HETATM    6  C14 UNK     1      23.343  -7.805  39.446  1.00  0.00     0.014 A 
HETATM    7  C19 UNK     1      21.965  -8.002  39.539  1.00  0.00     0.020 A 
HETATM    8  C21 UNK     1      21.273  -8.598  38.485  1.00  0.00     0.011 A 
HETATM    9 Br2  UNK     1      19.406  -8.865  38.611  1.00  0.00    -0.051 Br
HETATM   10  C20 UNK     1      21.959  -8.997  37.338  1.00  0.00     0.020 A 
HETATM   11  C15 UNK     1      23.336  -8.800  37.244  1.00  0.00     0.014 A 
ENDBRANCH   3   5
BRANCH   2  12
HETATM   12  C1  UNK     1      27.668  -8.970  37.547  1.00  0.00    -0.015 A 
HETATM   13  C5  UNK     1      28.162  -8.435  36.364  1.00  0.00     0.052 A 
HETATM   14  C3  UNK     1      29.540  -8.382  36.155  1.00  0.00     0.102 A 
HETATM   15  C2  UNK     1      30.413  -8.863  37.131  1.00  0.00     0.103 A 
HETATM   16  C7  UNK     1      29.907  -9.398  38.315  1.00  0.00     0.059 A 
HETATM   17  C6  UNK     1      28.529  -9.452  38.524  1.00  0.00     0.024 A 
HETATM   18 Br1  UNK     1      27.907 -10.192  40.160  1.00  0.00    -0.050 Br
BRANCH  14  19
HETATM   19  O2  UNK     1      30.022  -7.855  34.994  1.00  0.00    -0.353 OA
HETATM   20  C22 UNK     1      29.630  -6.521  34.676  1.00  0.00     0.210 C 
ENDBRANCH  14  19
BRANCH  15  21
HETATM   21  O1  UNK     1      31.761  -8.815  36.938  1.00  0.00    -0.344 OA
BRANCH  21  22
HETATM   22  C4  UNK     1      32.513  -7.993  37.828  1.00  0.00     0.214 C 
BRANCH  22  23
HETATM   23  C8  UNK     1      32.296  -6.552  37.467  1.00  0.00    -0.034 A 
HETATM   24  C12 UNK     1      32.961  -6.010  36.372  1.00  0.00     0.012 A 
HETATM   25  C16 UNK     1      32.758  -4.671  36.036  1.00  0.00     0.043 A 
HETATM   26  C18 UNK     1      31.892  -3.885  36.796  1.00  0.00     0.116 A 
HETATM   27  C17 UNK     1      31.228  -4.437  37.892  1.00  0.00     0.043 A 
HETATM   28  F1  UNK     1      31.696  -2.599  36.472  1.00  0.00    -0.206 F 
HETATM   29  C13 UNK     1      31.431  -5.775  38.228  1.00  0.00     0.012 A 
ENDBRANCH  22  23
ENDBRANCH  21  22
ENDBRANCH  15  21
ENDBRANCH   2  12
TORSDOF 6
ENDMDL
MODEL 7
REMARK VINA RESULT:      -8.1      2.029      2.866
REMARK  6 active torsions:
REMARK  status: ('A' for Active; 'I' for Inactive)
REMARK    1  A    between atoms: C2_8  and  O1_4 
REMARK    2  A    between atoms: C4_10  and  O1_4 
REMARK    3  A    between atoms: C3_9  and  O2_5 
REMARK    4  A    between atoms: C1_7  and  C9_15 
REMARK    5  A    between atoms: C4_10  and  C8_14 
REMARK    6  A    between atoms: C10_16  and  C11_17 
ROOT
HETATM    1  N1  UNK     1      22.248  -1.593  35.524  1.00  0.00    -0.191 NA
HETATM    2  C9  UNK     1      18.849  -2.411  35.672  1.00  0.00     0.036 C 
HETATM    3  C10 UNK     1      20.069  -2.934  35.864  1.00  0.00     0.055 C 
HETATM    4  C23 UNK     1      21.272  -2.200  35.678  1.00  0.00     0.100 C 
ENDROOT
BRANCH   3   5
HETATM    5  C11 UNK     1      20.153  -4.335  36.248  1.00  0.00    -0.015 A 
HETATM    6  C14 UNK     1      20.560  -4.681  37.537  1.00  0.00     0.014 A 
HETATM    7  C19 UNK     1      20.640  -6.025  37.904  1.00  0.00     0.020 A 
HETATM    8  C21 UNK     1      20.316  -7.021  36.984  1.00  0.00     0.011 A 
HETATM    9 Br2  UNK     1      20.426  -8.840  37.482  1.00  0.00    -0.051 Br
HETATM   10  C20 UNK     1      19.910  -6.673  35.695  1.00  0.00     0.020 A 
HETATM   11  C15 UNK     1      19.829  -5.331  35.327  1.00  0.00     0.014 A 
ENDBRANCH   3   5
BRANCH   2  12
HETATM   12  C1  UNK     1      18.578  -1.022  35.277  1.00  0.00    -0.015 A 
HETATM   13  C5  UNK     1      18.181  -0.145  36.278  1.00  0.00     0.052 A 
HETATM   14  C3  UNK     1      17.909   1.186  35.960  1.00  0.00     0.102 A 
HETATM   15  C2  UNK     1      18.037   1.629  34.643  1.00  0.00     0.103 A 
HETATM   16  C7  UNK     1      18.437   0.741  33.645  1.00  0.00     0.059 A 
HETATM   17  C6  UNK     1      18.709  -0.591  33.964  1.00  0.00     0.024 A 
HETATM   18 Br1  UNK     1      19.249  -1.747  32.556  1.00  0.00    -0.050 Br
BRANCH  14  19
HETATM   19  O2  UNK     1      17.520   2.045  36.944  1.00  0.00    -0.353 OA
HETATM   20  C22 UNK     1      17.458   1.523  38.271  1.00  0.00     0.210 C 
ENDBRANCH  14  19
BRANCH  15  21
HETATM   21  O1  UNK     1      17.775   2.926  34.321  1.00  0.00    -0.344 OA
BRANCH  21  22
HETATM   22  C4  UNK     1      18.274   3.396  33.070  1.00  0.00     0.214 C 
BRANCH  22  23
HETATM   23  C8  UNK     1      18.302   4.897  33.087  1.00  0.00    -0.034 A 
HETATM   24  C12 UNK     1      19.294   5.559  33.801  1.00  0.00     0.012 A 
HETATM   25  C16 UNK     1      19.320   6.954  33.816  1.00  0.00     0.043 A 
HETATM   26  C18 UNK     1      18.354   7.677  33.116  1.00  0.00     0.116 A 
HETATM   27  C17 UNK     1      17.362   7.005  32.401  1.00  0.00     0.043 A 
HETATM   28  F1  UNK     1      18.380   9.016  33.130  1.00  0.00    -0.206 F 
HETATM   29  C13 UNK     1      17.336   5.611  32.387  1.00  0.00     0.012 A 
ENDBRANCH  22  23
ENDBRANCH  21  22
ENDBRANCH  15  21
ENDBRANCH   2  12
TORSDOF 6
ENDMDL
MODEL 8
REMARK VINA RESULT:      -8.0     26.261     28.303
REMARK  6 active torsions:
REMARK  status: ('A' for Active; 'I' for Inactive)
REMARK    1  A    between atoms: C2_8  and  O1_4 
REMARK    2  A    between atoms: C4_10  and  O1_4 
REMARK    3  A    between atoms: C3_9  and  O2_5 
REMARK    4  A    between atoms: C1_7  and  C9_15 
REMARK    5  A    between atoms: C4_10  and  C8_14 
REMARK    6  A    between atoms: C10_16  and  C11_17 
ROOT
HETATM    1  N1  UNK     1      15.629  11.076   7.622  1.00  0.00    -0.191 NA
HETATM    2  C9  UNK     1      16.335   9.633  10.730  1.00  0.00     0.036 C 
HETATM    3  C10 UNK     1      16.655  10.681   9.957  1.00  0.00     0.055 C 
HETATM    4  C23 UNK     1      16.093  10.903   8.671  1.00  0.00     0.100 C 
ENDROOT
BRANCH   3   5
HETATM    5  C11 UNK     1      17.655  11.612  10.457  1.00  0.00    -0.015 A 
HETATM    6  C14 UNK     1      18.977  11.513  10.025  1.00  0.00     0.014 A 
HETATM    7  C19 UNK     1      19.935  12.406  10.505  1.00  0.00     0.020 A 
HETATM    8  C21 UNK     1      19.571  13.397  11.416  1.00  0.00     0.011 A 
HETATM    9 Br2  UNK     1      20.870  14.607  12.065  1.00  0.00    -0.051 Br
HETATM   10  C20 UNK     1      18.248  13.495  11.848  1.00  0.00     0.020 A 
HETATM   11  C15 UNK     1      17.290  12.603  11.368  1.00  0.00     0.014 A 
ENDBRANCH   3   5
BRANCH   2  12
HETATM   12  C1  UNK     1      15.354   8.594  10.383  1.00  0.00    -0.015 A 
HETATM   13  C5  UNK     1      15.851   7.392   9.896  1.00  0.00     0.052 A 
HETATM   14  C3  UNK     1      14.966   6.371   9.550  1.00  0.00     0.102 A 
HETATM   15  C2  UNK     1      13.591   6.561   9.694  1.00  0.00     0.103 A 
HETATM   16  C7  UNK     1      13.102   7.772  10.183  1.00  0.00     0.059 A 
HETATM   17  C6  UNK     1      13.988   8.793  10.529  1.00  0.00     0.024 A 
HETATM   18 Br1  UNK     1      13.256  10.417  11.189  1.00  0.00    -0.050 Br
BRANCH  14  19
HETATM   19  O2  UNK     1      15.456   5.191   9.074  1.00  0.00    -0.353 OA
HETATM   20  C22 UNK     1      15.545   4.108   9.998  1.00  0.00     0.210 C 
ENDBRANCH  14  19
BRANCH  15  21
HETATM   21  O1  UNK     1      12.718   5.571   9.359  1.00  0.00    -0.344 OA
BRANCH  21  22
HETATM   22  C4  UNK     1      12.577   5.274   7.971  1.00  0.00     0.214 C 
BRANCH  22  23
HETATM   23  C8  UNK     1      11.236   5.757   7.501  1.00  0.00    -0.034 A 
HETATM   24  C12 UNK     1      11.042   6.047   6.155  1.00  0.00     0.012 A 
HETATM   25  C16 UNK     1       9.796   6.495   5.718  1.00  0.00     0.043 A 
HETATM   26  C18 UNK     1       8.751   6.651   6.629  1.00  0.00     0.116 A 
HETATM   27  C17 UNK     1       8.953   6.356   7.978  1.00  0.00     0.043 A 
HETATM   28  F1  UNK     1       7.554   7.080   6.209  1.00  0.00    -0.206 F 
HETATM   29  C13 UNK     1      10.199   5.909   8.415  1.00  0.00     0.012 A 
ENDBRANCH  22  23
ENDBRANCH  21  22
ENDBRANCH  15  21
ENDBRANCH   2  12
TORSDOF 6
ENDMDL
MODEL 9
REMARK VINA RESULT:      -7.9     26.341     28.544
REMARK  6 active torsions:
REMARK  status: ('A' for Active; 'I' for Inactive)
REMARK    1  A    between atoms: C2_8  and  O1_4 
REMARK    2  A    between atoms: C4_10  and  O1_4 
REMARK    3  A    between atoms: C3_9  and  O2_5 
REMARK    4  A    between atoms: C1_7  and  C9_15 
REMARK    5  A    between atoms: C4_10  and  C8_14 
REMARK    6  A    between atoms: C10_16  and  C11_17 
ROOT
HETATM    1  N1  UNK     1      17.026  13.015  11.637  1.00  0.00    -0.191 NA
HETATM    2  C9  UNK     1      18.491  10.594   9.580  1.00  0.00     0.036 C 
HETATM    3  C10 UNK     1      18.801  11.620  10.385  1.00  0.00     0.055 C 
HETATM    4  C23 UNK     1      17.827  12.391  11.076  1.00  0.00     0.100 C 
ENDROOT
BRANCH   3   5
HETATM    5  C11 UNK     1      20.205  11.975  10.522  1.00  0.00    -0.015 A 
HETATM    6  C14 UNK     1      20.734  12.254  11.782  1.00  0.00     0.014 A 
HETATM    7  C19 UNK     1      22.081  12.595  11.911  1.00  0.00     0.020 A 
HETATM    8  C21 UNK     1      22.897  12.657  10.783  1.00  0.00     0.011 A 
HETATM    9 Br2  UNK     1      24.721  13.118  10.960  1.00  0.00    -0.051 Br
HETATM   10  C20 UNK     1      22.367  12.378   9.523  1.00  0.00     0.020 A 
HETATM   11  C15 UNK     1      21.021  12.037   9.392  1.00  0.00     0.014 A 
ENDBRANCH   3   5
BRANCH   2  12
HETATM   12  C1  UNK     1      17.130  10.103   9.320  1.00  0.00    -0.015 A 
HETATM   13  C5  UNK     1      16.709   8.992  10.039  1.00  0.00     0.052 A 
HETATM   14  C3  UNK     1      15.427   8.483   9.832  1.00  0.00     0.102 A 
HETATM   15  C2  UNK     1      14.576   9.091   8.909  1.00  0.00     0.103 A 
HETATM   16  C7  UNK     1      15.008  10.206   8.192  1.00  0.00     0.059 A 
HETATM   17  C6  UNK     1      16.291  10.715   8.399  1.00  0.00     0.024 A 
HETATM   18 Br1  UNK     1      16.815  12.237   7.390  1.00  0.00    -0.050 Br
BRANCH  14  19
HETATM   19  O2  UNK     1      15.016   7.393  10.540  1.00  0.00    -0.353 OA
HETATM   20  C22 UNK     1      15.624   6.144  10.215  1.00  0.00     0.210 C 
ENDBRANCH  14  19
BRANCH  15  21
HETATM   21  O1  UNK     1      13.321   8.602   8.699  1.00  0.00    -0.344 OA
BRANCH  21  22
HETATM   22  C4  UNK     1      13.166   7.645   7.653  1.00  0.00     0.214 C 
BRANCH  22  23
HETATM   23  C8  UNK     1      11.719   7.258   7.554  1.00  0.00    -0.034 A 
HETATM   24  C12 UNK     1      10.868   7.499   8.627  1.00  0.00     0.012 A 
HETATM   25  C16 UNK     1       9.523   7.140   8.534  1.00  0.00     0.043 A 
HETATM   26  C18 UNK     1       9.039   6.543   7.371  1.00  0.00     0.116 A 
HETATM   27  C17 UNK     1       9.899   6.306   6.298  1.00  0.00     0.043 A 
HETATM   28  F1  UNK     1       7.747   6.200   7.282  1.00  0.00    -0.206 F 
HETATM   29  C13 UNK     1      11.244   6.664   6.391  1.00  0.00     0.012 A 
ENDBRANCH  22  23
ENDBRANCH  21  22
ENDBRANCH  15  21
ENDBRANCH   2  12
TORSDOF 6
ENDMDL
MODEL 10
REMARK VINA RESULT:      -7.9     26.615     28.613
REMARK  6 active torsions:
REMARK  status: ('A' for Active; 'I' for Inactive)
REMARK    1  A    between atoms: C2_8  and  O1_4 
REMARK    2  A    between atoms: C4_10  and  O1_4 
REMARK    3  A    between atoms: C3_9  and  O2_5 
REMARK    4  A    between atoms: C1_7  and  C9_15 
REMARK    5  A    between atoms: C4_10  and  C8_14 
REMARK    6  A    between atoms: C10_16  and  C11_17 
ROOT
HETATM    1  N1  UNK     1      16.172  11.778   7.322  1.00  0.00    -0.191 NA
HETATM    2  C9  UNK     1      17.329  10.182  10.212  1.00  0.00     0.036 C 
HETATM    3  C10 UNK     1      17.683  11.100   9.302  1.00  0.00     0.055 C 
HETATM    4  C23 UNK     1      16.855  11.477   8.210  1.00  0.00     0.100 C 
ENDROOT
BRANCH   3   5
HETATM    5  C11 UNK     1      18.998  11.709   9.429  1.00  0.00    -0.015 A 
HETATM    6  C14 UNK     1      19.436  12.172  10.669  1.00  0.00     0.014 A 
HETATM    7  C19 UNK     1      20.697  12.756  10.789  1.00  0.00     0.020 A 
HETATM    8  C21 UNK     1      21.520  12.877   9.670  1.00  0.00     0.011 A 
HETATM    9 Br2  UNK     1      23.228  13.668   9.834  1.00  0.00    -0.051 Br
HETATM   10  C20 UNK     1      21.081  12.414   8.429  1.00  0.00     0.020 A 
HETATM   11  C15 UNK     1      19.820  11.830   8.308  1.00  0.00     0.014 A 
ENDBRANCH   3   5
BRANCH   2  12
HETATM   12  C1  UNK     1      16.047   9.463  10.234  1.00  0.00    -0.015 A 
HETATM   13  C5  UNK     1      16.024   8.191   9.677  1.00  0.00     0.052 A 
HETATM   14  C3  UNK     1      14.834   7.464   9.670  1.00  0.00     0.102 A 
HETATM   15  C2  UNK     1      13.676   8.015  10.220  1.00  0.00     0.103 A 
HETATM   16  C7  UNK     1      13.709   9.293  10.777  1.00  0.00     0.059 A 
HETATM   17  C6  UNK     1      14.900  10.020  10.784  1.00  0.00     0.024 A 
HETATM   18 Br1  UNK     1      14.875  11.755  11.558  1.00  0.00    -0.050 Br
BRANCH  14  19
HETATM   19  O2  UNK     1      14.815   6.215   9.124  1.00  0.00    -0.353 OA
HETATM   20  C22 UNK     1      15.521   5.192   9.823  1.00  0.00     0.210 C 
ENDBRANCH  14  19
BRANCH  15  21
HETATM   21  O1  UNK     1      12.508   7.313  10.219  1.00  0.00    -0.344 OA
BRANCH  21  22
HETATM   22  C4  UNK     1      11.346   7.991   9.745  1.00  0.00     0.214 C 
BRANCH  22  23
HETATM   23  C8  UNK     1      10.894   7.353   8.465  1.00  0.00    -0.034 A 
HETATM   24  C12 UNK     1       9.561   6.988   8.311  1.00  0.00     0.012 A 
HETATM   25  C16 UNK     1       9.141   6.395   7.120  1.00  0.00     0.043 A 
HETATM   26  C18 UNK     1      10.057   6.171   6.091  1.00  0.00     0.116 A 
HETATM   27  C17 UNK     1      11.392   6.541   6.253  1.00  0.00     0.043 A 
HETATM   28  F1  UNK     1       9.653   5.603   4.947  1.00  0.00    -0.206 F 
HETATM   29  C13 UNK     1      11.812   7.134   7.444  1.00  0.00     0.012 A 
ENDBRANCH  22  23
ENDBRANCH  21  22
ENDBRANCH  15  21
ENDBRANCH   2  12
TORSDOF 6
ENDMDL
