MODEL 1
REMARK VINA RESULT:     -10.5      0.000      0.000
REMARK  7 active torsions:
REMARK  status: ('A' for Active; 'I' for Inactive)
REMARK    1  A    between atoms: C10_21  and  O2_4 
REMARK    2  A    between atoms: C17_28  and  O6_8 
REMARK    3  A    between atoms: C4_15  and  N1_10 
REMARK       I    between atoms: C9_20  and  N1_10 
REMARK    4  A    between atoms: C13_24  and  N2_11 
REMARK       I    between atoms: C6_17  and  N2_11 
REMARK    5  A    between atoms: C10_21  and  C2_13 
REMARK    6  A    between atoms: C3_14  and  C6_17 
REMARK    7  A    between atoms: C7_18  and  C9_20 
ROOT
HETATM    1  S1  UNK     1      19.897  -2.109  34.801  1.00  0.00    -0.065 SA
HETATM    2  C1  UNK     1      18.840  -1.811  37.124  1.00  0.00    -0.020 A 
HETATM    3  C2  UNK     1      18.561  -0.612  36.406  1.00  0.00     0.080 A 
HETATM    4  C3  UNK     1      19.561  -2.710  36.368  1.00  0.00     0.082 A 
HETATM    5  C4  UNK     1      19.079  -0.661  35.151  1.00  0.00     0.094 A 
HETATM    6  C5  UNK     1      18.407  -2.061  38.522  1.00  0.00     0.051 C 
ENDROOT
BRANCH   5   7
HETATM    7  N1  UNK     1      19.044   0.281  34.119  1.00  0.00    -0.316 N 
HETATM    8  C9  UNK     1      18.526   0.082  32.847  1.00  0.00     0.262 C 
HETATM    9  O4  UNK     1      18.008  -0.930  32.379  1.00  0.00    -0.267 OA
HETATM   10  H4  UNK     1      19.427   1.189  34.368  1.00  0.00     0.169 HD
BRANCH   8  11
HETATM   11  C7  UNK     1      18.652   1.283  32.011  1.00  0.00     0.108 A 
HETATM   12  C11 UNK     1      18.286   2.438  32.579  1.00  0.00     0.037 A 
HETATM   13  C8  UNK     1      18.374   3.683  31.830  1.00  0.00     0.001 A 
HETATM   14  C12 UNK     1      18.845   3.649  30.521  1.00  0.00     0.089 A 
HETATM   15  C15 UNK     1      18.002   4.911  32.381  1.00  0.00     0.038 A 
HETATM   16  O1  UNK     1      19.230   2.430  29.930  1.00  0.00    -0.274 OA
HETATM   17  C16 UNK     1      18.953   4.804  29.750  1.00  0.00     0.040 A 
HETATM   18  C14 UNK     1      19.155   1.223  30.621  1.00  0.00     0.304 A 
HETATM   19  O7  UNK     1      19.493   0.166  30.098  1.00  0.00    -0.259 OA
HETATM   20  C20 UNK     1      18.581   6.026  30.308  1.00  0.00     0.026 A 
HETATM   21  C19 UNK     1      18.106   6.080  31.620  1.00  0.00     0.035 A 
HETATM   22 Cl1  UNK     1      17.647   7.592  32.303  1.00  0.00    -0.084 Cl
ENDBRANCH   8  11
ENDBRANCH   5   7
BRANCH   3  23
HETATM   23  C10 UNK     1      17.828   0.518  36.919  1.00  0.00     0.296 C 
HETATM   24  O5  UNK     1      18.356   1.584  37.269  1.00  0.00    -0.259 OA
BRANCH  23  25
HETATM   25  O2  UNK     1      16.467   0.317  36.990  1.00  0.00    -0.322 OA
HETATM   26  C24 UNK     1      15.745   0.328  35.754  1.00  0.00     0.213 C 
ENDBRANCH  23  25
ENDBRANCH   3  23
BRANCH   4  27
HETATM   27  C6  UNK     1      20.033  -4.012  36.719  1.00  0.00     0.263 C 
HETATM   28  O3  UNK     1      21.252  -4.289  36.808  1.00  0.00    -0.267 OA
HETATM   29  N2  UNK     1      19.039  -4.978  37.002  1.00  0.00    -0.320 N 
HETATM   30  H6  UNK     1      18.073  -4.667  36.916  1.00  0.00     0.169 HD
BRANCH  29  31
HETATM   31  C13 UNK     1      19.186  -6.329  37.407  1.00  0.00     0.068 A 
HETATM   32  C17 UNK     1      18.802  -7.350  36.555  1.00  0.00     0.095 A 
HETATM   33  C21 UNK     1      18.953  -8.674  36.967  1.00  0.00     0.039 A 
HETATM   34  C23 UNK     1      19.485  -8.956  38.225  1.00  0.00     0.003 A 
HETATM   35  C22 UNK     1      19.867  -7.915  39.071  1.00  0.00     0.002 A 
HETATM   36  C18 UNK     1      19.716  -6.591  38.659  1.00  0.00     0.032 A 
BRANCH  32  37
HETATM   37  O6  UNK     1      18.280  -7.096  35.322  1.00  0.00    -0.354 OA
HETATM   38  C25 UNK     1      16.894  -7.371  35.137  1.00  0.00     0.210 C 
ENDBRANCH  32  37
ENDBRANCH  29  31
ENDBRANCH   4  27
TORSDOF 7
ENDMDL
MODEL 2
REMARK VINA RESULT:      -9.7     19.174     23.015
REMARK  7 active torsions:
REMARK  status: ('A' for Active; 'I' for Inactive)
REMARK    1  A    between atoms: C10_21  and  O2_4 
REMARK    2  A    between atoms: C17_28  and  O6_8 
REMARK    3  A    between atoms: C4_15  and  N1_10 
REMARK       I    between atoms: C9_20  and  N1_10 
REMARK    4  A    between atoms: C13_24  and  N2_11 
REMARK       I    between atoms: C6_17  and  N2_11 
REMARK    5  A    between atoms: C10_21  and  C2_13 
REMARK    6  A    between atoms: C3_14  and  C6_17 
REMARK    7  A    between atoms: C7_18  and  C9_20 
ROOT
HETATM    1  S1  UNK     1      19.451  -1.909  14.207  1.00  0.00    -0.065 SA
HETATM    2  C1  UNK     1      18.113  -3.869  15.192  1.00  0.00    -0.020 A 
HETATM    3  C2  UNK     1      18.668  -4.344  13.969  1.00  0.00     0.080 A 
HETATM    4  C3  UNK     1      18.460  -2.559  15.443  1.00  0.00     0.082 A 
HETATM    5  C4  UNK     1      19.403  -3.379  13.357  1.00  0.00     0.094 A 
HETATM    6  C5  UNK     1      17.260  -4.688  16.090  1.00  0.00     0.051 C 
ENDROOT
BRANCH   5   7
HETATM    7  N1  UNK     1      20.115  -3.408  12.154  1.00  0.00    -0.316 N 
HETATM    8  C9  UNK     1      19.568  -3.494  10.881  1.00  0.00     0.262 C 
HETATM    9  O4  UNK     1      18.383  -3.560  10.559  1.00  0.00    -0.267 OA
HETATM   10  H4  UNK     1      21.123  -3.340  12.263  1.00  0.00     0.169 HD
BRANCH   8  11
HETATM   11  C7  UNK     1      20.603  -3.502   9.841  1.00  0.00     0.108 A 
HETATM   12  C11 UNK     1      20.695  -4.617   9.108  1.00  0.00     0.037 A 
HETATM   13  C8  UNK     1      21.690  -4.721   8.051  1.00  0.00     0.001 A 
HETATM   14  C12 UNK     1      22.539  -3.643   7.819  1.00  0.00     0.089 A 
HETATM   15  C15 UNK     1      21.824  -5.866   7.263  1.00  0.00     0.038 A 
HETATM   16  O1  UNK     1      22.436  -2.471   8.593  1.00  0.00    -0.274 OA
HETATM   17  C16 UNK     1      23.514  -3.678   6.824  1.00  0.00     0.040 A 
HETATM   18  C14 UNK     1      21.495  -2.343   9.611  1.00  0.00     0.304 A 
HETATM   19  O7  UNK     1      21.412  -1.319  10.280  1.00  0.00    -0.259 OA
HETATM   20  C20 UNK     1      23.639  -4.823   6.041  1.00  0.00     0.026 A 
HETATM   21  C19 UNK     1      22.797  -5.915   6.259  1.00  0.00     0.035 A 
HETATM   22 Cl1  UNK     1      22.957  -7.328   5.289  1.00  0.00    -0.084 Cl
ENDBRANCH   8  11
ENDBRANCH   5   7
BRANCH   3  23
HETATM   23  C10 UNK     1      18.489  -5.668  13.428  1.00  0.00     0.296 C 
HETATM   24  O5  UNK     1      17.394  -6.129  13.075  1.00  0.00    -0.259 OA
BRANCH  23  25
HETATM   25  O2  UNK     1      19.655  -6.395  13.332  1.00  0.00    -0.322 OA
HETATM   26  C24 UNK     1      19.855  -7.144  12.128  1.00  0.00     0.213 C 
ENDBRANCH  23  25
ENDBRANCH   3  23
BRANCH   4  27
HETATM   27  C6  UNK     1      18.111  -1.728  16.551  1.00  0.00     0.263 C 
HETATM   28  O3  UNK     1      16.961  -1.710  17.048  1.00  0.00    -0.267 OA
HETATM   29  N2  UNK     1      19.156  -0.941  17.090  1.00  0.00    -0.320 N 
HETATM   30  H6  UNK     1      20.062  -1.023  16.634  1.00  0.00     0.169 HD
BRANCH  29  31
HETATM   31  C13 UNK     1      19.135  -0.054  18.196  1.00  0.00     0.068 A 
HETATM   32  C17 UNK     1      18.901   1.295  17.994  1.00  0.00     0.095 A 
HETATM   33  C21 UNK     1      18.884   2.156  19.092  1.00  0.00     0.039 A 
HETATM   34  C23 UNK     1      19.101   1.654  20.375  1.00  0.00     0.003 A 
HETATM   35  C22 UNK     1      19.334   0.292  20.561  1.00  0.00     0.002 A 
HETATM   36  C18 UNK     1      19.352  -0.570  19.464  1.00  0.00     0.032 A 
BRANCH  32  37
HETATM   37  O6  UNK     1      18.688   1.806  16.749  1.00  0.00    -0.354 OA
HETATM   38  C25 UNK     1      19.578   2.828  16.307  1.00  0.00     0.210 C 
ENDBRANCH  32  37
ENDBRANCH  29  31
ENDBRANCH   4  27
TORSDOF 7
ENDMDL
MODEL 3
REMARK VINA RESULT:      -9.6      0.858      1.555
REMARK  7 active torsions:
REMARK  status: ('A' for Active; 'I' for Inactive)
REMARK    1  A    between atoms: C10_21  and  O2_4 
REMARK    2  A    between atoms: C17_28  and  O6_8 
REMARK    3  A    between atoms: C4_15  and  N1_10 
REMARK       I    between atoms: C9_20  and  N1_10 
REMARK    4  A    between atoms: C13_24  and  N2_11 
REMARK       I    between atoms: C6_17  and  N2_11 
REMARK    5  A    between atoms: C10_21  and  C2_13 
REMARK    6  A    between atoms: C3_14  and  C6_17 
REMARK    7  A    between atoms: C7_18  and  C9_20 
ROOT
HETATM    1  S1  UNK     1      19.644  -1.955  34.511  1.00  0.00    -0.065 SA
HETATM    2  C1  UNK     1      18.756  -1.719  36.911  1.00  0.00    -0.020 A 
HETATM    3  C2  UNK     1      18.518  -0.466  36.275  1.00  0.00     0.080 A 
HETATM    4  C3  UNK     1      19.364  -2.620  36.064  1.00  0.00     0.082 A 
HETATM    5  C4  UNK     1      18.953  -0.478  34.988  1.00  0.00     0.094 A 
HETATM    6  C5  UNK     1      18.393  -2.017  38.319  1.00  0.00     0.051 C 
ENDROOT
BRANCH   5   7
HETATM    7  N1  UNK     1      18.922   0.521  34.010  1.00  0.00    -0.316 N 
HETATM    8  C9  UNK     1      18.573   0.350  32.678  1.00  0.00     0.262 C 
HETATM    9  O4  UNK     1      18.230  -0.680  32.101  1.00  0.00    -0.267 OA
HETATM   10  H4  UNK     1      19.167   1.446  34.350  1.00  0.00     0.169 HD
BRANCH   8  11
HETATM   11  C7  UNK     1      18.648   1.610  31.928  1.00  0.00     0.108 A 
HETATM   12  C11 UNK     1      18.292   2.715  32.593  1.00  0.00     0.037 A 
HETATM   13  C8  UNK     1      18.333   4.012  31.934  1.00  0.00     0.001 A 
HETATM   14  C12 UNK     1      18.748   4.080  30.607  1.00  0.00     0.089 A 
HETATM   15  C15 UNK     1      17.970   5.191  32.588  1.00  0.00     0.038 A 
HETATM   16  O1  UNK     1      19.122   2.912  29.914  1.00  0.00    -0.274 OA
HETATM   17  C16 UNK     1      18.809   5.290  29.919  1.00  0.00     0.040 A 
HETATM   18  C14 UNK     1      19.092   1.658  30.517  1.00  0.00     0.304 A 
HETATM   19  O7  UNK     1      19.420   0.647  29.905  1.00  0.00    -0.259 OA
HETATM   20  C20 UNK     1      18.446   6.461  30.579  1.00  0.00     0.026 A 
HETATM   21  C19 UNK     1      18.027   6.414  31.910  1.00  0.00     0.035 A 
HETATM   22 Cl1  UNK     1      17.579   7.865  32.720  1.00  0.00    -0.084 Cl
ENDBRANCH   8  11
ENDBRANCH   5   7
BRANCH   3  23
HETATM   23  C10 UNK     1      17.899   0.681  36.892  1.00  0.00     0.296 C 
HETATM   24  O5  UNK     1      18.506   1.723  37.180  1.00  0.00    -0.259 OA
BRANCH  23  25
HETATM   25  O2  UNK     1      16.553   0.524  37.140  1.00  0.00    -0.322 OA
HETATM   26  C24 UNK     1      15.698   0.370  36.002  1.00  0.00     0.213 C 
ENDBRANCH  23  25
ENDBRANCH   3  23
BRANCH   4  27
HETATM   27  C6  UNK     1      19.764  -3.968  36.316  1.00  0.00     0.263 C 
HETATM   28  O3  UNK     1      20.966  -4.317  36.379  1.00  0.00    -0.267 OA
HETATM   29  N2  UNK     1      18.718  -4.896  36.531  1.00  0.00    -0.320 N 
HETATM   30  H6  UNK     1      17.771  -4.528  36.473  1.00  0.00     0.169 HD
BRANCH  29  31
HETATM   31  C13 UNK     1      18.791  -6.280  36.834  1.00  0.00     0.068 A 
HETATM   32  C17 UNK     1      19.508  -6.707  37.938  1.00  0.00     0.095 A 
HETATM   33  C21 UNK     1      19.571  -8.071  38.224  1.00  0.00     0.039 A 
HETATM   34  C23 UNK     1      18.915  -8.986  37.401  1.00  0.00     0.003 A 
HETATM   35  C22 UNK     1      18.197  -8.539  36.293  1.00  0.00     0.002 A 
HETATM   36  C18 UNK     1      18.134  -7.175  36.006  1.00  0.00     0.032 A 
BRANCH  32  37
HETATM   37  O6  UNK     1      20.156  -5.829  38.755  1.00  0.00    -0.354 OA
HETATM   38  C25 UNK     1      21.517  -6.115  39.063  1.00  0.00     0.210 C 
ENDBRANCH  32  37
ENDBRANCH  29  31
ENDBRANCH   4  27
TORSDOF 7
ENDMDL
MODEL 4
REMARK VINA RESULT:      -9.5     18.973     22.807
REMARK  7 active torsions:
REMARK  status: ('A' for Active; 'I' for Inactive)
REMARK    1  A    between atoms: C10_21  and  O2_4 
REMARK    2  A    between atoms: C17_28  and  O6_8 
REMARK    3  A    between atoms: C4_15  and  N1_10 
REMARK       I    between atoms: C9_20  and  N1_10 
REMARK    4  A    between atoms: C13_24  and  N2_11 
REMARK       I    between atoms: C6_17  and  N2_11 
REMARK    5  A    between atoms: C10_21  and  C2_13 
REMARK    6  A    between atoms: C3_14  and  C6_17 
REMARK    7  A    between atoms: C7_18  and  C9_20 
ROOT
HETATM    1  S1  UNK     1      19.177  -1.975  13.992  1.00  0.00    -0.065 SA
HETATM    2  C1  UNK     1      17.994  -3.946  15.139  1.00  0.00    -0.020 A 
HETATM    3  C2  UNK     1      18.476  -4.445  13.895  1.00  0.00     0.080 A 
HETATM    4  C3  UNK     1      18.306  -2.616  15.319  1.00  0.00     0.082 A 
HETATM    5  C4  UNK     1      19.126  -3.476  13.197  1.00  0.00     0.094 A 
HETATM    6  C5  UNK     1      17.242  -4.763  16.126  1.00  0.00     0.051 C 
ENDROOT
BRANCH   5   7
HETATM    7  N1  UNK     1      19.748  -3.522  11.946  1.00  0.00    -0.316 N 
HETATM    8  C9  UNK     1      19.651  -2.563  10.948  1.00  0.00     0.262 C 
HETATM    9  O4  UNK     1      19.018  -1.509  10.957  1.00  0.00    -0.267 OA
HETATM   10  H4  UNK     1      20.331  -4.341  11.800  1.00  0.00     0.169 HD
BRANCH   8  11
HETATM   11  C7  UNK     1      20.432  -2.929   9.761  1.00  0.00     0.108 A 
HETATM   12  C11 UNK     1      21.642  -2.367   9.655  1.00  0.00     0.037 A 
HETATM   13  C8  UNK     1      22.492  -2.668   8.513  1.00  0.00     0.001 A 
HETATM   14  C12 UNK     1      22.026  -3.546   7.539  1.00  0.00     0.089 A 
HETATM   15  C15 UNK     1      23.761  -2.104   8.360  1.00  0.00     0.038 A 
HETATM   16  O1  UNK     1      20.752  -4.134   7.657  1.00  0.00    -0.274 OA
HETATM   17  C16 UNK     1      22.790  -3.874   6.421  1.00  0.00     0.040 A 
HETATM   18  C14 UNK     1      19.916  -3.865   8.738  1.00  0.00     0.304 A 
HETATM   19  O7  UNK     1      18.808  -4.382   8.833  1.00  0.00    -0.259 OA
HETATM   20  C20 UNK     1      24.054  -3.308   6.277  1.00  0.00     0.026 A 
HETATM   21  C19 UNK     1      24.540  -2.426   7.243  1.00  0.00     0.035 A 
HETATM   22 Cl1  UNK     1      26.104  -1.729   7.059  1.00  0.00    -0.084 Cl
ENDBRANCH   8  11
ENDBRANCH   5   7
BRANCH   3  23
HETATM   23  C10 UNK     1      18.311  -5.794  13.413  1.00  0.00     0.296 C 
HETATM   24  O5  UNK     1      17.210  -6.322  13.201  1.00  0.00    -0.259 OA
BRANCH  23  25
HETATM   25  O2  UNK     1      19.497  -6.462  13.205  1.00  0.00    -0.322 OA
HETATM   26  C24 UNK     1      20.388  -6.565  14.321  1.00  0.00     0.213 C 
ENDBRANCH  23  25
ENDBRANCH   3  23
BRANCH   4  27
HETATM   27  C6  UNK     1      18.006  -1.758  16.421  1.00  0.00     0.263 C 
HETATM   28  O3  UNK     1      16.870  -1.704  16.948  1.00  0.00    -0.267 OA
HETATM   29  N2  UNK     1      19.083  -0.988  16.920  1.00  0.00    -0.320 N 
HETATM   30  H6  UNK     1      19.975  -1.100  16.442  1.00  0.00     0.169 HD
BRANCH  29  31
HETATM   31  C13 UNK     1      19.113  -0.083  18.011  1.00  0.00     0.068 A 
HETATM   32  C17 UNK     1      19.004   1.278  17.781  1.00  0.00     0.095 A 
HETATM   33  C21 UNK     1      19.035   2.156  18.864  1.00  0.00     0.039 A 
HETATM   34  C23 UNK     1      19.173   1.661  20.161  1.00  0.00     0.003 A 
HETATM   35  C22 UNK     1      19.282   0.287  20.374  1.00  0.00     0.002 A 
HETATM   36  C18 UNK     1      19.251  -0.592  19.292  1.00  0.00     0.032 A 
BRANCH  32  37
HETATM   37  O6  UNK     1      18.867   1.782  16.523  1.00  0.00    -0.354 OA
HETATM   38  C25 UNK     1      19.405   3.081  16.284  1.00  0.00     0.210 C 
ENDBRANCH  32  37
ENDBRANCH  29  31
ENDBRANCH   4  27
TORSDOF 7
ENDMDL
MODEL 5
REMARK VINA RESULT:      -9.3      3.573      6.880
REMARK  7 active torsions:
REMARK  status: ('A' for Active; 'I' for Inactive)
REMARK    1  A    between atoms: C10_21  and  O2_4 
REMARK    2  A    between atoms: C17_28  and  O6_8 
REMARK    3  A    between atoms: C4_15  and  N1_10 
REMARK       I    between atoms: C9_20  and  N1_10 
REMARK    4  A    between atoms: C13_24  and  N2_11 
REMARK       I    between atoms: C6_17  and  N2_11 
REMARK    5  A    between atoms: C10_21  and  C2_13 
REMARK    6  A    between atoms: C3_14  and  C6_17 
REMARK    7  A    between atoms: C7_18  and  C9_20 
ROOT
HETATM    1  S1  UNK     1      17.857   2.649  33.416  1.00  0.00    -0.065 SA
HETATM    2  C1  UNK     1      18.884   1.726  31.249  1.00  0.00    -0.020 A 
HETATM    3  C2  UNK     1      18.446   3.048  30.947  1.00  0.00     0.080 A 
HETATM    4  C3  UNK     1      18.625   1.382  32.558  1.00  0.00     0.082 A 
HETATM    5  C4  UNK     1      17.881   3.637  32.034  1.00  0.00     0.094 A 
HETATM    6  C5  UNK     1      19.541   0.825  30.268  1.00  0.00     0.051 C 
ENDROOT
BRANCH   5   7
HETATM    7  N1  UNK     1      17.324   4.910  32.188  1.00  0.00    -0.316 N 
HETATM    8  C9  UNK     1      17.879   5.965  32.897  1.00  0.00     0.262 C 
HETATM    9  O4  UNK     1      18.941   5.999  33.517  1.00  0.00    -0.267 OA
HETATM   10  H4  UNK     1      16.438   5.040  31.706  1.00  0.00     0.169 HD
BRANCH   8  11
HETATM   11  C7  UNK     1      17.028   7.160  32.855  1.00  0.00     0.108 A 
HETATM   12  C11 UNK     1      16.625   7.640  34.038  1.00  0.00     0.037 A 
HETATM   13  C8  UNK     1      15.779   8.822  34.099  1.00  0.00     0.001 A 
HETATM   14  C12 UNK     1      15.399   9.441  32.912  1.00  0.00     0.089 A 
HETATM   15  C15 UNK     1      15.333   9.357  35.310  1.00  0.00     0.038 A 
HETATM   16  O1  UNK     1      15.827   8.931  31.671  1.00  0.00    -0.274 OA
HETATM   17  C16 UNK     1      14.589  10.574  32.901  1.00  0.00     0.040 A 
HETATM   18  C14 UNK     1      16.637   7.802  31.581  1.00  0.00     0.304 A 
HETATM   19  O7  UNK     1      17.006   7.365  30.495  1.00  0.00    -0.259 OA
HETATM   20  C20 UNK     1      14.150  11.102  34.113  1.00  0.00     0.026 A 
HETATM   21  C19 UNK     1      14.520  10.496  35.315  1.00  0.00     0.035 A 
HETATM   22 Cl1  UNK     1      13.974  11.152  36.810  1.00  0.00    -0.084 Cl
ENDBRANCH   8  11
ENDBRANCH   5   7
BRANCH   3  23
HETATM   23  C10 UNK     1      18.572   3.700  29.667  1.00  0.00     0.296 C 
HETATM   24  O5  UNK     1      18.473   3.113  28.580  1.00  0.00    -0.259 OA
BRANCH  23  25
HETATM   25  O2  UNK     1      18.817   5.053  29.751  1.00  0.00    -0.322 OA
HETATM   26  C24 UNK     1      20.143   5.450  30.116  1.00  0.00     0.213 C 
ENDBRANCH  23  25
ENDBRANCH   3  23
BRANCH   4  27
HETATM   27  C6  UNK     1      18.906   0.161  33.244  1.00  0.00     0.263 C 
HETATM   28  O3  UNK     1      19.263  -0.883  32.650  1.00  0.00    -0.267 OA
HETATM   29  N2  UNK     1      18.797   0.201  34.654  1.00  0.00    -0.320 N 
HETATM   30  H6  UNK     1      18.513   1.092  35.057  1.00  0.00     0.169 HD
BRANCH  29  31
HETATM   31  C13 UNK     1      19.042  -0.821  35.605  1.00  0.00     0.068 A 
HETATM   32  C17 UNK     1      18.269  -0.897  36.751  1.00  0.00     0.095 A 
HETATM   33  C21 UNK     1      18.522  -1.908  37.678  1.00  0.00     0.039 A 
HETATM   34  C23 UNK     1      19.543  -2.829  37.444  1.00  0.00     0.003 A 
HETATM   35  C22 UNK     1      20.312  -2.738  36.284  1.00  0.00     0.002 A 
HETATM   36  C18 UNK     1      20.060  -1.727  35.357  1.00  0.00     0.032 A 
BRANCH  32  37
HETATM   37  O6  UNK     1      17.267  -0.007  36.998  1.00  0.00    -0.354 OA
HETATM   38  C25 UNK     1      17.532   1.018  37.952  1.00  0.00     0.210 C 
ENDBRANCH  32  37
ENDBRANCH  29  31
ENDBRANCH   4  27
TORSDOF 7
ENDMDL
MODEL 6
REMARK VINA RESULT:      -9.2      3.771      6.613
REMARK  7 active torsions:
REMARK  status: ('A' for Active; 'I' for Inactive)
REMARK    1  A    between atoms: C10_21  and  O2_4 
REMARK    2  A    between atoms: C17_28  and  O6_8 
REMARK    3  A    between atoms: C4_15  and  N1_10 
REMARK       I    between atoms: C9_20  and  N1_10 
REMARK    4  A    between atoms: C13_24  and  N2_11 
REMARK       I    between atoms: C6_17  and  N2_11 
REMARK    5  A    between atoms: C10_21  and  C2_13 
REMARK    6  A    between atoms: C3_14  and  C6_17 
REMARK    7  A    between atoms: C7_18  and  C9_20 
ROOT
HETATM    1  S1  UNK     1      17.958   2.873  34.387  1.00  0.00    -0.065 SA
HETATM    2  C1  UNK     1      18.666   1.803  32.161  1.00  0.00    -0.020 A 
HETATM    3  C2  UNK     1      18.617   3.207  31.926  1.00  0.00     0.080 A 
HETATM    4  C3  UNK     1      18.330   1.483  33.459  1.00  0.00     0.082 A 
HETATM    5  C4  UNK     1      18.249   3.879  33.049  1.00  0.00     0.094 A 
HETATM    6  C5  UNK     1      19.035   0.801  31.129  1.00  0.00     0.051 C 
ENDROOT
BRANCH   5   7
HETATM    7  N1  UNK     1      18.075   5.248  33.269  1.00  0.00    -0.316 N 
HETATM    8  C9  UNK     1      17.077   6.044  32.725  1.00  0.00     0.262 C 
HETATM    9  O4  UNK     1      16.168   5.721  31.962  1.00  0.00    -0.267 OA
HETATM   10  H4  UNK     1      18.752   5.658  33.906  1.00  0.00     0.169 HD
BRANCH   8  11
HETATM   11  C7  UNK     1      17.189   7.440  33.166  1.00  0.00     0.108 A 
HETATM   12  C11 UNK     1      16.038   8.075  33.416  1.00  0.00     0.037 A 
HETATM   13  C8  UNK     1      16.046   9.461  33.858  1.00  0.00     0.001 A 
HETATM   14  C12 UNK     1      17.267  10.110  34.016  1.00  0.00     0.089 A 
HETATM   15  C15 UNK     1      14.870  10.163  34.129  1.00  0.00     0.038 A 
HETATM   16  O1  UNK     1      18.475   9.435  33.752  1.00  0.00    -0.274 OA
HETATM   17  C16 UNK     1      17.344  11.436  34.436  1.00  0.00     0.040 A 
HETATM   18  C14 UNK     1      18.498   8.110  33.327  1.00  0.00     0.304 A 
HETATM   19  O7  UNK     1      19.555   7.530  33.101  1.00  0.00    -0.259 OA
HETATM   20  C20 UNK     1      16.166  12.129  34.704  1.00  0.00     0.026 A 
HETATM   21  C19 UNK     1      14.931  11.495  34.552  1.00  0.00     0.035 A 
HETATM   22 Cl1  UNK     1      13.479  12.357  34.886  1.00  0.00    -0.084 Cl
ENDBRANCH   8  11
ENDBRANCH   5   7
BRANCH   3  23
HETATM   23  C10 UNK     1      18.913   3.857  30.674  1.00  0.00     0.296 C 
HETATM   24  O5  UNK     1      18.445   3.501  29.583  1.00  0.00    -0.259 OA
BRANCH  23  25
HETATM   25  O2  UNK     1      19.775   4.925  30.788  1.00  0.00    -0.322 OA
HETATM   26  C24 UNK     1      19.565   6.025  29.896  1.00  0.00     0.213 C 
ENDBRANCH  23  25
ENDBRANCH   3  23
BRANCH   4  27
HETATM   27  C6  UNK     1      18.261   0.202  34.085  1.00  0.00     0.263 C 
HETATM   28  O3  UNK     1      17.409  -0.661  33.770  1.00  0.00    -0.267 OA
HETATM   29  N2  UNK     1      19.242  -0.062  35.070  1.00  0.00    -0.320 N 
HETATM   30  H6  UNK     1      19.903   0.688  35.259  1.00  0.00     0.169 HD
BRANCH  29  31
HETATM   31  C13 UNK     1      19.456  -1.237  35.835  1.00  0.00     0.068 A 
HETATM   32  C17 UNK     1      20.383  -2.175  35.414  1.00  0.00     0.095 A 
HETATM   33  C21 UNK     1      20.582  -3.326  36.177  1.00  0.00     0.039 A 
HETATM   34  C23 UNK     1      19.852  -3.521  37.349  1.00  0.00     0.003 A 
HETATM   35  C22 UNK     1      18.922  -2.565  37.759  1.00  0.00     0.002 A 
HETATM   36  C18 UNK     1      18.722  -1.414  36.996  1.00  0.00     0.032 A 
BRANCH  32  37
HETATM   37  O6  UNK     1      21.107  -2.003  34.272  1.00  0.00    -0.354 OA
HETATM   38  C25 UNK     1      20.590  -2.597  33.084  1.00  0.00     0.210 C 
ENDBRANCH  32  37
ENDBRANCH  29  31
ENDBRANCH   4  27
TORSDOF 7
ENDMDL
MODEL 7
REMARK VINA RESULT:      -9.1     18.423     22.576
REMARK  7 active torsions:
REMARK  status: ('A' for Active; 'I' for Inactive)
REMARK    1  A    between atoms: C10_21  and  O2_4 
REMARK    2  A    between atoms: C17_28  and  O6_8 
REMARK    3  A    between atoms: C4_15  and  N1_10 
REMARK       I    between atoms: C9_20  and  N1_10 
REMARK    4  A    between atoms: C13_24  and  N2_11 
REMARK       I    between atoms: C6_17  and  N2_11 
REMARK    5  A    between atoms: C10_21  and  C2_13 
REMARK    6  A    between atoms: C3_14  and  C6_17 
REMARK    7  A    between atoms: C7_18  and  C9_20 
ROOT
HETATM    1  S1  UNK     1      20.190  -3.074  13.737  1.00  0.00    -0.065 SA
HETATM    2  C1  UNK     1      18.117  -3.212  15.248  1.00  0.00    -0.020 A 
HETATM    3  C2  UNK     1      18.308  -4.521  14.718  1.00  0.00     0.080 A 
HETATM    4  C3  UNK     1      19.071  -2.327  14.795  1.00  0.00     0.082 A 
HETATM    5  C4  UNK     1      19.389  -4.564  13.896  1.00  0.00     0.094 A 
HETATM    6  C5  UNK     1      17.019  -2.845  16.178  1.00  0.00     0.051 C 
ENDROOT
BRANCH   5   7
HETATM    7  N1  UNK     1      19.935  -5.627  13.171  1.00  0.00    -0.316 N 
HETATM    8  C9  UNK     1      20.936  -6.485  13.607  1.00  0.00     0.262 C 
HETATM    9  O4  UNK     1      21.529  -6.487  14.684  1.00  0.00    -0.267 OA
HETATM   10  H4  UNK     1      19.523  -5.763  12.253  1.00  0.00     0.169 HD
BRANCH   8  11
HETATM   11  C7  UNK     1      21.273  -7.491  12.593  1.00  0.00     0.108 A 
HETATM   12  C11 UNK     1      21.335  -8.759  13.016  1.00  0.00     0.037 A 
HETATM   13  C8  UNK     1      21.662  -9.828  12.085  1.00  0.00     0.001 A 
HETATM   14  C12 UNK     1      21.907  -9.508  10.753  1.00  0.00     0.089 A 
HETATM   15  C15 UNK     1      21.738 -11.164  12.483  1.00  0.00     0.038 A 
HETATM   16  O1  UNK     1      21.839  -8.172  10.314  1.00  0.00    -0.274 OA
HETATM   17  C16 UNK     1      22.226 -10.484   9.811  1.00  0.00     0.040 A 
HETATM   18  C14 UNK     1      21.530  -7.128  11.181  1.00  0.00     0.304 A 
HETATM   19  O7  UNK     1      21.473  -5.967  10.789  1.00  0.00    -0.259 OA
HETATM   20  C20 UNK     1      22.299 -11.815  10.216  1.00  0.00     0.026 A 
HETATM   21  C19 UNK     1      22.057 -12.156  11.548  1.00  0.00     0.035 A 
HETATM   22 Cl1  UNK     1      22.149 -13.802  12.042  1.00  0.00    -0.084 Cl
ENDBRANCH   8  11
ENDBRANCH   5   7
BRANCH   3  23
HETATM   23  C10 UNK     1      17.479  -5.666  14.999  1.00  0.00     0.296 C 
HETATM   24  O5  UNK     1      16.709  -6.181  14.175  1.00  0.00    -0.259 OA
BRANCH  23  25
HETATM   25  O2  UNK     1      17.613  -6.153  16.280  1.00  0.00    -0.322 OA
HETATM   26  C24 UNK     1      16.413  -6.555  16.950  1.00  0.00     0.213 C 
ENDBRANCH  23  25
ENDBRANCH   3  23
BRANCH   4  27
HETATM   27  C6  UNK     1      19.228  -0.938  15.090  1.00  0.00     0.263 C 
HETATM   28  O3  UNK     1      19.457  -0.080  14.206  1.00  0.00    -0.267 OA
HETATM   29  N2  UNK     1      19.071  -0.569  16.447  1.00  0.00    -0.320 N 
HETATM   30  H6  UNK     1      18.876  -1.327  17.099  1.00  0.00     0.169 HD
BRANCH  29  31
HETATM   31  C13 UNK     1      19.132   0.716  17.044  1.00  0.00     0.068 A 
HETATM   32  C17 UNK     1      18.959   0.851  18.410  1.00  0.00     0.095 A 
HETATM   33  C21 UNK     1      19.021   2.122  18.982  1.00  0.00     0.039 A 
HETATM   34  C23 UNK     1      19.255   3.237  18.179  1.00  0.00     0.003 A 
HETATM   35  C22 UNK     1      19.427   3.083  16.804  1.00  0.00     0.002 A 
HETATM   36  C18 UNK     1      19.365   1.813  16.231  1.00  0.00     0.032 A 
BRANCH  32  37
HETATM   37  O6  UNK     1      18.729  -0.226  19.213  1.00  0.00    -0.354 OA
HETATM   38  C25 UNK     1      19.187  -0.139  20.559  1.00  0.00     0.210 C 
ENDBRANCH  32  37
ENDBRANCH  29  31
ENDBRANCH   4  27
TORSDOF 7
ENDMDL
MODEL 8
REMARK VINA RESULT:      -9.1     18.547     22.744
REMARK  7 active torsions:
REMARK  status: ('A' for Active; 'I' for Inactive)
REMARK    1  A    between atoms: C10_21  and  O2_4 
REMARK    2  A    between atoms: C17_28  and  O6_8 
REMARK    3  A    between atoms: C4_15  and  N1_10 
REMARK       I    between atoms: C9_20  and  N1_10 
REMARK    4  A    between atoms: C13_24  and  N2_11 
REMARK       I    between atoms: C6_17  and  N2_11 
REMARK    5  A    between atoms: C10_21  and  C2_13 
REMARK    6  A    between atoms: C3_14  and  C6_17 
REMARK    7  A    between atoms: C7_18  and  C9_20 
ROOT
HETATM    1  S1  UNK     1      19.238  -4.132  15.489  1.00  0.00    -0.065 SA
HETATM    2  C1  UNK     1      19.007  -2.056  13.992  1.00  0.00    -0.020 A 
HETATM    3  C2  UNK     1      19.465  -3.106  13.144  1.00  0.00     0.080 A 
HETATM    4  C3  UNK     1      18.843  -2.477  15.294  1.00  0.00     0.082 A 
HETATM    5  C4  UNK     1      19.623  -4.263  13.839  1.00  0.00     0.094 A 
HETATM    6  C5  UNK     1      18.740  -0.671  13.528  1.00  0.00     0.051 C 
ENDROOT
BRANCH   5   7
HETATM    7  N1  UNK     1      20.048  -5.525  13.413  1.00  0.00    -0.316 N 
HETATM    8  C9  UNK     1      19.310  -6.423  12.655  1.00  0.00     0.262 C 
HETATM    9  O4  UNK     1      18.168  -6.300  12.215  1.00  0.00    -0.267 OA
HETATM   10  H4  UNK     1      20.996  -5.762  13.690  1.00  0.00     0.169 HD
BRANCH   8  11
HETATM   11  C7  UNK     1      20.059  -7.657  12.387  1.00  0.00     0.108 A 
HETATM   12  C11 UNK     1      21.326  -7.502  11.985  1.00  0.00     0.037 A 
HETATM   13  C8  UNK     1      22.150  -8.666  11.695  1.00  0.00     0.001 A 
HETATM   14  C12 UNK     1      21.599  -9.935  11.842  1.00  0.00     0.089 A 
HETATM   15  C15 UNK     1      23.477  -8.552  11.272  1.00  0.00     0.038 A 
HETATM   16  O1  UNK     1      20.265 -10.090  12.266  1.00  0.00    -0.274 OA
HETATM   17  C16 UNK     1      22.333 -11.089  11.579  1.00  0.00     0.040 A 
HETATM   18  C14 UNK     1      19.452  -8.996  12.550  1.00  0.00     0.304 A 
HETATM   19  O7  UNK     1      18.292  -9.141  12.919  1.00  0.00    -0.259 OA
HETATM   20  C20 UNK     1      23.656 -10.967  11.159  1.00  0.00     0.026 A 
HETATM   21  C19 UNK     1      24.227  -9.702  11.005  1.00  0.00     0.035 A 
HETATM   22 Cl1  UNK     1      25.862  -9.558  10.485  1.00  0.00    -0.084 Cl
ENDBRANCH   8  11
ENDBRANCH   5   7
BRANCH   3  23
HETATM   23  C10 UNK     1      19.732  -2.985  11.733  1.00  0.00     0.296 C 
HETATM   24  O5  UNK     1      20.824  -2.632  11.264  1.00  0.00    -0.259 OA
BRANCH  23  25
HETATM   25  O2  UNK     1      18.657  -3.299  10.931  1.00  0.00    -0.322 OA
HETATM   26  C24 UNK     1      18.943  -3.964   9.696  1.00  0.00     0.213 C 
ENDBRANCH  23  25
ENDBRANCH   3  23
BRANCH   4  27
HETATM   27  C6  UNK     1      18.404  -1.738  16.435  1.00  0.00     0.263 C 
HETATM   28  O3  UNK     1      17.253  -1.853  16.915  1.00  0.00    -0.267 OA
HETATM   29  N2  UNK     1      19.364  -0.882  17.026  1.00  0.00    -0.320 N 
HETATM   30  H6  UNK     1      20.278  -0.856  16.580  1.00  0.00     0.169 HD
BRANCH  29  31
HETATM   31  C13 UNK     1      19.247  -0.056  18.172  1.00  0.00     0.068 A 
HETATM   32  C17 UNK     1      18.943   1.286  18.027  1.00  0.00     0.095 A 
HETATM   33  C21 UNK     1      18.831   2.087  19.164  1.00  0.00     0.039 A 
HETATM   34  C23 UNK     1      19.026   1.533  20.429  1.00  0.00     0.003 A 
HETATM   35  C22 UNK     1      19.332   0.178  20.557  1.00  0.00     0.002 A 
HETATM   36  C18 UNK     1      19.443  -0.623  19.421  1.00  0.00     0.032 A 
BRANCH  32  37
HETATM   37  O6  UNK     1      18.749   1.848  16.800  1.00  0.00    -0.354 OA
HETATM   38  C25 UNK     1      19.539   2.990  16.479  1.00  0.00     0.210 C 
ENDBRANCH  32  37
ENDBRANCH  29  31
ENDBRANCH   4  27
TORSDOF 7
ENDMDL
MODEL 9
REMARK VINA RESULT:      -9.0      3.905      7.207
REMARK  7 active torsions:
REMARK  status: ('A' for Active; 'I' for Inactive)
REMARK    1  A    between atoms: C10_21  and  O2_4 
REMARK    2  A    between atoms: C17_28  and  O6_8 
REMARK    3  A    between atoms: C4_15  and  N1_10 
REMARK       I    between atoms: C9_20  and  N1_10 
REMARK    4  A    between atoms: C13_24  and  N2_11 
REMARK       I    between atoms: C6_17  and  N2_11 
REMARK    5  A    between atoms: C10_21  and  C2_13 
REMARK    6  A    between atoms: C3_14  and  C6_17 
REMARK    7  A    between atoms: C7_18  and  C9_20 
ROOT
HETATM    1  S1  UNK     1      17.908   3.113  33.774  1.00  0.00    -0.065 SA
HETATM    2  C1  UNK     1      18.752   2.419  31.449  1.00  0.00    -0.020 A 
HETATM    3  C2  UNK     1      18.520   3.823  31.383  1.00  0.00     0.080 A 
HETATM    4  C3  UNK     1      18.460   1.905  32.693  1.00  0.00     0.082 A 
HETATM    5  C4  UNK     1      18.066   4.301  32.571  1.00  0.00     0.094 A 
HETATM    6  C5  UNK     1      19.251   1.606  30.311  1.00  0.00     0.051 C 
ENDROOT
BRANCH   5   7
HETATM    7  N1  UNK     1      17.714   5.600  32.950  1.00  0.00    -0.316 N 
HETATM    8  C9  UNK     1      18.480   6.463  33.720  1.00  0.00     0.262 C 
HETATM    9  O4  UNK     1      19.591   6.272  34.211  1.00  0.00    -0.267 OA
HETATM   10  H4  UNK     1      16.813   5.910  32.596  1.00  0.00     0.169 HD
BRANCH   8  11
HETATM   11  C7  UNK     1      17.808   7.751  33.931  1.00  0.00     0.108 A 
HETATM   12  C11 UNK     1      18.556   8.845  33.743  1.00  0.00     0.037 A 
HETATM   13  C8  UNK     1      17.979  10.168  33.928  1.00  0.00     0.001 A 
HETATM   14  C12 UNK     1      16.642  10.273  34.300  1.00  0.00     0.089 A 
HETATM   15  C15 UNK     1      18.722  11.337  33.745  1.00  0.00     0.038 A 
HETATM   16  O1  UNK     1      15.861   9.118  34.495  1.00  0.00    -0.274 OA
HETATM   17  C16 UNK     1      16.030  11.509  34.494  1.00  0.00     0.040 A 
HETATM   18  C14 UNK     1      16.385   7.839  34.326  1.00  0.00     0.304 A 
HETATM   19  O7  UNK     1      15.697   6.839  34.497  1.00  0.00    -0.259 OA
HETATM   20  C20 UNK     1      16.777  12.670  34.309  1.00  0.00     0.026 A 
HETATM   21  C19 UNK     1      18.120  12.585  33.935  1.00  0.00     0.035 A 
HETATM   22 Cl1  UNK     1      19.039  14.023  33.707  1.00  0.00    -0.084 Cl
ENDBRANCH   8  11
ENDBRANCH   5   7
BRANCH   3  23
HETATM   23  C10 UNK     1      18.730   4.652  30.222  1.00  0.00     0.296 C 
HETATM   24  O5  UNK     1      18.397   4.329  29.072  1.00  0.00    -0.259 OA
BRANCH  23  25
HETATM   25  O2  UNK     1      19.341   5.855  30.497  1.00  0.00    -0.322 OA
HETATM   26  C24 UNK     1      20.750   5.823  30.753  1.00  0.00     0.213 C 
ENDBRANCH  23  25
ENDBRANCH   3  23
BRANCH   4  27
HETATM   27  C6  UNK     1      18.558   0.559  33.161  1.00  0.00     0.263 C 
HETATM   28  O3  UNK     1      18.498  -0.431  32.395  1.00  0.00    -0.267 OA
HETATM   29  N2  UNK     1      18.768   0.398  34.551  1.00  0.00    -0.320 N 
HETATM   30  H6  UNK     1      18.816   1.254  35.101  1.00  0.00     0.169 HD
BRANCH  29  31
HETATM   31  C13 UNK     1      18.940  -0.791  35.304  1.00  0.00     0.068 A 
HETATM   32  C17 UNK     1      18.164  -1.015  36.428  1.00  0.00     0.095 A 
HETATM   33  C21 UNK     1      18.345  -2.189  37.158  1.00  0.00     0.039 A 
HETATM   34  C23 UNK     1      19.298  -3.123  36.752  1.00  0.00     0.003 A 
HETATM   35  C22 UNK     1      20.070  -2.883  35.617  1.00  0.00     0.002 A 
HETATM   36  C18 UNK     1      19.891  -1.708  34.886  1.00  0.00     0.032 A 
BRANCH  32  37
HETATM   37  O6  UNK     1      17.228  -0.115  36.842  1.00  0.00    -0.354 OA
HETATM   38  C25 UNK     1      17.581   0.732  37.932  1.00  0.00     0.210 C 
ENDBRANCH  32  37
ENDBRANCH  29  31
ENDBRANCH   4  27
TORSDOF 7
ENDMDL
MODEL 10
REMARK VINA RESULT:      -8.9      3.817      6.428
REMARK  7 active torsions:
REMARK  status: ('A' for Active; 'I' for Inactive)
REMARK    1  A    between atoms: C10_21  and  O2_4 
REMARK    2  A    between atoms: C17_28  and  O6_8 
REMARK    3  A    between atoms: C4_15  and  N1_10 
REMARK       I    between atoms: C9_20  and  N1_10 
REMARK    4  A    between atoms: C13_24  and  N2_11 
REMARK       I    between atoms: C6_17  and  N2_11 
REMARK    5  A    between atoms: C10_21  and  C2_13 
REMARK    6  A    between atoms: C3_14  and  C6_17 
REMARK    7  A    between atoms: C7_18  and  C9_20 
ROOT
HETATM    1  S1  UNK     1      21.719  -5.500  38.078  1.00  0.00    -0.065 SA
HETATM    2  C1  UNK     1      20.347  -7.636  37.679  1.00  0.00    -0.020 A 
HETATM    3  C2  UNK     1      19.525  -6.553  37.254  1.00  0.00     0.080 A 
HETATM    4  C3  UNK     1      21.568  -7.204  38.151  1.00  0.00     0.082 A 
HETATM    5  C4  UNK     1      20.158  -5.362  37.421  1.00  0.00     0.094 A 
HETATM    6  C5  UNK     1      19.937  -9.062  37.623  1.00  0.00     0.051 C 
ENDROOT
BRANCH   5   7
HETATM    7  N1  UNK     1      19.730  -4.061  37.142  1.00  0.00    -0.316 N 
HETATM    8  C9  UNK     1      19.855  -3.402  35.927  1.00  0.00     0.262 C 
HETATM    9  O4  UNK     1      20.352  -3.813  34.879  1.00  0.00    -0.267 OA
HETATM   10  H4  UNK     1      19.274  -3.595  37.920  1.00  0.00     0.169 HD
BRANCH   8  11
HETATM   11  C7  UNK     1      19.299  -2.045  35.981  1.00  0.00     0.108 A 
HETATM   12  C11 UNK     1      19.252  -1.379  34.821  1.00  0.00     0.037 A 
HETATM   13  C8  UNK     1      18.717  -0.027  34.773  1.00  0.00     0.001 A 
HETATM   14  C12 UNK     1      18.258   0.557  35.950  1.00  0.00     0.089 A 
HETATM   15  C15 UNK     1      18.649   0.705  33.586  1.00  0.00     0.038 A 
HETATM   16  O1  UNK     1      18.310  -0.149  37.167  1.00  0.00    -0.274 OA
HETATM   17  C16 UNK     1      17.735   1.848  35.972  1.00  0.00     0.040 A 
HETATM   18  C14 UNK     1      18.817  -1.444  37.244  1.00  0.00     0.304 A 
HETATM   19  O7  UNK     1      18.857  -2.051  38.308  1.00  0.00    -0.259 OA
HETATM   20  C20 UNK     1      17.670   2.572  34.783  1.00  0.00     0.026 A 
HETATM   21  C19 UNK     1      18.126   2.003  33.593  1.00  0.00     0.035 A 
HETATM   22 Cl1  UNK     1      18.043   2.902  32.127  1.00  0.00    -0.084 Cl
ENDBRANCH   8  11
ENDBRANCH   5   7
BRANCH   3  23
HETATM   23  C10 UNK     1      18.194  -6.676  36.713  1.00  0.00     0.296 C 
HETATM   24  O5  UNK     1      17.187  -6.179  37.237  1.00  0.00    -0.259 OA
BRANCH  23  25
HETATM   25  O2  UNK     1      18.130  -7.402  35.544  1.00  0.00    -0.322 OA
HETATM   26  C24 UNK     1      16.828  -7.633  34.995  1.00  0.00     0.213 C 
ENDBRANCH  23  25
ENDBRANCH   3  23
BRANCH   4  27
HETATM   27  C6  UNK     1      22.661  -7.968  38.663  1.00  0.00     0.263 C 
HETATM   28  O3  UNK     1      22.591  -8.618  39.732  1.00  0.00    -0.267 OA
HETATM   29  N2  UNK     1      23.833  -7.985  37.870  1.00  0.00    -0.320 N 
HETATM   30  H6  UNK     1      23.802  -7.440  37.011  1.00  0.00     0.169 HD
BRANCH  29  31
HETATM   31  C13 UNK     1      25.056  -8.669  38.086  1.00  0.00     0.068 A 
HETATM   32  C17 UNK     1      25.379  -9.767  37.309  1.00  0.00     0.095 A 
HETATM   33  C21 UNK     1      26.586 -10.430  37.534  1.00  0.00     0.039 A 
HETATM   34  C23 UNK     1      27.451  -9.983  38.532  1.00  0.00     0.003 A 
HETATM   35  C22 UNK     1      27.110  -8.874  39.306  1.00  0.00     0.002 A 
HETATM   36  C18 UNK     1      25.903  -8.211  39.082  1.00  0.00     0.032 A 
BRANCH  32  37
HETATM   37  O6  UNK     1      24.547 -10.220  36.329  1.00  0.00    -0.354 OA
HETATM   38  C25 UNK     1      24.658 -11.595  35.970  1.00  0.00     0.210 C 
ENDBRANCH  32  37
ENDBRANCH  29  31
ENDBRANCH   4  27
TORSDOF 7
ENDMDL
