MODEL 1
REMARK VINA RESULT:      -9.2      0.000      0.000
REMARK  3 active torsions:
REMARK  status: ('A' for Active; 'I' for Inactive)
REMARK    1  A    between atoms: C12_17  and  O2_3 
REMARK    2  A    between atoms: C6_11  and  O2_3 
REMARK    3  A    between atoms: C11_16  and  C12_17 
ROOT
HETATM    1  O1  UNK     1      16.606   8.290  32.700  1.00  0.00    -0.275 OA
HETATM    2  O3  UNK     1      15.636  10.093  33.717  1.00  0.00    -0.260 OA
HETATM    3  C1  UNK     1      18.956   7.790  33.140  1.00  0.00     0.004 A 
HETATM    4  C2  UNK     1      17.752   7.494  32.499  1.00  0.00     0.092 A 
HETATM    5  C3  UNK     1      19.011   8.956  34.033  1.00  0.00    -0.043 A 
HETATM    6  C4  UNK     1      20.049   6.951  32.889  1.00  0.00     0.017 A 
HETATM    7  C5  UNK     1      17.615   6.407  31.636  1.00  0.00     0.075 A 
HETATM    8  C6  UNK     1      18.711   5.584  31.400  1.00  0.00     0.082 A 
HETATM    9  C7  UNK     1      19.927   5.856  32.026  1.00  0.00     0.038 A 
HETATM   10  C8  UNK     1      17.905   9.694  34.205  1.00  0.00     0.090 A 
HETATM   11  C9  UNK     1      20.291   9.302  34.735  1.00  0.00     0.049 C 
HETATM   12  C10 UNK     1      16.627   9.394  33.538  1.00  0.00     0.288 A 
ENDROOT
BRANCH   8  13
HETATM   13  O2  UNK     1      18.598   4.518  30.563  1.00  0.00    -0.275 OA
BRANCH  13  14
HETATM   14  C12 UNK     1      18.297   3.312  31.202  1.00  0.00     0.298 C 
HETATM   15  O4  UNK     1      17.823   3.201  32.324  1.00  0.00    -0.259 OA
BRANCH  14  16
HETATM   16  C11 UNK     1      18.619   2.149  30.338  1.00  0.00     0.040 A 
HETATM   17  C13 UNK     1      18.021   2.055  29.097  1.00  0.00     0.020 A 
HETATM   18  C15 UNK     1      18.325   0.962  28.285  1.00  0.00     0.043 A 
HETATM   19  C17 UNK     1      19.219  -0.011  28.729  1.00  0.00     0.116 A 
HETATM   20  C16 UNK     1      19.810   0.108  29.988  1.00  0.00     0.043 A 
HETATM   21  F1  UNK     1      19.510  -1.061  27.950  1.00  0.00    -0.206 F 
HETATM   22  C14 UNK     1      19.507   1.199  30.801  1.00  0.00     0.020 A 
ENDBRANCH  14  16
ENDBRANCH  13  14
ENDBRANCH   8  13
TORSDOF 3
ENDMDL
MODEL 2
REMARK VINA RESULT:      -8.9      3.414      7.966
REMARK  3 active torsions:
REMARK  status: ('A' for Active; 'I' for Inactive)
REMARK    1  A    between atoms: C12_17  and  O2_3 
REMARK    2  A    between atoms: C6_11  and  O2_3 
REMARK    3  A    between atoms: C11_16  and  C12_17 
ROOT
HETATM    1  O1  UNK     1      18.924   0.334  33.091  1.00  0.00    -0.275 OA
HETATM    2  O3  UNK     1      19.333  -1.528  34.354  1.00  0.00    -0.260 OA
HETATM    3  C1  UNK     1      19.384   0.276  30.692  1.00  0.00     0.004 A 
HETATM    4  C2  UNK     1      18.942   0.958  31.827  1.00  0.00     0.092 A 
HETATM    5  C3  UNK     1      19.837  -1.115  30.838  1.00  0.00    -0.043 A 
HETATM    6  C4  UNK     1      19.370   0.965  29.473  1.00  0.00     0.017 A 
HETATM    7  C5  UNK     1      18.496   2.279  31.776  1.00  0.00     0.075 A 
HETATM    8  C6  UNK     1      18.489   2.947  30.556  1.00  0.00     0.082 A 
HETATM    9  C7  UNK     1      18.925   2.290  29.406  1.00  0.00     0.038 A 
HETATM   10  C8  UNK     1      19.808  -1.682  32.053  1.00  0.00     0.090 A 
HETATM   11  C9  UNK     1      20.320  -1.875  29.638  1.00  0.00     0.049 C 
HETATM   12  C10 UNK     1      19.343  -0.977  33.258  1.00  0.00     0.288 A 
ENDROOT
BRANCH   8  13
HETATM   13  O2  UNK     1      18.056   4.235  30.484  1.00  0.00    -0.275 OA
BRANCH  13  14
HETATM   14  C12 UNK     1      19.039   5.189  30.762  1.00  0.00     0.298 C 
HETATM   15  O4  UNK     1      20.012   5.432  30.063  1.00  0.00    -0.259 OA
BRANCH  14  16
HETATM   16  C11 UNK     1      18.755   5.898  32.035  1.00  0.00     0.040 A 
HETATM   17  C13 UNK     1      19.782   6.568  32.669  1.00  0.00     0.020 A 
HETATM   18  C15 UNK     1      19.515   7.235  33.864  1.00  0.00     0.043 A 
HETATM   19  C17 UNK     1      18.227   7.220  34.399  1.00  0.00     0.116 A 
HETATM   20  C16 UNK     1      17.206   6.535  33.739  1.00  0.00     0.043 A 
HETATM   21  F1  UNK     1      17.971   7.860  35.548  1.00  0.00    -0.206 F 
HETATM   22  C14 UNK     1      17.473   5.867  32.544  1.00  0.00     0.020 A 
ENDBRANCH  14  16
ENDBRANCH  13  14
ENDBRANCH   8  13
TORSDOF 3
ENDMDL
MODEL 3
REMARK VINA RESULT:      -8.7      8.631     10.671
REMARK  3 active torsions:
REMARK  status: ('A' for Active; 'I' for Inactive)
REMARK    1  A    between atoms: C12_17  and  O2_3 
REMARK    2  A    between atoms: C6_11  and  O2_3 
REMARK    3  A    between atoms: C11_16  and  C12_17 
ROOT
HETATM    1  O1  UNK     1      19.014  -0.352  34.060  1.00  0.00    -0.275 OA
HETATM    2  O3  UNK     1      18.256   1.420  32.831  1.00  0.00    -0.260 OA
HETATM    3  C1  UNK     1      18.325  -0.570  36.394  1.00  0.00     0.004 A 
HETATM    4  C2  UNK     1      19.039  -1.040  35.291  1.00  0.00     0.092 A 
HETATM    5  C3  UNK     1      17.542   0.665  36.251  1.00  0.00    -0.043 A 
HETATM    6  C4  UNK     1      18.401  -1.311  37.580  1.00  0.00     0.017 A 
HETATM    7  C5  UNK     1      19.808  -2.204  35.341  1.00  0.00     0.075 A 
HETATM    8  C6  UNK     1      19.869  -2.926  36.527  1.00  0.00     0.082 A 
HETATM    9  C7  UNK     1      19.167  -2.480  37.646  1.00  0.00     0.038 A 
HETATM   10  C8  UNK     1      17.537   1.298  35.069  1.00  0.00     0.090 A 
HETATM   11  C9  UNK     1      16.765   1.198  37.420  1.00  0.00     0.049 C 
HETATM   12  C10 UNK     1      18.283   0.814  33.896  1.00  0.00     0.288 A 
ENDROOT
BRANCH   8  13
HETATM   13  O2  UNK     1      20.612  -4.064  36.597  1.00  0.00    -0.275 OA
BRANCH  13  14
HETATM   14  C12 UNK     1      19.874  -5.216  36.883  1.00  0.00     0.298 C 
HETATM   15  O4  UNK     1      18.796  -5.512  36.389  1.00  0.00    -0.259 OA
BRANCH  14  16
HETATM   16  C11 UNK     1      20.574  -6.069  37.878  1.00  0.00     0.040 A 
HETATM   17  C13 UNK     1      19.871  -7.082  38.499  1.00  0.00     0.020 A 
HETATM   18  C15 UNK     1      20.528  -7.883  39.432  1.00  0.00     0.043 A 
HETATM   19  C17 UNK     1      21.873  -7.656  39.723  1.00  0.00     0.116 A 
HETATM   20  C16 UNK     1      22.561  -6.626  39.081  1.00  0.00     0.043 A 
HETATM   21  F1  UNK     1      22.503  -8.426  40.620  1.00  0.00    -0.206 F 
HETATM   22  C14 UNK     1      21.904  -5.824  38.148  1.00  0.00     0.020 A 
ENDBRANCH  14  16
ENDBRANCH  13  14
ENDBRANCH   8  13
TORSDOF 3
ENDMDL
MODEL 4
REMARK VINA RESULT:      -8.5     21.600     24.083
REMARK  3 active torsions:
REMARK  status: ('A' for Active; 'I' for Inactive)
REMARK    1  A    between atoms: C12_17  and  O2_3 
REMARK    2  A    between atoms: C6_11  and  O2_3 
REMARK    3  A    between atoms: C11_16  and  C12_17 
ROOT
HETATM    1  O1  UNK     1       9.484   5.659   9.485  1.00  0.00    -0.275 OA
HETATM    2  O3  UNK     1       7.242   5.823   9.070  1.00  0.00    -0.260 OA
HETATM    3  C1  UNK     1      11.063   5.908   7.637  1.00  0.00     0.004 A 
HETATM    4  C2  UNK     1      10.804   5.688   8.990  1.00  0.00     0.092 A 
HETATM    5  C3  UNK     1       9.927   6.110   6.726  1.00  0.00    -0.043 A 
HETATM    6  C4  UNK     1      12.402   5.923   7.225  1.00  0.00     0.017 A 
HETATM    7  C5  UNK     1      11.824   5.487   9.921  1.00  0.00     0.075 A 
HETATM    8  C6  UNK     1      13.147   5.507   9.494  1.00  0.00     0.082 A 
HETATM    9  C7  UNK     1      13.436   5.725   8.147  1.00  0.00     0.038 A 
HETATM   10  C8  UNK     1       8.682   6.078   7.225  1.00  0.00     0.090 A 
HETATM   11  C9  UNK     1      10.172   6.348   5.265  1.00  0.00     0.049 C 
HETATM   12  C10 UNK     1       8.394   5.848   8.650  1.00  0.00     0.288 A 
ENDROOT
BRANCH   8  13
HETATM   13  O2  UNK     1      14.157   5.315  10.385  1.00  0.00    -0.275 OA
BRANCH  13  14
HETATM   14  C12 UNK     1      15.421   5.672   9.910  1.00  0.00     0.298 C 
HETATM   15  O4  UNK     1      16.194   4.933   9.317  1.00  0.00    -0.259 OA
BRANCH  14  16
HETATM   16  C11 UNK     1      15.726   7.095  10.208  1.00  0.00     0.040 A 
HETATM   17  C13 UNK     1      16.883   7.649   9.700  1.00  0.00     0.020 A 
HETATM   18  C15 UNK     1      17.169   8.985   9.980  1.00  0.00     0.043 A 
HETATM   19  C17 UNK     1      16.291   9.739  10.759  1.00  0.00     0.116 A 
HETATM   20  C16 UNK     1      15.127   9.154  11.260  1.00  0.00     0.043 A 
HETATM   21  F1  UNK     1      16.565  11.022  11.028  1.00  0.00    -0.206 F 
HETATM   22  C14 UNK     1      14.841   7.818  10.982  1.00  0.00     0.020 A 
ENDBRANCH  14  16
ENDBRANCH  13  14
ENDBRANCH   8  13
TORSDOF 3
ENDMDL
MODEL 5
REMARK VINA RESULT:      -8.5      3.433      8.031
REMARK  3 active torsions:
REMARK  status: ('A' for Active; 'I' for Inactive)
REMARK    1  A    between atoms: C12_17  and  O2_3 
REMARK    2  A    between atoms: C6_11  and  O2_3 
REMARK    3  A    between atoms: C11_16  and  C12_17 
ROOT
HETATM    1  O1  UNK     1      19.909   0.154  29.777  1.00  0.00    -0.275 OA
HETATM    2  O3  UNK     1      20.614  -2.005  29.524  1.00  0.00    -0.260 OA
HETATM    3  C1  UNK     1      18.872   0.834  31.883  1.00  0.00     0.004 A 
HETATM    4  C2  UNK     1      19.307   1.135  30.591  1.00  0.00     0.092 A 
HETATM    5  C3  UNK     1      19.052  -0.536  32.385  1.00  0.00    -0.043 A 
HETATM    6  C4  UNK     1      18.285   1.864  32.628  1.00  0.00     0.017 A 
HETATM    7  C5  UNK     1      19.173   2.410  30.039  1.00  0.00     0.075 A 
HETATM    8  C6  UNK     1      18.589   3.420  30.795  1.00  0.00     0.082 A 
HETATM    9  C7  UNK     1      18.145   3.148  32.088  1.00  0.00     0.038 A 
HETATM   10  C8  UNK     1      19.628  -1.448  31.588  1.00  0.00     0.090 A 
HETATM   11  C9  UNK     1      18.594  -0.893  33.768  1.00  0.00     0.049 C 
HETATM   12  C10 UNK     1      20.093  -1.145  30.225  1.00  0.00     0.288 A 
ENDROOT
BRANCH   8  13
HETATM   13  O2  UNK     1      18.451   4.670  30.275  1.00  0.00    -0.275 OA
BRANCH  13  14
HETATM   14  C12 UNK     1      19.460   5.563  30.646  1.00  0.00     0.298 C 
HETATM   15  O4  UNK     1      20.577   5.619  30.152  1.00  0.00    -0.259 OA
BRANCH  14  16
HETATM   16  C11 UNK     1      19.006   6.466  31.734  1.00  0.00     0.040 A 
HETATM   17  C13 UNK     1      19.850   6.701  32.800  1.00  0.00     0.020 A 
HETATM   18  C15 UNK     1      19.424   7.550  33.821  1.00  0.00     0.043 A 
HETATM   19  C17 UNK     1      18.165   8.147  33.753  1.00  0.00     0.116 A 
HETATM   20  C16 UNK     1      17.331   7.893  32.664  1.00  0.00     0.043 A 
HETATM   21  F1  UNK     1      17.756   8.961  34.735  1.00  0.00    -0.206 F 
HETATM   22  C14 UNK     1      17.756   7.043  31.643  1.00  0.00     0.020 A 
ENDBRANCH  14  16
ENDBRANCH  13  14
ENDBRANCH   8  13
TORSDOF 3
ENDMDL
MODEL 6
REMARK VINA RESULT:      -8.5      1.452      2.160
REMARK  3 active torsions:
REMARK  status: ('A' for Active; 'I' for Inactive)
REMARK    1  A    between atoms: C12_17  and  O2_3 
REMARK    2  A    between atoms: C6_11  and  O2_3 
REMARK    3  A    between atoms: C11_16  and  C12_17 
ROOT
HETATM    1  O1  UNK     1      20.297   8.026  33.601  1.00  0.00    -0.275 OA
HETATM    2  O3  UNK     1      20.974   9.752  34.938  1.00  0.00    -0.260 OA
HETATM    3  C1  UNK     1      17.914   7.731  33.147  1.00  0.00     0.004 A 
HETATM    4  C2  UNK     1      19.240   7.327  32.983  1.00  0.00     0.092 A 
HETATM    5  C3  UNK     1      17.634   8.906  33.985  1.00  0.00    -0.043 A 
HETATM    6  C4  UNK     1      16.922   6.984  32.499  1.00  0.00     0.017 A 
HETATM    7  C5  UNK     1      19.592   6.223  32.205  1.00  0.00     0.075 A 
HETATM    8  C6  UNK     1      18.593   5.495  31.568  1.00  0.00     0.082 A 
HETATM    9  C7  UNK     1      17.259   5.875  31.715  1.00  0.00     0.038 A 
HETATM   10  C8  UNK     1      18.659   9.551  34.560  1.00  0.00     0.090 A 
HETATM   11  C9  UNK     1      16.219   9.364  34.183  1.00  0.00     0.049 C 
HETATM   12  C10 UNK     1      20.062   9.138  34.395  1.00  0.00     0.288 A 
ENDROOT
BRANCH   8  13
HETATM   13  O2  UNK     1      18.915   4.416  30.804  1.00  0.00    -0.275 OA
BRANCH  13  14
HETATM   14  C12 UNK     1      18.447   3.197  31.302  1.00  0.00     0.298 C 
HETATM   15  O4  UNK     1      17.935   3.026  32.399  1.00  0.00    -0.259 OA
BRANCH  14  16
HETATM   16  C11 UNK     1      18.639   2.104  30.315  1.00  0.00     0.040 A 
HETATM   17  C13 UNK     1      17.907   2.125  29.146  1.00  0.00     0.020 A 
HETATM   18  C15 UNK     1      18.088   1.098  28.219  1.00  0.00     0.043 A 
HETATM   19  C17 UNK     1      18.998   0.074  28.481  1.00  0.00     0.116 A 
HETATM   20  C16 UNK     1      19.726   0.076  29.672  1.00  0.00     0.043 A 
HETATM   21  F1  UNK     1      19.171  -0.913  27.592  1.00  0.00    -0.206 F 
HETATM   22  C14 UNK     1      19.545   1.101  30.599  1.00  0.00     0.020 A 
ENDBRANCH  14  16
ENDBRANCH  13  14
ENDBRANCH   8  13
TORSDOF 3
ENDMDL
MODEL 7
REMARK VINA RESULT:      -8.4      3.430      7.265
REMARK  3 active torsions:
REMARK  status: ('A' for Active; 'I' for Inactive)
REMARK    1  A    between atoms: C12_17  and  O2_3 
REMARK    2  A    between atoms: C6_11  and  O2_3 
REMARK    3  A    between atoms: C11_16  and  C12_17 
ROOT
HETATM    1  O1  UNK     1      17.708   2.009  33.921  1.00  0.00    -0.275 OA
HETATM    2  O3  UNK     1      17.283   0.710  35.754  1.00  0.00    -0.260 OA
HETATM    3  C1  UNK     1      18.756   1.000  31.958  1.00  0.00     0.004 A 
HETATM    4  C2  UNK     1      18.217   2.110  32.610  1.00  0.00     0.092 A 
HETATM    5  C3  UNK     1      18.786  -0.288  32.667  1.00  0.00    -0.043 A 
HETATM    6  C4  UNK     1      19.240   1.182  30.657  1.00  0.00     0.017 A 
HETATM    7  C5  UNK     1      18.151   3.368  32.010  1.00  0.00     0.075 A 
HETATM    8  C6  UNK     1      18.636   3.529  30.717  1.00  0.00     0.082 A 
HETATM    9  C7  UNK     1      19.180   2.438  30.040  1.00  0.00     0.038 A 
HETATM   10  C8  UNK     1      18.294  -0.354  33.913  1.00  0.00     0.090 A 
HETATM   11  C9  UNK     1      19.360  -1.499  31.994  1.00  0.00     0.049 C 
HETATM   12  C10 UNK     1      17.722   0.808  34.613  1.00  0.00     0.288 A 
ENDROOT
BRANCH   8  13
HETATM   13  O2  UNK     1      18.579   4.747  30.112  1.00  0.00    -0.275 OA
BRANCH  13  14
HETATM   14  C12 UNK     1      19.537   5.659  30.563  1.00  0.00     0.298 C 
HETATM   15  O4  UNK     1      20.672   5.775  30.122  1.00  0.00    -0.259 OA
BRANCH  14  16
HETATM   16  C11 UNK     1      19.003   6.501  31.663  1.00  0.00     0.040 A 
HETATM   17  C13 UNK     1      17.747   7.056  31.528  1.00  0.00     0.020 A 
HETATM   18  C15 UNK     1      17.246   7.846  32.562  1.00  0.00     0.043 A 
HETATM   19  C17 UNK     1      18.010   8.063  33.709  1.00  0.00     0.116 A 
HETATM   20  C16 UNK     1      19.277   7.489  33.821  1.00  0.00     0.043 A 
HETATM   21  F1  UNK     1      17.528   8.822  34.702  1.00  0.00    -0.206 F 
HETATM   22  C14 UNK     1      19.779   6.700  32.787  1.00  0.00     0.020 A 
ENDBRANCH  14  16
ENDBRANCH  13  14
ENDBRANCH   8  13
TORSDOF 3
ENDMDL
MODEL 8
REMARK VINA RESULT:      -8.3     10.106     14.408
REMARK  3 active torsions:
REMARK  status: ('A' for Active; 'I' for Inactive)
REMARK    1  A    between atoms: C12_17  and  O2_3 
REMARK    2  A    between atoms: C6_11  and  O2_3 
REMARK    3  A    between atoms: C11_16  and  C12_17 
ROOT
HETATM    1  O1  UNK     1      21.531  -9.065  35.179  1.00  0.00    -0.275 OA
HETATM    2  O3  UNK     1      22.550 -11.093  34.902  1.00  0.00    -0.260 OA
HETATM    3  C1  UNK     1      19.906  -8.781  36.982  1.00  0.00     0.004 A 
HETATM    4  C2  UNK     1      20.617  -8.267  35.897  1.00  0.00     0.092 A 
HETATM    5  C3  UNK     1      20.125 -10.183  37.367  1.00  0.00    -0.043 A 
HETATM    6  C4  UNK     1      19.018  -7.923  37.643  1.00  0.00     0.017 A 
HETATM    7  C5  UNK     1      20.468  -6.947  35.466  1.00  0.00     0.075 A 
HETATM    8  C6  UNK     1      19.582  -6.110  36.137  1.00  0.00     0.082 A 
HETATM    9  C7  UNK     1      18.858  -6.597  37.224  1.00  0.00     0.038 A 
HETATM   10  C8  UNK     1      21.000 -10.919  36.666  1.00  0.00     0.090 A 
HETATM   11  C9  UNK     1      19.375 -10.767  38.527  1.00  0.00     0.049 C 
HETATM   12  C10 UNK     1      21.758 -10.389  35.521  1.00  0.00     0.288 A 
ENDROOT
BRANCH   8  13
HETATM   13  O2  UNK     1      19.424  -4.820  35.734  1.00  0.00    -0.275 OA
BRANCH  13  14
HETATM   14  C12 UNK     1      20.137  -3.888  36.492  1.00  0.00     0.298 C 
HETATM   15  O4  UNK     1      21.208  -4.090  37.044  1.00  0.00    -0.259 OA
BRANCH  14  16
HETATM   16  C11 UNK     1      19.428  -2.584  36.546  1.00  0.00     0.040 A 
HETATM   17  C13 UNK     1      19.489  -1.747  35.450  1.00  0.00     0.020 A 
HETATM   18  C15 UNK     1      18.823  -0.523  35.501  1.00  0.00     0.043 A 
HETATM   19  C17 UNK     1      18.111  -0.162  36.644  1.00  0.00     0.116 A 
HETATM   20  C16 UNK     1      18.066  -1.026  37.739  1.00  0.00     0.043 A 
HETATM   21  F1  UNK     1      17.472   1.015  36.693  1.00  0.00    -0.206 F 
HETATM   22  C14 UNK     1      18.732  -2.250  37.689  1.00  0.00     0.020 A 
ENDBRANCH  14  16
ENDBRANCH  13  14
ENDBRANCH   8  13
TORSDOF 3
ENDMDL
MODEL 9
REMARK VINA RESULT:      -8.2      5.745      8.519
REMARK  3 active torsions:
REMARK  status: ('A' for Active; 'I' for Inactive)
REMARK    1  A    between atoms: C12_17  and  O2_3 
REMARK    2  A    between atoms: C6_11  and  O2_3 
REMARK    3  A    between atoms: C11_16  and  C12_17 
ROOT
HETATM    1  O1  UNK     1      18.422   1.008  31.168  1.00  0.00    -0.275 OA
HETATM    2  O3  UNK     1      18.031   2.530  29.508  1.00  0.00    -0.260 OA
HETATM    3  C1  UNK     1      20.035  -0.787  30.789  1.00  0.00     0.004 A 
HETATM    4  C2  UNK     1      19.114  -0.138  31.611  1.00  0.00     0.092 A 
HETATM    5  C3  UNK     1      20.274  -0.253  29.440  1.00  0.00    -0.043 A 
HETATM    6  C4  UNK     1      20.681  -1.919  31.303  1.00  0.00     0.017 A 
HETATM    7  C5  UNK     1      18.828  -0.579  32.904  1.00  0.00     0.075 A 
HETATM    8  C6  UNK     1      19.481  -1.704  33.397  1.00  0.00     0.082 A 
HETATM    9  C7  UNK     1      20.406  -2.373  32.598  1.00  0.00     0.038 A 
HETATM   10  C8  UNK     1      19.602   0.838  29.046  1.00  0.00     0.090 A 
HETATM   11  C9  UNK     1      21.257  -0.930  28.530  1.00  0.00     0.049 C 
HETATM   12  C10 UNK     1      18.629   1.535  29.903  1.00  0.00     0.288 A 
ENDROOT
BRANCH   8  13
HETATM   13  O2  UNK     1      19.218  -2.149  34.656  1.00  0.00    -0.275 OA
BRANCH  13  14
HETATM   14  C12 UNK     1      19.757  -1.356  35.672  1.00  0.00     0.298 C 
HETATM   15  O4  UNK     1      20.905  -1.417  36.089  1.00  0.00    -0.259 OA
BRANCH  14  16
HETATM   16  C11 UNK     1      18.752  -0.397  36.197  1.00  0.00     0.040 A 
HETATM   17  C13 UNK     1      17.624  -0.890  36.822  1.00  0.00     0.020 A 
HETATM   18  C15 UNK     1      16.681   0.011  37.316  1.00  0.00     0.043 A 
HETATM   19  C17 UNK     1      16.885   1.384  37.175  1.00  0.00     0.116 A 
HETATM   20  C16 UNK     1      18.034   1.856  36.539  1.00  0.00     0.043 A 
HETATM   21  F1  UNK     1      15.978   2.248  37.648  1.00  0.00    -0.206 F 
HETATM   22  C14 UNK     1      18.978   0.956  36.044  1.00  0.00     0.020 A 
ENDBRANCH  14  16
ENDBRANCH  13  14
ENDBRANCH   8  13
TORSDOF 3
ENDMDL
MODEL 10
REMARK VINA RESULT:      -8.1     22.228     24.537
REMARK  3 active torsions:
REMARK  status: ('A' for Active; 'I' for Inactive)
REMARK    1  A    between atoms: C12_17  and  O2_3 
REMARK    2  A    between atoms: C6_11  and  O2_3 
REMARK    3  A    between atoms: C11_16  and  C12_17 
ROOT
HETATM    1  O1  UNK     1      10.249   5.525   9.771  1.00  0.00    -0.275 OA
HETATM    2  O3  UNK     1       8.019   5.161  10.116  1.00  0.00    -0.260 OA
HETATM    3  C1  UNK     1      11.020   6.203   7.554  1.00  0.00     0.004 A 
HETATM    4  C2  UNK     1      11.286   5.884   8.886  1.00  0.00     0.092 A 
HETATM    5  C3  UNK     1       9.629   6.155   7.083  1.00  0.00    -0.043 A 
HETATM    6  C4  UNK     1      12.105   6.550   6.739  1.00  0.00     0.017 A 
HETATM    7  C5  UNK     1      12.578   5.904   9.413  1.00  0.00     0.075 A 
HETATM    8  C6  UNK     1      13.643   6.253   8.589  1.00  0.00     0.082 A 
HETATM    9  C7  UNK     1      13.407   6.576   7.253  1.00  0.00     0.038 A 
HETATM   10  C8  UNK     1       8.663   5.810   7.947  1.00  0.00     0.090 A 
HETATM   11  C9  UNK     1       9.309   6.490   5.655  1.00  0.00     0.049 C 
HETATM   12  C10 UNK     1       8.928   5.473   9.355  1.00  0.00     0.288 A 
ENDROOT
BRANCH   8  13
HETATM   13  O2  UNK     1      14.910   6.280   9.084  1.00  0.00    -0.275 OA
BRANCH  13  14
HETATM   14  C12 UNK     1      15.105   7.199  10.119  1.00  0.00     0.298 C 
HETATM   15  O4  UNK     1      14.900   6.988  11.306  1.00  0.00    -0.259 OA
BRANCH  14  16
HETATM   16  C11 UNK     1      15.611   8.495   9.600  1.00  0.00     0.040 A 
HETATM   17  C13 UNK     1      14.735   9.340   8.950  1.00  0.00     0.020 A 
HETATM   18  C15 UNK     1      15.211  10.558   8.464  1.00  0.00     0.043 A 
HETATM   19  C17 UNK     1      16.550  10.904   8.639  1.00  0.00     0.116 A 
HETATM   20  C16 UNK     1      17.416  10.031   9.300  1.00  0.00     0.043 A 
HETATM   21  F1  UNK     1      17.007  12.073   8.171  1.00  0.00    -0.206 F 
HETATM   22  C14 UNK     1      16.941   8.814   9.786  1.00  0.00     0.020 A 
ENDBRANCH  14  16
ENDBRANCH  13  14
ENDBRANCH   8  13
TORSDOF 3
ENDMDL
