MODEL 1
REMARK VINA RESULT:      -8.9      0.000      0.000
REMARK  6 active torsions:
REMARK  status: ('A' for Active; 'I' for Inactive)
REMARK    1  A    between atoms: C2_6  and  O1_2 
REMARK    2  A    between atoms: C5_9  and  O1_2 
REMARK    3  A    between atoms: C3_7  and  O2_3 
REMARK    4  A    between atoms: C1_5  and  C9_13 
REMARK    5  A    between atoms: C5_9  and  C8_12 
REMARK    6  A    between atoms: C10_14  and  C11_15 
ROOT
HETATM    1  N1  UNK     1      21.992  -1.705  35.323  1.00  0.00    -0.191 NA
HETATM    2  C9  UNK     1      18.688  -2.468  35.949  1.00  0.00     0.036 C 
HETATM    3  C10 UNK     1      19.913  -3.009  36.183  1.00  0.00     0.055 C 
HETATM    4  C23 UNK     1      21.058  -2.280  35.703  1.00  0.00     0.100 C 
ENDROOT
BRANCH   3   5
HETATM    5  C11 UNK     1      20.124  -4.263  36.889  1.00  0.00    -0.015 A 
HETATM    6  C14 UNK     1      21.279  -4.454  37.645  1.00  0.00     0.013 A 
HETATM    7  C19 UNK     1      21.481  -5.656  38.322  1.00  0.00     0.001 A 
HETATM    8  C21 UNK     1      20.524  -6.669  38.243  1.00  0.00     0.000 A 
HETATM    9  C20 UNK     1      19.368  -6.479  37.487  1.00  0.00     0.001 A 
HETATM   10  C15 UNK     1      19.167  -5.277  36.810  1.00  0.00     0.013 A 
ENDBRANCH   3   5
BRANCH   2  11
HETATM   11  C1  UNK     1      18.431  -1.202  35.248  1.00  0.00    -0.015 A 
HETATM   12  C4  UNK     1      18.658  -1.179  33.878  1.00  0.00     0.052 A 
HETATM   13  C3  UNK     1      18.430  -0.004  33.161  1.00  0.00     0.102 A 
HETATM   14  C2  UNK     1      17.978   1.138  33.821  1.00  0.00     0.103 A 
HETATM   15  C7  UNK     1      17.752   1.106  35.197  1.00  0.00     0.059 A 
HETATM   16  C6  UNK     1      17.979  -0.070  35.914  1.00  0.00     0.024 A 
HETATM   17 Br1  UNK     1      17.652  -0.046  37.785  1.00  0.00    -0.050 Br
BRANCH  13  18
HETATM   18  O2  UNK     1      18.654   0.016  31.817  1.00  0.00    -0.353 OA
HETATM   19  C22 UNK     1      19.774  -0.724  31.336  1.00  0.00     0.210 C 
ENDBRANCH  13  18
BRANCH  14  20
HETATM   20  O1  UNK     1      17.751   2.292  33.132  1.00  0.00    -0.344 OA
BRANCH  20  21
HETATM   21  C5  UNK     1      18.279   3.493  33.689  1.00  0.00     0.214 C 
BRANCH  21  22
HETATM   22  C8  UNK     1      18.673   4.418  32.576  1.00  0.00    -0.034 A 
HETATM   23  C12 UNK     1      19.054   5.724  32.868  1.00  0.00     0.009 A 
HETATM   24  C16 UNK     1      19.420   6.584  31.833  1.00  0.00     0.001 A 
HETATM   25  C18 UNK     1      19.405   6.134  30.514  1.00  0.00     0.000 A 
HETATM   26  C17 UNK     1      19.022   4.823  30.228  1.00  0.00     0.001 A 
HETATM   27  C13 UNK     1      18.654   3.964  31.262  1.00  0.00     0.009 A 
ENDBRANCH  21  22
ENDBRANCH  20  21
ENDBRANCH  14  20
ENDBRANCH   2  11
TORSDOF 6
ENDMDL
MODEL 2
REMARK VINA RESULT:      -8.7      6.015      8.331
REMARK  6 active torsions:
REMARK  status: ('A' for Active; 'I' for Inactive)
REMARK    1  A    between atoms: C2_6  and  O1_2 
REMARK    2  A    between atoms: C5_9  and  O1_2 
REMARK    3  A    between atoms: C3_7  and  O2_3 
REMARK    4  A    between atoms: C1_5  and  C9_13 
REMARK    5  A    between atoms: C5_9  and  C8_12 
REMARK    6  A    between atoms: C10_14  and  C11_15 
ROOT
HETATM    1  N1  UNK     1      17.936   2.294  33.598  1.00  0.00    -0.191 NA
HETATM    2  C9  UNK     1      18.774   4.224  30.866  1.00  0.00     0.036 C 
HETATM    3  C10 UNK     1      18.651   2.905  31.174  1.00  0.00     0.055 C 
HETATM    4  C23 UNK     1      18.255   2.577  32.518  1.00  0.00     0.100 C 
ENDROOT
BRANCH   3   5
HETATM    5  C11 UNK     1      18.888   1.827  30.227  1.00  0.00    -0.015 A 
HETATM    6  C14 UNK     1      18.089   1.707  29.090  1.00  0.00     0.013 A 
HETATM    7  C19 UNK     1      18.317   0.673  28.183  1.00  0.00     0.001 A 
HETATM    8  C21 UNK     1      19.344  -0.242  28.412  1.00  0.00     0.000 A 
HETATM    9  C20 UNK     1      20.144  -0.123  29.548  1.00  0.00     0.001 A 
HETATM   10  C15 UNK     1      19.917   0.911  30.456  1.00  0.00     0.013 A 
ENDBRANCH   3   5
BRANCH   2  11
HETATM   11  C1  UNK     1      18.536   5.344  31.787  1.00  0.00    -0.015 A 
HETATM   12  C4  UNK     1      17.217   5.608  32.136  1.00  0.00     0.052 A 
HETATM   13  C3  UNK     1      16.933   6.660  33.008  1.00  0.00     0.102 A 
HETATM   14  C2  UNK     1      17.969   7.438  33.522  1.00  0.00     0.103 A 
HETATM   15  C7  UNK     1      19.291   7.166  33.166  1.00  0.00     0.059 A 
HETATM   16  C6  UNK     1      19.575   6.113  32.295  1.00  0.00     0.024 A 
HETATM   17 Br1  UNK     1      21.394   5.796  31.851  1.00  0.00    -0.050 Br
BRANCH  13  18
HETATM   18  O2  UNK     1      15.639   6.917  33.348  1.00  0.00    -0.353 OA
HETATM   19  C22 UNK     1      14.756   7.297  32.295  1.00  0.00     0.210 C 
ENDBRANCH  13  18
BRANCH  14  20
HETATM   20  O1  UNK     1      17.705   8.468  34.374  1.00  0.00    -0.344 OA
BRANCH  20  21
HETATM   21  C5  UNK     1      17.705   9.783  33.822  1.00  0.00     0.214 C 
BRANCH  21  22
HETATM   22  C8  UNK     1      16.607  10.582  34.460  1.00  0.00    -0.034 A 
HETATM   23  C12 UNK     1      16.729  11.964  34.557  1.00  0.00     0.009 A 
HETATM   24  C16 UNK     1      15.709  12.708  35.149  1.00  0.00     0.001 A 
HETATM   25  C18 UNK     1      14.572  12.066  35.639  1.00  0.00     0.000 A 
HETATM   26  C17 UNK     1      14.456  10.679  35.538  1.00  0.00     0.001 A 
HETATM   27  C13 UNK     1      15.477   9.936  34.947  1.00  0.00     0.009 A 
ENDBRANCH  21  22
ENDBRANCH  20  21
ENDBRANCH  14  20
ENDBRANCH   2  11
TORSDOF 6
ENDMDL
MODEL 3
REMARK VINA RESULT:      -8.4      4.207      9.740
REMARK  6 active torsions:
REMARK  status: ('A' for Active; 'I' for Inactive)
REMARK    1  A    between atoms: C2_6  and  O1_2 
REMARK    2  A    between atoms: C5_9  and  O1_2 
REMARK    3  A    between atoms: C3_7  and  O2_3 
REMARK    4  A    between atoms: C1_5  and  C9_13 
REMARK    5  A    between atoms: C5_9  and  C8_12 
REMARK    6  A    between atoms: C10_14  and  C11_15 
ROOT
HETATM    1  N1  UNK     1      21.641   6.187  32.717  1.00  0.00    -0.191 NA
HETATM    2  C9  UNK     1      18.202   6.263  32.950  1.00  0.00     0.036 C 
HETATM    3  C10 UNK     1      19.250   7.099  33.177  1.00  0.00     0.055 C 
HETATM    4  C23 UNK     1      20.570   6.585  32.919  1.00  0.00     0.100 C 
ENDROOT
BRANCH   3   5
HETATM    5  C11 UNK     1      19.108   8.466  33.652  1.00  0.00    -0.015 A 
HETATM    6  C14 UNK     1      17.885   9.124  33.529  1.00  0.00     0.013 A 
HETATM    7  C19 UNK     1      17.748  10.435  33.984  1.00  0.00     0.001 A 
HETATM    8  C21 UNK     1      18.836  11.088  34.563  1.00  0.00     0.000 A 
HETATM    9  C20 UNK     1      20.060  10.431  34.687  1.00  0.00     0.001 A 
HETATM   10  C15 UNK     1      20.196   9.120  34.232  1.00  0.00     0.013 A 
ENDBRANCH   3   5
BRANCH   2  11
HETATM   11  C1  UNK     1      18.299   4.879  32.464  1.00  0.00    -0.015 A 
HETATM   12  C4  UNK     1      18.107   3.866  33.395  1.00  0.00     0.052 A 
HETATM   13  C3  UNK     1      18.189   2.533  32.990  1.00  0.00     0.102 A 
HETATM   14  C2  UNK     1      18.460   2.226  31.657  1.00  0.00     0.103 A 
HETATM   15  C7  UNK     1      18.651   3.250  30.729  1.00  0.00     0.059 A 
HETATM   16  C6  UNK     1      18.570   4.583  31.135  1.00  0.00     0.024 A 
HETATM   17 Br1  UNK     1      18.840   5.928  29.821  1.00  0.00    -0.050 Br
BRANCH  13  18
HETATM   18  O2  UNK     1      18.000   1.541  33.905  1.00  0.00    -0.353 OA
HETATM   19  C22 UNK     1      18.485   1.778  35.225  1.00  0.00     0.210 C 
ENDBRANCH  13  18
BRANCH  14  20
HETATM   20  O1  UNK     1      18.542   0.929  31.249  1.00  0.00    -0.344 OA
BRANCH  20  21
HETATM   21  C5  UNK     1      19.635   0.583  30.401  1.00  0.00     0.214 C 
BRANCH  21  22
HETATM   22  C8  UNK     1      20.123  -0.788  30.765  1.00  0.00    -0.034 A 
HETATM   23  C12 UNK     1      20.432  -1.698  29.759  1.00  0.00     0.009 A 
HETATM   24  C16 UNK     1      20.886  -2.972  30.096  1.00  0.00     0.001 A 
HETATM   25  C18 UNK     1      21.030  -3.329  31.437  1.00  0.00     0.000 A 
HETATM   26  C17 UNK     1      20.718  -2.412  32.440  1.00  0.00     0.001 A 
HETATM   27  C13 UNK     1      20.263  -1.138  32.103  1.00  0.00     0.009 A 
ENDBRANCH  21  22
ENDBRANCH  20  21
ENDBRANCH  14  20
ENDBRANCH   2  11
TORSDOF 6
ENDMDL
MODEL 4
REMARK VINA RESULT:      -8.3     12.160     14.215
REMARK  6 active torsions:
REMARK  status: ('A' for Active; 'I' for Inactive)
REMARK    1  A    between atoms: C2_6  and  O1_2 
REMARK    2  A    between atoms: C5_9  and  O1_2 
REMARK    3  A    between atoms: C3_7  and  O2_3 
REMARK    4  A    between atoms: C1_5  and  C9_13 
REMARK    5  A    between atoms: C5_9  and  C8_12 
REMARK    6  A    between atoms: C10_14  and  C11_15 
ROOT
HETATM    1  N1  UNK     1      27.388 -10.470  39.715  1.00  0.00    -0.191 NA
HETATM    2  C9  UNK     1      27.442  -8.828  36.683  1.00  0.00     0.036 C 
HETATM    3  C10 UNK     1      26.656  -9.728  37.333  1.00  0.00     0.055 C 
HETATM    4  C23 UNK     1      27.069 -10.133  38.651  1.00  0.00     0.100 C 
ENDROOT
BRANCH   3   5
HETATM    5  C11 UNK     1      25.434 -10.286  36.776  1.00  0.00    -0.015 A 
HETATM    6  C14 UNK     1      24.277  -9.509  36.712  1.00  0.00     0.013 A 
HETATM    7  C19 UNK     1      23.105 -10.045  36.179  1.00  0.00     0.001 A 
HETATM    8  C21 UNK     1      23.090 -11.358  35.708  1.00  0.00     0.000 A 
HETATM    9  C20 UNK     1      24.246 -12.135  35.772  1.00  0.00     0.001 A 
HETATM   10  C15 UNK     1      25.418 -11.599  36.305  1.00  0.00     0.013 A 
ENDBRANCH   3   5
BRANCH   2  11
HETATM   11  C1  UNK     1      28.679  -8.233  37.210  1.00  0.00    -0.015 A 
HETATM   12  C4  UNK     1      29.877  -8.829  36.835  1.00  0.00     0.052 A 
HETATM   13  C3  UNK     1      31.083  -8.306  37.306  1.00  0.00     0.102 A 
HETATM   14  C2  UNK     1      31.079  -7.193  38.145  1.00  0.00     0.103 A 
HETATM   15  C7  UNK     1      29.870  -6.601  38.515  1.00  0.00     0.059 A 
HETATM   16  C6  UNK     1      28.665  -7.124  38.045  1.00  0.00     0.024 A 
HETATM   17 Br1  UNK     1      27.057  -6.272  38.587  1.00  0.00    -0.050 Br
BRANCH  13  18
HETATM   18  O2  UNK     1      32.256  -8.892  36.938  1.00  0.00    -0.353 OA
HETATM   19  C22 UNK     1      32.598  -8.845  35.554  1.00  0.00     0.210 C 
ENDBRANCH  13  18
BRANCH  14  20
HETATM   20  O1  UNK     1      32.249  -6.673  38.611  1.00  0.00    -0.344 OA
BRANCH  20  21
HETATM   21  C5  UNK     1      32.554  -5.330  38.241  1.00  0.00     0.214 C 
BRANCH  21  22
HETATM   22  C8  UNK     1      33.406  -5.344  37.006  1.00  0.00    -0.034 A 
HETATM   23  C12 UNK     1      34.638  -5.989  37.027  1.00  0.00     0.009 A 
HETATM   24  C16 UNK     1      35.430  -6.002  35.879  1.00  0.00     0.001 A 
HETATM   25  C18 UNK     1      34.986  -5.371  34.718  1.00  0.00     0.000 A 
HETATM   26  C17 UNK     1      33.749  -4.726  34.704  1.00  0.00     0.001 A 
HETATM   27  C13 UNK     1      32.957  -4.711  35.852  1.00  0.00     0.009 A 
ENDBRANCH  21  22
ENDBRANCH  20  21
ENDBRANCH  14  20
ENDBRANCH   2  11
TORSDOF 6
ENDMDL
MODEL 5
REMARK VINA RESULT:      -8.0      6.229      9.148
REMARK  6 active torsions:
REMARK  status: ('A' for Active; 'I' for Inactive)
REMARK    1  A    between atoms: C2_6  and  O1_2 
REMARK    2  A    between atoms: C5_9  and  O1_2 
REMARK    3  A    between atoms: C3_7  and  O2_3 
REMARK    4  A    between atoms: C1_5  and  C9_13 
REMARK    5  A    between atoms: C5_9  and  C8_12 
REMARK    6  A    between atoms: C10_14  and  C11_15 
ROOT
HETATM    1  N1  UNK     1      20.094   6.198  29.810  1.00  0.00    -0.191 NA
HETATM    2  C9  UNK     1      17.827   4.793  31.996  1.00  0.00     0.036 C 
HETATM    3  C10 UNK     1      18.599   4.400  30.948  1.00  0.00     0.055 C 
HETATM    4  C23 UNK     1      19.424   5.402  30.324  1.00  0.00     0.100 C 
ENDROOT
BRANCH   3   5
HETATM    5  C11 UNK     1      18.641   3.038  30.439  1.00  0.00    -0.015 A 
HETATM    6  C14 UNK     1      19.115   2.005  31.246  1.00  0.00     0.013 A 
HETATM    7  C19 UNK     1      19.155   0.699  30.758  1.00  0.00     0.001 A 
HETATM    8  C21 UNK     1      18.720   0.427  29.461  1.00  0.00     0.000 A 
HETATM    9  C20 UNK     1      18.245   1.460  28.653  1.00  0.00     0.001 A 
HETATM   10  C15 UNK     1      18.205   2.765  29.141  1.00  0.00     0.013 A 
ENDBRANCH   3   5
BRANCH   2  11
HETATM   11  C1  UNK     1      17.760   6.154  32.548  1.00  0.00    -0.015 A 
HETATM   12  C4  UNK     1      16.727   6.968  32.101  1.00  0.00     0.052 A 
HETATM   13  C3  UNK     1      16.615   8.270  32.591  1.00  0.00     0.102 A 
HETATM   14  C2  UNK     1      17.536   8.746  33.522  1.00  0.00     0.103 A 
HETATM   15  C7  UNK     1      18.570   7.921  33.966  1.00  0.00     0.059 A 
HETATM   16  C6  UNK     1      18.682   6.619  33.476  1.00  0.00     0.024 A 
HETATM   17 Br1  UNK     1      20.113   5.548  34.120  1.00  0.00    -0.050 Br
BRANCH  13  18
HETATM   18  O2  UNK     1      15.601   9.067  32.151  1.00  0.00    -0.353 OA
HETATM   19  C22 UNK     1      14.393   9.057  32.909  1.00  0.00     0.210 C 
ENDBRANCH  13  18
BRANCH  14  20
HETATM   20  O1  UNK     1      17.437  10.015  34.009  1.00  0.00    -0.344 OA
BRANCH  20  21
HETATM   21  C5  UNK     1      18.598  10.837  33.915  1.00  0.00     0.214 C 
BRANCH  21  22
HETATM   22  C8  UNK     1      18.188  12.277  34.017  1.00  0.00    -0.034 A 
HETATM   23  C12 UNK     1      18.769  13.219  33.175  1.00  0.00     0.009 A 
HETATM   24  C16 UNK     1      18.389  14.557  33.270  1.00  0.00     0.001 A 
HETATM   25  C18 UNK     1      17.429  14.945  34.205  1.00  0.00     0.000 A 
HETATM   26  C17 UNK     1      16.851  13.995  35.046  1.00  0.00     0.001 A 
HETATM   27  C13 UNK     1      17.232  12.657  34.952  1.00  0.00     0.009 A 
ENDBRANCH  21  22
ENDBRANCH  20  21
ENDBRANCH  14  20
ENDBRANCH   2  11
TORSDOF 6
ENDMDL
MODEL 6
REMARK VINA RESULT:      -8.0     11.819     14.071
REMARK  6 active torsions:
REMARK  status: ('A' for Active; 'I' for Inactive)
REMARK    1  A    between atoms: C2_6  and  O1_2 
REMARK    2  A    between atoms: C5_9  and  O1_2 
REMARK    3  A    between atoms: C3_7  and  O2_3 
REMARK    4  A    between atoms: C1_5  and  C9_13 
REMARK    5  A    between atoms: C5_9  and  C8_12 
REMARK    6  A    between atoms: C10_14  and  C11_15 
ROOT
HETATM    1  N1  UNK     1      27.393 -10.354  39.606  1.00  0.00    -0.191 NA
HETATM    2  C9  UNK     1      27.378  -8.828  36.513  1.00  0.00     0.036 C 
HETATM    3  C10 UNK     1      26.620  -9.720  37.205  1.00  0.00     0.055 C 
HETATM    4  C23 UNK     1      27.056 -10.065  38.533  1.00  0.00     0.100 C 
ENDROOT
BRANCH   3   5
HETATM    5  C11 UNK     1      25.405 -10.326  36.684  1.00  0.00    -0.015 A 
HETATM    6  C14 UNK     1      24.226  -9.585  36.622  1.00  0.00     0.013 A 
HETATM    7  C19 UNK     1      23.061 -10.167  36.122  1.00  0.00     0.001 A 
HETATM    8  C21 UNK     1      23.077 -11.491  35.683  1.00  0.00     0.000 A 
HETATM    9  C20 UNK     1      24.256 -12.233  35.744  1.00  0.00     0.001 A 
HETATM   10  C15 UNK     1      25.420 -11.651  36.244  1.00  0.00     0.013 A 
ENDBRANCH   3   5
BRANCH   2  11
HETATM   11  C1  UNK     1      28.606  -8.186  37.004  1.00  0.00    -0.015 A 
HETATM   12  C4  UNK     1      28.456  -7.139  37.906  1.00  0.00     0.052 A 
HETATM   13  C3  UNK     1      29.587  -6.492  38.404  1.00  0.00     0.102 A 
HETATM   14  C2  UNK     1      30.858  -6.898  37.997  1.00  0.00     0.103 A 
HETATM   15  C7  UNK     1      30.999  -7.950  37.092  1.00  0.00     0.059 A 
HETATM   16  C6  UNK     1      29.867  -8.597  36.593  1.00  0.00     0.024 A 
HETATM   17 Br1  UNK     1      30.129 -10.021  35.364  1.00  0.00    -0.050 Br
BRANCH  13  18
HETATM   18  O2  UNK     1      29.437  -5.466  39.288  1.00  0.00    -0.353 OA
HETATM   19  C22 UNK     1      28.748  -4.308  38.825  1.00  0.00     0.210 C 
ENDBRANCH  13  18
BRANCH  14  20
HETATM   20  O1  UNK     1      31.970  -6.274  38.478  1.00  0.00    -0.344 OA
BRANCH  20  21
HETATM   21  C5  UNK     1      32.284  -4.996  37.930  1.00  0.00     0.214 C 
BRANCH  21  22
HETATM   22  C8  UNK     1      33.291  -5.167  36.831  1.00  0.00    -0.034 A 
HETATM   23  C12 UNK     1      33.076  -4.555  35.600  1.00  0.00     0.009 A 
HETATM   24  C16 UNK     1      34.011  -4.714  34.578  1.00  0.00     0.001 A 
HETATM   25  C18 UNK     1      35.156  -5.481  34.793  1.00  0.00     0.000 A 
HETATM   26  C17 UNK     1      35.365  -6.091  36.030  1.00  0.00     0.001 A 
HETATM   27  C13 UNK     1      34.429  -5.934  37.052  1.00  0.00     0.009 A 
ENDBRANCH  21  22
ENDBRANCH  20  21
ENDBRANCH  14  20
ENDBRANCH   2  11
TORSDOF 6
ENDMDL
MODEL 7
REMARK VINA RESULT:      -8.0     26.460     28.482
REMARK  6 active torsions:
REMARK  status: ('A' for Active; 'I' for Inactive)
REMARK    1  A    between atoms: C2_6  and  O1_2 
REMARK    2  A    between atoms: C5_9  and  O1_2 
REMARK    3  A    between atoms: C3_7  and  O2_3 
REMARK    4  A    between atoms: C1_5  and  C9_13 
REMARK    5  A    between atoms: C5_9  and  C8_12 
REMARK    6  A    between atoms: C10_14  and  C11_15 
ROOT
HETATM    1  N1  UNK     1      15.897  11.709   7.316  1.00  0.00    -0.191 NA
HETATM    2  C9  UNK     1      17.115   9.981  10.041  1.00  0.00     0.036 C 
HETATM    3  C10 UNK     1      17.556  10.913   9.153  1.00  0.00     0.055 C 
HETATM    4  C23 UNK     1      16.630  11.347   8.140  1.00  0.00     0.100 C 
ENDROOT
BRANCH   3   5
HETATM    5  C11 UNK     1      18.891  11.489   9.181  1.00  0.00    -0.015 A 
HETATM    6  C14 UNK     1      19.553  11.773   7.987  1.00  0.00     0.013 A 
HETATM    7  C19 UNK     1      20.833  12.325   8.014  1.00  0.00     0.001 A 
HETATM    8  C21 UNK     1      21.450  12.596   9.235  1.00  0.00     0.000 A 
HETATM    9  C20 UNK     1      20.788  12.313  10.429  1.00  0.00     0.001 A 
HETATM   10  C15 UNK     1      19.508  11.760  10.403  1.00  0.00     0.013 A 
ENDBRANCH   3   5
BRANCH   2  11
HETATM   11  C1  UNK     1      15.774   9.379  10.055  1.00  0.00    -0.015 A 
HETATM   12  C4  UNK     1      15.634   8.132   9.459  1.00  0.00     0.052 A 
HETATM   13  C3  UNK     1      14.383   7.512   9.443  1.00  0.00     0.102 A 
HETATM   14  C2  UNK     1      13.285   8.146  10.024  1.00  0.00     0.103 A 
HETATM   15  C7  UNK     1      13.435   9.398  10.620  1.00  0.00     0.059 A 
HETATM   16  C6  UNK     1      14.686  10.017  10.636  1.00  0.00     0.024 A 
HETATM   17 Br1  UNK     1      14.822  11.721  11.464  1.00  0.00    -0.050 Br
BRANCH  13  18
HETATM   18  O2  UNK     1      14.249   6.290   8.858  1.00  0.00    -0.353 OA
HETATM   19  C22 UNK     1      14.683   5.159   9.611  1.00  0.00     0.210 C 
ENDBRANCH  13  18
BRANCH  14  20
HETATM   20  O1  UNK     1      12.059   7.551  10.015  1.00  0.00    -0.344 OA
BRANCH  20  21
HETATM   21  C5  UNK     1      10.999   8.261   9.379  1.00  0.00     0.214 C 
BRANCH  21  22
HETATM   22  C8  UNK     1      10.526   7.474   8.191  1.00  0.00    -0.034 A 
HETATM   23  C12 UNK     1      11.374   7.294   7.104  1.00  0.00     0.009 A 
HETATM   24  C16 UNK     1      10.936   6.563   6.000  1.00  0.00     0.001 A 
HETATM   25  C18 UNK     1       9.653   6.017   5.991  1.00  0.00     0.000 A 
HETATM   26  C17 UNK     1       8.808   6.202   7.085  1.00  0.00     0.001 A 
HETATM   27  C13 UNK     1       9.246   6.933   8.188  1.00  0.00     0.009 A 
ENDBRANCH  21  22
ENDBRANCH  20  21
ENDBRANCH  14  20
ENDBRANCH   2  11
TORSDOF 6
ENDMDL
MODEL 8
REMARK VINA RESULT:      -7.9      1.762      2.532
REMARK  6 active torsions:
REMARK  status: ('A' for Active; 'I' for Inactive)
REMARK    1  A    between atoms: C2_6  and  O1_2 
REMARK    2  A    between atoms: C5_9  and  O1_2 
REMARK    3  A    between atoms: C3_7  and  O2_3 
REMARK    4  A    between atoms: C1_5  and  C9_13 
REMARK    5  A    between atoms: C5_9  and  C8_12 
REMARK    6  A    between atoms: C10_14  and  C11_15 
ROOT
HETATM    1  N1  UNK     1      17.890  -5.568  36.222  1.00  0.00    -0.191 NA
HETATM    2  C9  UNK     1      20.590  -3.533  36.898  1.00  0.00     0.036 C 
HETATM    3  C10 UNK     1      20.154  -4.778  37.228  1.00  0.00     0.055 C 
HETATM    4  C23 UNK     1      18.900  -5.207  36.666  1.00  0.00     0.100 C 
ENDROOT
BRANCH   3   5
HETATM    5  C11 UNK     1      20.882  -5.687  38.099  1.00  0.00    -0.015 A 
HETATM    6  C14 UNK     1      22.253  -5.522  38.290  1.00  0.00     0.013 A 
HETATM    7  C19 UNK     1      22.952  -6.394  39.125  1.00  0.00     0.001 A 
HETATM    8  C21 UNK     1      22.277  -7.431  39.769  1.00  0.00     0.000 A 
HETATM    9  C20 UNK     1      20.906  -7.597  39.579  1.00  0.00     0.001 A 
HETATM   10  C15 UNK     1      20.208  -6.725  38.744  1.00  0.00     0.013 A 
ENDBRANCH   3   5
BRANCH   2  11
HETATM   11  C1  UNK     1      19.891  -2.586  36.017  1.00  0.00    -0.015 A 
HETATM   12  C4  UNK     1      20.268  -2.571  34.679  1.00  0.00     0.052 A 
HETATM   13  C3  UNK     1      19.638  -1.692  33.797  1.00  0.00     0.102 A 
HETATM   14  C2  UNK     1      18.639  -0.837  34.260  1.00  0.00     0.103 A 
HETATM   15  C7  UNK     1      18.267  -0.860  35.604  1.00  0.00     0.059 A 
HETATM   16  C6  UNK     1      18.897  -1.739  36.487  1.00  0.00     0.024 A 
HETATM   17 Br1  UNK     1      18.344  -1.720  38.304  1.00  0.00    -0.050 Br
BRANCH  13  18
HETATM   18  O2  UNK     1      20.009  -1.678  32.486  1.00  0.00    -0.353 OA
HETATM   19  C22 UNK     1      20.907  -2.699  32.056  1.00  0.00     0.210 C 
ENDBRANCH  13  18
BRANCH  14  20
HETATM   20  O1  UNK     1      18.016   0.025  33.408  1.00  0.00    -0.344 OA
BRANCH  20  21
HETATM   21  C5  UNK     1      18.030   1.407  33.759  1.00  0.00     0.214 C 
BRANCH  21  22
HETATM   22  C8  UNK     1      18.299   2.223  32.530  1.00  0.00    -0.034 A 
HETATM   23  C12 UNK     1      18.179   3.608  32.583  1.00  0.00     0.009 A 
HETATM   24  C16 UNK     1      18.429   4.367  31.441  1.00  0.00     0.001 A 
HETATM   25  C18 UNK     1      18.799   3.739  30.252  1.00  0.00     0.000 A 
HETATM   26  C17 UNK     1      18.918   2.349  30.206  1.00  0.00     0.001 A 
HETATM   27  C13 UNK     1      18.666   1.590  31.348  1.00  0.00     0.009 A 
ENDBRANCH  21  22
ENDBRANCH  20  21
ENDBRANCH  14  20
ENDBRANCH   2  11
TORSDOF 6
ENDMDL
MODEL 9
REMARK VINA RESULT:      -7.9     26.410     28.213
REMARK  6 active torsions:
REMARK  status: ('A' for Active; 'I' for Inactive)
REMARK    1  A    between atoms: C2_6  and  O1_2 
REMARK    2  A    between atoms: C5_9  and  O1_2 
REMARK    3  A    between atoms: C3_7  and  O2_3 
REMARK    4  A    between atoms: C1_5  and  C9_13 
REMARK    5  A    between atoms: C5_9  and  C8_12 
REMARK    6  A    between atoms: C10_14  and  C11_15 
ROOT
HETATM    1  N1  UNK     1      15.339  10.980   7.608  1.00  0.00    -0.191 NA
HETATM    2  C9  UNK     1      16.614   9.681  10.537  1.00  0.00     0.036 C 
HETATM    3  C10 UNK     1      16.907  10.678   9.660  1.00  0.00     0.055 C 
HETATM    4  C23 UNK     1      16.033  10.838   8.527  1.00  0.00     0.100 C 
ENDROOT
BRANCH   3   5
HETATM    5  C11 UNK     1      18.035  11.584   9.812  1.00  0.00    -0.015 A 
HETATM    6  C14 UNK     1      18.182  12.326  10.983  1.00  0.00     0.013 A 
HETATM    7  C19 UNK     1      19.264  13.194  11.128  1.00  0.00     0.001 A 
HETATM    8  C21 UNK     1      20.199  13.319  10.101  1.00  0.00     0.000 A 
HETATM    9  C20 UNK     1      20.053  12.578   8.929  1.00  0.00     0.001 A 
HETATM   10  C15 UNK     1      18.971  11.710   8.784  1.00  0.00     0.013 A 
ENDBRANCH   3   5
BRANCH   2  11
HETATM   11  C1  UNK     1      15.481   8.750  10.427  1.00  0.00    -0.015 A 
HETATM   12  C4  UNK     1      14.216   9.258  10.693  1.00  0.00     0.052 A 
HETATM   13  C3  UNK     1      13.104   8.420  10.604  1.00  0.00     0.102 A 
HETATM   14  C2  UNK     1      13.268   7.081  10.251  1.00  0.00     0.103 A 
HETATM   15  C7  UNK     1      14.542   6.579   9.985  1.00  0.00     0.059 A 
HETATM   16  C6  UNK     1      15.654   7.418  10.073  1.00  0.00     0.024 A 
HETATM   17 Br1  UNK     1      17.360   6.672   9.699  1.00  0.00    -0.050 Br
BRANCH  13  18
HETATM   18  O2  UNK     1      11.864   8.921  10.866  1.00  0.00    -0.353 OA
HETATM   19  C22 UNK     1      11.134   9.452   9.763  1.00  0.00     0.210 C 
ENDBRANCH  13  18
BRANCH  14  20
HETATM   20  O1  UNK     1      12.190   6.252  10.160  1.00  0.00    -0.344 OA
BRANCH  20  21
HETATM   21  C5  UNK     1      12.197   5.292   9.107  1.00  0.00     0.214 C 
BRANCH  21  22
HETATM   22  C8  UNK     1      11.195   5.697   8.067  1.00  0.00    -0.034 A 
HETATM   23  C12 UNK     1      11.603   5.874   6.749  1.00  0.00     0.009 A 
HETATM   24  C16 UNK     1      10.672   6.250   5.782  1.00  0.00     0.001 A 
HETATM   25  C18 UNK     1       9.338   6.447   6.137  1.00  0.00     0.000 A 
HETATM   26  C17 UNK     1       8.935   6.267   7.461  1.00  0.00     0.001 A 
HETATM   27  C13 UNK     1       9.867   5.892   8.428  1.00  0.00     0.009 A 
ENDBRANCH  21  22
ENDBRANCH  20  21
ENDBRANCH  14  20
ENDBRANCH   2  11
TORSDOF 6
ENDMDL
MODEL 10
REMARK VINA RESULT:      -7.9     25.816     28.203
REMARK  6 active torsions:
REMARK  status: ('A' for Active; 'I' for Inactive)
REMARK    1  A    between atoms: C2_6  and  O1_2 
REMARK    2  A    between atoms: C5_9  and  O1_2 
REMARK    3  A    between atoms: C3_7  and  O2_3 
REMARK    4  A    between atoms: C1_5  and  C9_13 
REMARK    5  A    between atoms: C5_9  and  C8_12 
REMARK    6  A    between atoms: C10_14  and  C11_15 
ROOT
HETATM    1  N1  UNK     1      15.622  12.282  11.667  1.00  0.00    -0.191 NA
HETATM    2  C9  UNK     1      17.647  10.250   9.753  1.00  0.00     0.036 C 
HETATM    3  C10 UNK     1      17.767  11.370  10.515  1.00  0.00     0.055 C 
HETATM    4  C23 UNK     1      16.574  11.867  11.149  1.00  0.00     0.100 C 
ENDROOT
BRANCH   3   5
HETATM    5  C11 UNK     1      19.022  12.075  10.726  1.00  0.00    -0.015 A 
HETATM    6  C14 UNK     1      19.171  12.920  11.825  1.00  0.00     0.013 A 
HETATM    7  C19 UNK     1      20.374  13.596  12.027  1.00  0.00     0.001 A 
HETATM    8  C21 UNK     1      21.428  13.425  11.130  1.00  0.00     0.000 A 
HETATM    9  C20 UNK     1      21.280  12.580  10.031  1.00  0.00     0.001 A 
HETATM   10  C15 UNK     1      20.077  11.904   9.829  1.00  0.00     0.013 A 
ENDBRANCH   3   5
BRANCH   2  11
HETATM   11  C1  UNK     1      16.403   9.502   9.520  1.00  0.00    -0.015 A 
HETATM   12  C4  UNK     1      16.215   8.340  10.259  1.00  0.00     0.052 A 
HETATM   13  C3  UNK     1      15.052   7.590  10.079  1.00  0.00     0.102 A 
HETATM   14  C2  UNK     1      14.088   8.008   9.163  1.00  0.00     0.103 A 
HETATM   15  C7  UNK     1      14.285   9.177   8.426  1.00  0.00     0.059 A 
HETATM   16  C6  UNK     1      15.448   9.927   8.607  1.00  0.00     0.024 A 
HETATM   17 Br1  UNK     1      15.654  11.507   7.573  1.00  0.00    -0.050 Br
BRANCH  13  18
HETATM   18  O2  UNK     1      14.871   6.450  10.803  1.00  0.00    -0.353 OA
HETATM   19  C22 UNK     1      15.279   5.225  10.198  1.00  0.00     0.210 C 
ENDBRANCH  13  18
BRANCH  14  20
HETATM   20  O1  UNK     1      12.948   7.285   8.978  1.00  0.00    -0.344 OA
BRANCH  20  21
HETATM   21  C5  UNK     1      12.832   6.558   7.757  1.00  0.00     0.214 C 
BRANCH  21  22
HETATM   22  C8  UNK     1      11.380   6.423   7.403  1.00  0.00    -0.034 A 
HETATM   23  C12 UNK     1      11.005   6.308   6.069  1.00  0.00     0.009 A 
HETATM   24  C16 UNK     1       9.656   6.182   5.739  1.00  0.00     0.001 A 
HETATM   25  C18 UNK     1       8.690   6.170   6.745  1.00  0.00     0.000 A 
HETATM   26  C17 UNK     1       9.074   6.285   8.082  1.00  0.00     0.001 A 
HETATM   27  C13 UNK     1      10.423   6.413   8.411  1.00  0.00     0.009 A 
ENDBRANCH  21  22
ENDBRANCH  20  21
ENDBRANCH  14  20
ENDBRANCH   2  11
TORSDOF 6
ENDMDL
