MODEL 1
REMARK VINA RESULT:      -9.2      0.000      0.000
REMARK  5 active torsions:
REMARK  status: ('A' for Active; 'I' for Inactive)
REMARK    1  A    between atoms: C11_18  and  O1_2 
REMARK    2  A    between atoms: C14_21  and  O1_2 
REMARK    3  A    between atoms: C10_17  and  N1_7 
REMARK       I    between atoms: C12_19  and  N1_7 
REMARK    4  A    between atoms: C11_18  and  C9_16 
REMARK    5  A    between atoms: C12_19  and  C13_20 
ROOT
HETATM    1  S1  UNK     1      18.764   2.568  29.871  1.00  0.00    -0.075 SA
HETATM    2  C1  UNK     1      21.176  -1.148  31.212  1.00  0.00     0.000 C 
HETATM    3  C2  UNK     1      20.054  -1.424  32.220  1.00  0.00     0.005 C 
HETATM    4  C3  UNK     1      20.906  -1.630  29.783  1.00  0.00     0.000 C 
HETATM    5  C4  UNK     1      18.655  -0.955  31.823  1.00  0.00     0.041 C 
HETATM    6  C5  UNK     1      20.552  -0.515  28.787  1.00  0.00     0.005 C 
HETATM    7  C6  UNK     1      18.622   0.468  31.356  1.00  0.00    -0.026 A 
HETATM    8  C7  UNK     1      19.111  -0.003  28.852  1.00  0.00     0.046 C 
HETATM    9  C8  UNK     1      18.839   0.865  30.046  1.00  0.00    -0.008 A 
HETATM   10  C9  UNK     1      18.386   1.594  32.209  1.00  0.00     0.080 A 
HETATM   11  C10 UNK     1      18.435   2.790  31.531  1.00  0.00     0.094 A 
ENDROOT
BRANCH  11  12
HETATM   12  N1  UNK     1      18.271   4.080  31.958  1.00  0.00    -0.316 N 
HETATM   13  C12 UNK     1      19.002   5.199  31.539  1.00  0.00     0.262 C 
HETATM   14  O3  UNK     1      19.914   5.252  30.724  1.00  0.00    -0.267 OA
HETATM   15  H13 UNK     1      17.526   4.211  32.637  1.00  0.00     0.169 HD
BRANCH  13  16
HETATM   16  C13 UNK     1      18.562   6.443  32.207  1.00  0.00     0.108 A 
HETATM   17  C15 UNK     1      17.317   6.851  31.936  1.00  0.00     0.037 A 
HETATM   18  C16 UNK     1      16.794   8.064  32.545  1.00  0.00    -0.001 A 
HETATM   19  C18 UNK     1      17.608   8.789  33.409  1.00  0.00     0.089 A 
HETATM   20  C20 UNK     1      15.500   8.527  32.292  1.00  0.00     0.014 A 
HETATM   21  O4  UNK     1      18.919   8.354  33.690  1.00  0.00    -0.274 OA
HETATM   22  C21 UNK     1      17.169   9.959  34.024  1.00  0.00     0.038 A 
HETATM   23  C17 UNK     1      19.446   7.198  33.123  1.00  0.00     0.304 A 
HETATM   24  O5  UNK     1      20.588   6.827  33.372  1.00  0.00    -0.259 OA
HETATM   25  C23 UNK     1      15.878  10.413  33.766  1.00  0.00     0.003 A 
HETATM   26  C22 UNK     1      15.045   9.700  32.902  1.00  0.00     0.001 A 
ENDBRANCH  13  16
ENDBRANCH  11  12
BRANCH  10  27
HETATM   27  C11 UNK     1      18.133   1.532  33.628  1.00  0.00     0.296 C 
HETATM   28  O2  UNK     1      19.002   1.711  34.493  1.00  0.00    -0.259 OA
BRANCH  27  29
HETATM   29  O1  UNK     1      16.823   1.251  33.949  1.00  0.00    -0.318 OA
BRANCH  29  30
HETATM   30  C14 UNK     1      16.599   0.492  35.143  1.00  0.00     0.174 C 
HETATM   31  C19 UNK     1      16.379  -0.958  34.772  1.00  0.00     0.034 C 
ENDBRANCH  29  30
ENDBRANCH  27  29
ENDBRANCH  10  27
TORSDOF 5
ENDMDL
MODEL 2
REMARK VINA RESULT:      -8.8      7.334     10.420
REMARK  5 active torsions:
REMARK  status: ('A' for Active; 'I' for Inactive)
REMARK    1  A    between atoms: C11_18  and  O1_2 
REMARK    2  A    between atoms: C14_21  and  O1_2 
REMARK    3  A    between atoms: C10_17  and  N1_7 
REMARK       I    between atoms: C12_19  and  N1_7 
REMARK    4  A    between atoms: C11_18  and  C9_16 
REMARK    5  A    between atoms: C12_19  and  C13_20 
ROOT
HETATM    1  S1  UNK     1      20.504  -6.265  38.651  1.00  0.00    -0.075 SA
HETATM    2  C1  UNK     1      19.002 -10.604  38.060  1.00  0.00     0.000 C 
HETATM    3  C2  UNK     1      19.721 -10.592  36.705  1.00  0.00     0.005 C 
HETATM    4  C3  UNK     1      19.892 -10.899  39.272  1.00  0.00     0.000 C 
HETATM    5  C4  UNK     1      20.962  -9.705  36.603  1.00  0.00     0.041 C 
HETATM    6  C5  UNK     1      20.226  -9.672  40.134  1.00  0.00     0.005 C 
HETATM    7  C6  UNK     1      20.731  -8.312  37.103  1.00  0.00    -0.026 A 
HETATM    8  C7  UNK     1      21.326  -8.758  39.589  1.00  0.00     0.046 C 
HETATM    9  C8  UNK     1      20.885  -7.921  38.424  1.00  0.00    -0.008 A 
HETATM   10  C9  UNK     1      20.302  -7.219  36.283  1.00  0.00     0.080 A 
HETATM   11  C10 UNK     1      20.142  -6.054  36.997  1.00  0.00     0.094 A 
ENDROOT
BRANCH  11  12
HETATM   12  N1  UNK     1      19.750  -4.801  36.609  1.00  0.00    -0.316 N 
HETATM   13  C12 UNK     1      20.544  -3.648  36.580  1.00  0.00     0.262 C 
HETATM   14  O3  UNK     1      21.723  -3.526  36.888  1.00  0.00    -0.267 OA
HETATM   15  H13 UNK     1      18.783  -4.735  36.300  1.00  0.00     0.169 HD
BRANCH  13  16
HETATM   16  C13 UNK     1      19.800  -2.462  36.106  1.00  0.00     0.108 A 
HETATM   17  C15 UNK     1      18.975  -1.889  36.990  1.00  0.00     0.037 A 
HETATM   18  C16 UNK     1      18.198  -0.717  36.616  1.00  0.00    -0.001 A 
HETATM   19  C18 UNK     1      18.328  -0.206  35.329  1.00  0.00     0.089 A 
HETATM   20  C20 UNK     1      17.326  -0.087  37.507  1.00  0.00     0.014 A 
HETATM   21  O4  UNK     1      19.198  -0.814  34.402  1.00  0.00    -0.274 OA
HETATM   22  C21 UNK     1      17.612   0.912  34.907  1.00  0.00     0.038 A 
HETATM   23  C17 UNK     1      19.954  -1.935  34.731  1.00  0.00     0.304 A 
HETATM   24  O5  UNK     1      20.708  -2.458  33.918  1.00  0.00    -0.259 OA
HETATM   25  C23 UNK     1      16.744   1.535  35.802  1.00  0.00     0.003 A 
HETATM   26  C22 UNK     1      16.601   1.037  37.099  1.00  0.00     0.001 A 
ENDBRANCH  13  16
ENDBRANCH  11  12
BRANCH  10  27
HETATM   27  C11 UNK     1      20.041  -7.287  34.866  1.00  0.00     0.296 C 
HETATM   28  O2  UNK     1      20.918  -7.473  34.011  1.00  0.00    -0.259 OA
BRANCH  27  29
HETATM   29  O1  UNK     1      18.714  -7.125  34.535  1.00  0.00    -0.318 OA
BRANCH  29  30
HETATM   30  C14 UNK     1      17.751  -7.718  35.415  1.00  0.00     0.174 C 
HETATM   31  C19 UNK     1      16.361  -7.350  34.944  1.00  0.00     0.034 C 
ENDBRANCH  29  30
ENDBRANCH  27  29
ENDBRANCH  10  27
TORSDOF 5
ENDMDL
MODEL 3
REMARK VINA RESULT:      -8.7      1.747      8.673
REMARK  5 active torsions:
REMARK  status: ('A' for Active; 'I' for Inactive)
REMARK    1  A    between atoms: C11_18  and  O1_2 
REMARK    2  A    between atoms: C14_21  and  O1_2 
REMARK    3  A    between atoms: C10_17  and  N1_7 
REMARK       I    between atoms: C12_19  and  N1_7 
REMARK    4  A    between atoms: C11_18  and  C9_16 
REMARK    5  A    between atoms: C12_19  and  C13_20 
ROOT
HETATM    1  S1  UNK     1      15.617   6.528  31.849  1.00  0.00    -0.075 SA
HETATM    2  C1  UNK     1      15.545   9.699  35.220  1.00  0.00     0.000 C 
HETATM    3  C2  UNK     1      17.005  10.006  34.865  1.00  0.00     0.005 C 
HETATM    4  C3  UNK     1      14.498  10.377  34.331  1.00  0.00     0.000 C 
HETATM    5  C4  UNK     1      17.411   9.782  33.408  1.00  0.00     0.041 C 
HETATM    6  C5  UNK     1      13.820   9.444  33.315  1.00  0.00     0.005 C 
HETATM    7  C6  UNK     1      16.999   8.441  32.884  1.00  0.00    -0.026 A 
HETATM    8  C7  UNK     1      14.637   9.129  32.059  1.00  0.00     0.046 C 
HETATM    9  C8  UNK     1      15.768   8.173  32.306  1.00  0.00    -0.008 A 
HETATM   10  C9  UNK     1      17.816   7.266  32.935  1.00  0.00     0.080 A 
HETATM   11  C10 UNK     1      17.188   6.162  32.407  1.00  0.00     0.094 A 
ENDROOT
BRANCH  11  12
HETATM   12  N1  UNK     1      17.604   4.865  32.266  1.00  0.00    -0.316 N 
HETATM   13  C12 UNK     1      18.327   4.331  31.192  1.00  0.00     0.262 C 
HETATM   14  O3  UNK     1      18.725   4.900  30.183  1.00  0.00    -0.267 OA
HETATM   15  H13 UNK     1      17.363   4.255  33.043  1.00  0.00     0.169 HD
BRANCH  13  16
HETATM   16  C13 UNK     1      18.610   2.890  31.364  1.00  0.00     0.108 A 
HETATM   17  C15 UNK     1      19.138   2.261  30.308  1.00  0.00     0.037 A 
HETATM   18  C16 UNK     1      19.451   0.842  30.380  1.00  0.00    -0.001 A 
HETATM   19  C18 UNK     1      19.192   0.155  31.562  1.00  0.00     0.089 A 
HETATM   20  C20 UNK     1      20.004   0.145  29.303  1.00  0.00     0.014 A 
HETATM   21  O4  UNK     1      18.635   0.823  32.670  1.00  0.00    -0.274 OA
HETATM   22  C21 UNK     1      19.467  -1.204  31.697  1.00  0.00     0.038 A 
HETATM   23  C17 UNK     1      18.326   2.179  32.631  1.00  0.00     0.304 A 
HETATM   24  O5  UNK     1      17.841   2.753  33.600  1.00  0.00    -0.259 OA
HETATM   25  C23 UNK     1      20.018  -1.891  30.618  1.00  0.00     0.003 A 
HETATM   26  C22 UNK     1      20.286  -1.219  29.423  1.00  0.00     0.001 A 
ENDBRANCH  13  16
ENDBRANCH  11  12
BRANCH  10  27
HETATM   27  C11 UNK     1      19.149   7.197  33.481  1.00  0.00     0.296 C 
HETATM   28  O2  UNK     1      19.400   7.208  34.695  1.00  0.00    -0.259 OA
BRANCH  27  29
HETATM   29  O1  UNK     1      20.139   7.115  32.526  1.00  0.00    -0.318 OA
BRANCH  29  30
HETATM   30  C14 UNK     1      21.199   6.184  32.772  1.00  0.00     0.174 C 
HETATM   31  C19 UNK     1      21.871   5.843  31.459  1.00  0.00     0.034 C 
ENDBRANCH  29  30
ENDBRANCH  27  29
ENDBRANCH  10  27
TORSDOF 5
ENDMDL
MODEL 4
REMARK VINA RESULT:      -8.6     15.465     18.611
REMARK  5 active torsions:
REMARK  status: ('A' for Active; 'I' for Inactive)
REMARK    1  A    between atoms: C11_18  and  O1_2 
REMARK    2  A    between atoms: C14_21  and  O1_2 
REMARK    3  A    between atoms: C10_17  and  N1_7 
REMARK       I    between atoms: C12_19  and  N1_7 
REMARK    4  A    between atoms: C11_18  and  C9_16 
REMARK    5  A    between atoms: C12_19  and  C13_20 
ROOT
HETATM    1  S1  UNK     1      19.167  -3.377  12.075  1.00  0.00    -0.075 SA
HETATM    2  C1  UNK     1      20.922  -7.659  11.981  1.00  0.00     0.000 C 
HETATM    3  C2  UNK     1      19.736  -8.087  12.853  1.00  0.00     0.005 C 
HETATM    4  C3  UNK     1      20.631  -7.564  10.479  1.00  0.00     0.000 C 
HETATM    5  C4  UNK     1      18.441  -7.294  12.675  1.00  0.00     0.041 C 
HETATM    6  C5  UNK     1      20.490  -6.131   9.943  1.00  0.00     0.005 C 
HETATM    7  C6  UNK     1      18.647  -5.812  12.736  1.00  0.00    -0.026 A 
HETATM    8  C7  UNK     1      19.145  -5.453  10.215  1.00  0.00     0.046 C 
HETATM    9  C8  UNK     1      18.969  -5.023  11.642  1.00  0.00    -0.008 A 
HETATM   10  C9  UNK     1      18.559  -5.031  13.933  1.00  0.00     0.080 A 
HETATM   11  C10 UNK     1      18.817  -3.698  13.714  1.00  0.00     0.094 A 
ENDROOT
BRANCH  11  12
HETATM   12  N1  UNK     1      18.841  -2.629  14.568  1.00  0.00    -0.316 N 
HETATM   13  C12 UNK     1      19.715  -2.440  15.648  1.00  0.00     0.262 C 
HETATM   14  O3  UNK     1      20.613  -3.175  16.039  1.00  0.00    -0.267 OA
HETATM   15  H13 UNK     1      18.155  -1.907  14.366  1.00  0.00     0.169 HD
BRANCH  13  16
HETATM   16  C13 UNK     1      19.462  -1.171  16.363  1.00  0.00     0.108 A 
HETATM   17  C15 UNK     1      19.344  -1.255  17.693  1.00  0.00     0.037 A 
HETATM   18  C16 UNK     1      19.094  -0.059  18.484  1.00  0.00    -0.001 A 
HETATM   19  C18 UNK     1      18.980   1.166  17.834  1.00  0.00     0.089 A 
HETATM   20  C20 UNK     1      18.965  -0.099  19.874  1.00  0.00     0.014 A 
HETATM   21  O4  UNK     1      19.104   1.247  16.433  1.00  0.00    -0.274 OA
HETATM   22  C21 UNK     1      18.739   2.348  18.532  1.00  0.00     0.038 A 
HETATM   23  C17 UNK     1      19.344   0.122  15.650  1.00  0.00     0.304 A 
HETATM   24  O5  UNK     1      19.450   0.201  14.432  1.00  0.00    -0.259 OA
HETATM   25  C23 UNK     1      18.612   2.298  19.918  1.00  0.00     0.003 A 
HETATM   26  C22 UNK     1      18.724   1.079  20.588  1.00  0.00     0.001 A 
ENDBRANCH  13  16
ENDBRANCH  11  12
BRANCH  10  27
HETATM   27  C11 UNK     1      18.250  -5.543  15.246  1.00  0.00     0.296 C 
HETATM   28  O2  UNK     1      19.030  -6.229  15.921  1.00  0.00    -0.259 OA
BRANCH  27  29
HETATM   29  O1  UNK     1      16.995  -5.199  15.696  1.00  0.00    -0.318 OA
BRANCH  29  30
HETATM   30  C14 UNK     1      16.316  -6.160  16.513  1.00  0.00     0.174 C 
HETATM   31  C19 UNK     1      15.552  -5.434  17.599  1.00  0.00     0.034 C 
ENDBRANCH  29  30
ENDBRANCH  27  29
ENDBRANCH  10  27
TORSDOF 5
ENDMDL
MODEL 5
REMARK VINA RESULT:      -8.4     12.692     16.711
REMARK  5 active torsions:
REMARK  status: ('A' for Active; 'I' for Inactive)
REMARK    1  A    between atoms: C11_18  and  O1_2 
REMARK    2  A    between atoms: C14_21  and  O1_2 
REMARK    3  A    between atoms: C10_17  and  N1_7 
REMARK       I    between atoms: C12_19  and  N1_7 
REMARK    4  A    between atoms: C11_18  and  C9_16 
REMARK    5  A    between atoms: C12_19  and  C13_20 
ROOT
HETATM    1  S1  UNK     1      22.938  -7.722  39.140  1.00  0.00    -0.075 SA
HETATM    2  C1  UNK     1      19.706  -6.711  35.984  1.00  0.00     0.000 C 
HETATM    3  C2  UNK     1      19.727  -8.193  35.592  1.00  0.00     0.005 C 
HETATM    4  C3  UNK     1      18.854  -6.370  37.211  1.00  0.00     0.000 C 
HETATM    5  C4  UNK     1      20.084  -9.183  36.700  1.00  0.00     0.041 C 
HETATM    6  C5  UNK     1      19.658  -6.079  38.488  1.00  0.00     0.005 C 
HETATM    7  C6  UNK     1      21.324  -8.806  37.449  1.00  0.00    -0.026 A 
HETATM    8  C7  UNK     1      20.182  -7.309  39.234  1.00  0.00     0.046 C 
HETATM    9  C8  UNK     1      21.347  -7.969  38.553  1.00  0.00    -0.008 A 
HETATM   10  C9  UNK     1      22.643  -9.245  37.102  1.00  0.00     0.080 A 
HETATM   11  C10 UNK     1      23.607  -8.732  37.938  1.00  0.00     0.094 A 
ENDROOT
BRANCH  11  12
HETATM   12  N1  UNK     1      24.967  -8.892  37.958  1.00  0.00    -0.316 N 
HETATM   13  C12 UNK     1      25.922  -7.906  38.239  1.00  0.00     0.262 C 
HETATM   14  O3  UNK     1      25.741  -6.727  38.518  1.00  0.00    -0.267 OA
HETATM   15  H13 UNK     1      25.286  -9.836  37.760  1.00  0.00     0.169 HD
BRANCH  13  16
HETATM   16  C13 UNK     1      27.304  -8.424  38.172  1.00  0.00     0.108 A 
HETATM   17  C15 UNK     1      28.142  -7.772  37.357  1.00  0.00     0.037 A 
HETATM   18  C16 UNK     1      29.523  -8.208  37.223  1.00  0.00    -0.001 A 
HETATM   19  C18 UNK     1      29.955  -9.310  37.954  1.00  0.00     0.089 A 
HETATM   20  C20 UNK     1      30.432  -7.557  36.385  1.00  0.00     0.014 A 
HETATM   21  O4  UNK     1      29.068  -9.993  38.810  1.00  0.00    -0.274 OA
HETATM   22  C21 UNK     1      31.264  -9.780  37.870  1.00  0.00     0.038 A 
HETATM   23  C17 UNK     1      27.742  -9.599  38.959  1.00  0.00     0.304 A 
HETATM   24  O5  UNK     1      26.977 -10.200  39.706  1.00  0.00    -0.259 OA
HETATM   25  C23 UNK     1      32.164  -9.124  37.032  1.00  0.00     0.003 A 
HETATM   26  C22 UNK     1      31.749  -8.016  36.291  1.00  0.00     0.001 A 
ENDBRANCH  13  16
ENDBRANCH  11  12
BRANCH  10  27
HETATM   27  C11 UNK     1      22.974 -10.117  36.001  1.00  0.00     0.296 C 
HETATM   28  O2  UNK     1      22.353 -10.141  34.929  1.00  0.00    -0.259 OA
BRANCH  27  29
HETATM   29  O1  UNK     1      24.054 -10.936  36.244  1.00  0.00    -0.318 OA
BRANCH  29  30
HETATM   30  C14 UNK     1      24.034 -12.231  35.632  1.00  0.00     0.174 C 
HETATM   31  C19 UNK     1      24.864 -13.183  36.465  1.00  0.00     0.034 C 
ENDBRANCH  29  30
ENDBRANCH  27  29
ENDBRANCH  10  27
TORSDOF 5
ENDMDL
MODEL 6
REMARK VINA RESULT:      -8.4     13.420     16.087
REMARK  5 active torsions:
REMARK  status: ('A' for Active; 'I' for Inactive)
REMARK    1  A    between atoms: C11_18  and  O1_2 
REMARK    2  A    between atoms: C14_21  and  O1_2 
REMARK    3  A    between atoms: C10_17  and  N1_7 
REMARK       I    between atoms: C12_19  and  N1_7 
REMARK    4  A    between atoms: C11_18  and  C9_16 
REMARK    5  A    between atoms: C12_19  and  C13_20 
ROOT
HETATM    1  S1  UNK     1      28.197  -9.468  36.093  1.00  0.00    -0.075 SA
HETATM    2  C1  UNK     1      31.729  -7.302  34.029  1.00  0.00     0.000 C 
HETATM    3  C2  UNK     1      32.120  -6.772  35.414  1.00  0.00     0.005 C 
HETATM    4  C3  UNK     1      32.200  -8.726  33.715  1.00  0.00     0.000 C 
HETATM    5  C4  UNK     1      31.760  -7.658  36.606  1.00  0.00     0.041 C 
HETATM    6  C5  UNK     1      31.096  -9.793  33.775  1.00  0.00     0.005 C 
HETATM    7  C6  UNK     1      30.335  -8.118  36.587  1.00  0.00    -0.026 A 
HETATM    8  C7  UNK     1      30.707 -10.265  35.178  1.00  0.00     0.046 C 
HETATM    9  C8  UNK     1      29.892  -9.261  35.942  1.00  0.00    -0.008 A 
HETATM   10  C9  UNK     1      29.253  -7.421  37.214  1.00  0.00     0.080 A 
HETATM   11  C10 UNK     1      28.042  -8.046  37.024  1.00  0.00     0.094 A 
ENDROOT
BRANCH  11  12
HETATM   12  N1  UNK     1      26.780  -7.720  37.442  1.00  0.00    -0.316 N 
HETATM   13  C12 UNK     1      26.187  -8.070  38.663  1.00  0.00     0.262 C 
HETATM   14  O3  UNK     1      26.664  -8.723  39.582  1.00  0.00    -0.267 OA
HETATM   15  H13 UNK     1      26.248  -7.153  36.788  1.00  0.00     0.169 HD
BRANCH  13  16
HETATM   16  C13 UNK     1      24.808  -7.552  38.789  1.00  0.00     0.108 A 
HETATM   17  C15 UNK     1      23.841  -8.468  38.915  1.00  0.00     0.037 A 
HETATM   18  C16 UNK     1      22.452  -8.055  39.045  1.00  0.00    -0.001 A 
HETATM   19  C18 UNK     1      22.149  -6.697  39.035  1.00  0.00     0.089 A 
HETATM   20  C20 UNK     1      21.410  -8.977  39.179  1.00  0.00     0.014 A 
HETATM   21  O4  UNK     1      23.172  -5.738  38.901  1.00  0.00    -0.274 OA
HETATM   22  C21 UNK     1      20.840  -6.235  39.153  1.00  0.00     0.038 A 
HETATM   23  C17 UNK     1      24.510  -6.102  38.776  1.00  0.00     0.304 A 
HETATM   24  O5  UNK     1      25.393  -5.260  38.660  1.00  0.00    -0.259 OA
HETATM   25  C23 UNK     1      19.808  -7.161  39.288  1.00  0.00     0.003 A 
HETATM   26  C22 UNK     1      20.091  -8.528  39.300  1.00  0.00     0.001 A 
ENDBRANCH  13  16
ENDBRANCH  11  12
BRANCH  10  27
HETATM   27  C11 UNK     1      29.368  -6.193  37.962  1.00  0.00     0.296 C 
HETATM   28  O2  UNK     1      29.235  -6.118  39.191  1.00  0.00    -0.259 OA
BRANCH  27  29
HETATM   29  O1  UNK     1      29.642  -5.090  37.183  1.00  0.00    -0.318 OA
BRANCH  29  30
HETATM   30  C14 UNK     1      30.333  -4.007  37.818  1.00  0.00     0.174 C 
HETATM   31  C19 UNK     1      31.480  -3.568  36.933  1.00  0.00     0.034 C 
ENDBRANCH  29  30
ENDBRANCH  27  29
ENDBRANCH  10  27
TORSDOF 5
ENDMDL
MODEL 7
REMARK VINA RESULT:      -8.4     13.900     16.794
REMARK  5 active torsions:
REMARK  status: ('A' for Active; 'I' for Inactive)
REMARK    1  A    between atoms: C11_18  and  O1_2 
REMARK    2  A    between atoms: C14_21  and  O1_2 
REMARK    3  A    between atoms: C10_17  and  N1_7 
REMARK       I    between atoms: C12_19  and  N1_7 
REMARK    4  A    between atoms: C11_18  and  C9_16 
REMARK    5  A    between atoms: C12_19  and  C13_20 
ROOT
HETATM    1  S1  UNK     1      28.479  -9.179  35.116  1.00  0.00    -0.075 SA
HETATM    2  C1  UNK     1      32.065  -7.231  37.301  1.00  0.00     0.000 C 
HETATM    3  C2  UNK     1      31.853  -8.261  38.417  1.00  0.00     0.005 C 
HETATM    4  C3  UNK     1      32.859  -7.732  36.090  1.00  0.00     0.000 C 
HETATM    5  C4  UNK     1      31.265  -9.608  37.995  1.00  0.00     0.041 C 
HETATM    6  C5  UNK     1      32.010  -8.020  34.842  1.00  0.00     0.005 C 
HETATM    7  C6  UNK     1      30.040  -9.474  37.145  1.00  0.00    -0.026 A 
HETATM    8  C7  UNK     1      31.249  -9.349  34.853  1.00  0.00     0.046 C 
HETATM    9  C8  UNK     1      30.056  -9.347  35.765  1.00  0.00    -0.008 A 
HETATM   10  C9  UNK     1      28.702  -9.436  37.655  1.00  0.00     0.080 A 
HETATM   11  C10 UNK     1      27.763  -9.281  36.662  1.00  0.00     0.094 A 
ENDROOT
BRANCH  11  12
HETATM   12  N1  UNK     1      26.397  -9.195  36.713  1.00  0.00    -0.316 N 
HETATM   13  C12 UNK     1      25.488 -10.258  36.630  1.00  0.00     0.262 C 
HETATM   14  O3  UNK     1      25.723 -11.452  36.497  1.00  0.00    -0.267 OA
HETATM   15  H13 UNK     1      26.035  -8.254  36.841  1.00  0.00     0.169 HD
BRANCH  13  16
HETATM   16  C13 UNK     1      24.084  -9.807  36.720  1.00  0.00     0.108 A 
HETATM   17  C15 UNK     1      23.846  -8.773  37.536  1.00  0.00     0.037 A 
HETATM   18  C16 UNK     1      22.494  -8.259  37.692  1.00  0.00    -0.001 A 
HETATM   19  C18 UNK     1      21.458  -8.859  36.982  1.00  0.00     0.089 A 
HETATM   20  C20 UNK     1      22.200  -7.181  38.531  1.00  0.00     0.014 A 
HETATM   21  O4  UNK     1      21.716  -9.947  36.126  1.00  0.00    -0.274 OA
HETATM   22  C21 UNK     1      20.142  -8.415  37.088  1.00  0.00     0.038 A 
HETATM   23  C17 UNK     1      22.998 -10.461  35.955  1.00  0.00     0.304 A 
HETATM   24  O5  UNK     1      23.212 -11.410  35.209  1.00  0.00    -0.259 OA
HETATM   25  C23 UNK     1      19.858  -7.340  37.926  1.00  0.00     0.003 A 
HETATM   26  C22 UNK     1      20.883  -6.724  38.647  1.00  0.00     0.001 A 
ENDBRANCH  13  16
ENDBRANCH  11  12
BRANCH  10  27
HETATM   27  C11 UNK     1      28.332  -9.533  39.045  1.00  0.00     0.296 C 
HETATM   28  O2  UNK     1      28.630 -10.491  39.774  1.00  0.00    -0.259 OA
BRANCH  27  29
HETATM   29  O1  UNK     1      27.608  -8.456  39.507  1.00  0.00    -0.318 OA
BRANCH  29  30
HETATM   30  C14 UNK     1      28.259  -7.180  39.479  1.00  0.00     0.174 C 
HETATM   31  C19 UNK     1      27.336  -6.169  38.834  1.00  0.00     0.034 C 
ENDBRANCH  29  30
ENDBRANCH  27  29
ENDBRANCH  10  27
TORSDOF 5
ENDMDL
MODEL 8
REMARK VINA RESULT:      -8.4     13.384     16.363
REMARK  5 active torsions:
REMARK  status: ('A' for Active; 'I' for Inactive)
REMARK    1  A    between atoms: C11_18  and  O1_2 
REMARK    2  A    between atoms: C14_21  and  O1_2 
REMARK    3  A    between atoms: C10_17  and  N1_7 
REMARK       I    between atoms: C12_19  and  N1_7 
REMARK    4  A    between atoms: C11_18  and  C9_16 
REMARK    5  A    between atoms: C12_19  and  C13_20 
ROOT
HETATM    1  S1  UNK     1      23.086  -7.071  39.401  1.00  0.00    -0.075 SA
HETATM    2  C1  UNK     1      19.857  -7.918  36.195  1.00  0.00     0.000 C 
HETATM    3  C2  UNK     1      20.482  -9.309  36.035  1.00  0.00     0.005 C 
HETATM    4  C3  UNK     1      18.888  -7.766  37.372  1.00  0.00     0.000 C 
HETATM    5  C4  UNK     1      21.155  -9.897  37.276  1.00  0.00     0.041 C 
HETATM    6  C5  UNK     1      19.455  -6.991  38.571  1.00  0.00     0.005 C 
HETATM    7  C6  UNK     1      22.110  -8.949  37.931  1.00  0.00    -0.026 A 
HETATM    8  C7  UNK     1      20.392  -7.783  39.487  1.00  0.00     0.046 C 
HETATM    9  C8  UNK     1      21.751  -8.017  38.892  1.00  0.00    -0.008 A 
HETATM   10  C9  UNK     1      23.508  -8.871  37.629  1.00  0.00     0.080 A 
HETATM   11  C10 UNK     1      24.152  -7.896  38.356  1.00  0.00     0.094 A 
ENDROOT
BRANCH  11  12
HETATM   12  N1  UNK     1      25.461  -7.496  38.372  1.00  0.00    -0.316 N 
HETATM   13  C12 UNK     1      26.517  -8.114  39.055  1.00  0.00     0.262 C 
HETATM   14  O3  UNK     1      26.486  -9.115  39.760  1.00  0.00    -0.267 OA
HETATM   15  H13 UNK     1      25.661  -6.673  37.809  1.00  0.00     0.169 HD
BRANCH  13  16
HETATM   16  C13 UNK     1      27.804  -7.416  38.854  1.00  0.00     0.108 A 
HETATM   17  C15 UNK     1      28.870  -8.194  38.629  1.00  0.00     0.037 A 
HETATM   18  C16 UNK     1      30.181  -7.598  38.421  1.00  0.00    -0.001 A 
HETATM   19  C18 UNK     1      30.306  -6.213  38.459  1.00  0.00     0.089 A 
HETATM   20  C20 UNK     1      31.320  -8.371  38.182  1.00  0.00     0.014 A 
HETATM   21  O4  UNK     1      29.180  -5.400  38.696  1.00  0.00    -0.274 OA
HETATM   22  C21 UNK     1      31.532  -5.581  38.268  1.00  0.00     0.038 A 
HETATM   23  C17 UNK     1      27.913  -5.940  38.899  1.00  0.00     0.304 A 
HETATM   24  O5  UNK     1      26.939  -5.225  39.105  1.00  0.00    -0.259 OA
HETATM   25  C23 UNK     1      32.663  -6.359  38.031  1.00  0.00     0.003 A 
HETATM   26  C22 UNK     1      32.559  -7.751  37.988  1.00  0.00     0.001 A 
ENDBRANCH  13  16
ENDBRANCH  11  12
BRANCH  10  27
HETATM   27  C11 UNK     1      24.205  -9.692  36.670  1.00  0.00     0.296 C 
HETATM   28  O2  UNK     1      23.691 -10.656  36.083  1.00  0.00    -0.259 OA
BRANCH  27  29
HETATM   29  O1  UNK     1      25.511  -9.312  36.455  1.00  0.00    -0.318 OA
BRANCH  29  30
HETATM   30  C14 UNK     1      26.473 -10.363  36.297  1.00  0.00     0.174 C 
HETATM   31  C19 UNK     1      27.710  -9.803  35.631  1.00  0.00     0.034 C 
ENDBRANCH  29  30
ENDBRANCH  27  29
ENDBRANCH  10  27
TORSDOF 5
ENDMDL
MODEL 9
REMARK VINA RESULT:      -8.3     13.642     16.150
REMARK  5 active torsions:
REMARK  status: ('A' for Active; 'I' for Inactive)
REMARK    1  A    between atoms: C11_18  and  O1_2 
REMARK    2  A    between atoms: C14_21  and  O1_2 
REMARK    3  A    between atoms: C10_17  and  N1_7 
REMARK       I    between atoms: C12_19  and  N1_7 
REMARK    4  A    between atoms: C11_18  and  C9_16 
REMARK    5  A    between atoms: C12_19  and  C13_20 
ROOT
HETATM    1  S1  UNK     1      30.455  -5.433  37.778  1.00  0.00    -0.075 SA
HETATM    2  C1  UNK     1      33.380  -8.359  35.701  1.00  0.00     0.000 C 
HETATM    3  C2  UNK     1      32.645  -8.050  34.390  1.00  0.00     0.005 C 
HETATM    4  C3  UNK     1      34.438  -7.332  36.117  1.00  0.00     0.000 C 
HETATM    5  C4  UNK     1      32.021  -6.659  34.274  1.00  0.00     0.041 C 
HETATM    6  C5  UNK     1      34.015  -6.408  37.269  1.00  0.00     0.005 C 
HETATM    7  C6  UNK     1      31.185  -6.289  35.460  1.00  0.00    -0.026 A 
HETATM    8  C7  UNK     1      33.089  -5.251  36.885  1.00  0.00     0.046 C 
HETATM    9  C8  UNK     1      31.679  -5.682  36.604  1.00  0.00    -0.008 A 
HETATM   10  C9  UNK     1      29.779  -6.538  35.568  1.00  0.00     0.080 A 
HETATM   11  C10 UNK     1      29.260  -6.122  36.772  1.00  0.00     0.094 A 
ENDROOT
BRANCH  11  12
HETATM   12  N1  UNK     1      27.988  -6.173  37.276  1.00  0.00    -0.316 N 
HETATM   13  C12 UNK     1      27.489  -7.106  38.194  1.00  0.00     0.262 C 
HETATM   14  O3  UNK     1      28.073  -8.044  38.721  1.00  0.00    -0.267 OA
HETATM   15  H13 UNK     1      27.370  -5.437  36.944  1.00  0.00     0.169 HD
BRANCH  13  16
HETATM   16  C13 UNK     1      26.067  -6.868  38.523  1.00  0.00     0.108 A 
HETATM   17  C15 UNK     1      25.262  -7.935  38.472  1.00  0.00     0.037 A 
HETATM   18  C16 UNK     1      23.846  -7.801  38.778  1.00  0.00    -0.001 A 
HETATM   19  C18 UNK     1      23.347  -6.548  39.123  1.00  0.00     0.089 A 
HETATM   20  C20 UNK     1      22.969  -8.887  38.739  1.00  0.00     0.014 A 
HETATM   21  O4  UNK     1      24.201  -5.428  39.174  1.00  0.00    -0.274 OA
HETATM   22  C21 UNK     1      22.002  -6.351  39.427  1.00  0.00     0.038 A 
HETATM   23  C17 UNK     1      25.559  -5.526  38.887  1.00  0.00     0.304 A 
HETATM   24  O5  UNK     1      26.294  -4.546  38.933  1.00  0.00    -0.259 OA
HETATM   25  C23 UNK     1      21.135  -7.440  39.385  1.00  0.00     0.003 A 
HETATM   26  C22 UNK     1      21.616  -8.705  39.042  1.00  0.00     0.001 A 
ENDBRANCH  13  16
ENDBRANCH  11  12
BRANCH  10  27
HETATM   27  C11 UNK     1      28.959  -7.163  34.560  1.00  0.00     0.296 C 
HETATM   28  O2  UNK     1      29.057  -8.353  34.229  1.00  0.00    -0.259 OA
BRANCH  27  29
HETATM   29  O1  UNK     1      28.040  -6.313  33.983  1.00  0.00    -0.318 OA
BRANCH  29  30
HETATM   30  C14 UNK     1      28.060  -6.214  32.554  1.00  0.00     0.174 C 
HETATM   31  C19 UNK     1      29.149  -5.248  32.141  1.00  0.00     0.034 C 
ENDBRANCH  29  30
ENDBRANCH  27  29
ENDBRANCH  10  27
TORSDOF 5
ENDMDL
MODEL 10
REMARK VINA RESULT:      -8.2     15.392     17.975
REMARK  5 active torsions:
REMARK  status: ('A' for Active; 'I' for Inactive)
REMARK    1  A    between atoms: C11_18  and  O1_2 
REMARK    2  A    between atoms: C14_21  and  O1_2 
REMARK    3  A    between atoms: C10_17  and  N1_7 
REMARK       I    between atoms: C12_19  and  N1_7 
REMARK    4  A    between atoms: C11_18  and  C9_16 
REMARK    5  A    between atoms: C12_19  and  C13_20 
ROOT
HETATM    1  S1  UNK     1      31.815  -8.851  34.726  1.00  0.00    -0.075 SA
HETATM    2  C1  UNK     1      34.504  -5.119  34.218  1.00  0.00     0.000 C 
HETATM    3  C2  UNK     1      34.515  -5.006  35.747  1.00  0.00     0.005 C 
HETATM    4  C3  UNK     1      35.500  -6.123  33.628  1.00  0.00     0.000 C 
HETATM    5  C4  UNK     1      34.376  -6.315  36.525  1.00  0.00     0.041 C 
HETATM    6  C5  UNK     1      34.868  -7.433  33.131  1.00  0.00     0.005 C 
HETATM    7  C6  UNK     1      33.234  -7.160  36.054  1.00  0.00    -0.026 A 
HETATM    8  C7  UNK     1      34.527  -8.457  34.216  1.00  0.00     0.046 C 
HETATM    9  C8  UNK     1      33.319  -8.087  35.027  1.00  0.00    -0.008 A 
HETATM   10  C9  UNK     1      31.907  -7.099  36.591  1.00  0.00     0.080 A 
HETATM   11  C10 UNK     1      31.042  -7.964  35.962  1.00  0.00     0.094 A 
ENDROOT
BRANCH  11  12
HETATM   12  N1  UNK     1      29.711  -8.214  36.158  1.00  0.00    -0.316 N 
HETATM   13  C12 UNK     1      29.151  -9.030  37.151  1.00  0.00     0.262 C 
HETATM   14  O3  UNK     1      29.723  -9.669  38.024  1.00  0.00    -0.267 OA
HETATM   15  H13 UNK     1      29.088  -7.735  35.514  1.00  0.00     0.169 HD
BRANCH  13  16
HETATM   16  C13 UNK     1      27.675  -9.078  37.075  1.00  0.00     0.108 A 
HETATM   17  C15 UNK     1      27.145 -10.203  36.582  1.00  0.00     0.037 A 
HETATM   18  C16 UNK     1      25.702 -10.345  36.467  1.00  0.00    -0.001 A 
HETATM   19  C18 UNK     1      24.887  -9.294  36.876  1.00  0.00     0.089 A 
HETATM   20  C20 UNK     1      25.105 -11.502  35.959  1.00  0.00     0.014 A 
HETATM   21  O4  UNK     1      25.452  -8.111  37.393  1.00  0.00    -0.274 OA
HETATM   22  C21 UNK     1      23.498  -9.365  36.791  1.00  0.00     0.038 A 
HETATM   23  C17 UNK     1      26.828  -7.947  37.516  1.00  0.00     0.304 A 
HETATM   24  O5  UNK     1      27.311  -6.914  37.967  1.00  0.00    -0.259 OA
HETATM   25  C23 UNK     1      22.912 -10.522  36.284  1.00  0.00     0.003 A 
HETATM   26  C22 UNK     1      23.712 -11.588  35.868  1.00  0.00     0.001 A 
ENDBRANCH  13  16
ENDBRANCH  11  12
BRANCH  10  27
HETATM   27  C11 UNK     1      31.476  -6.234  37.662  1.00  0.00     0.296 C 
HETATM   28  O2  UNK     1      32.070  -6.127  38.745  1.00  0.00    -0.259 OA
BRANCH  27  29
HETATM   29  O1  UNK     1      30.330  -5.525  37.379  1.00  0.00    -0.318 OA
BRANCH  29  30
HETATM   30  C14 UNK     1      30.251  -4.191  37.895  1.00  0.00     0.174 C 
HETATM   31  C19 UNK     1      29.410  -4.196  39.152  1.00  0.00     0.034 C 
ENDBRANCH  29  30
ENDBRANCH  27  29
ENDBRANCH  10  27
TORSDOF 5
ENDMDL
