MODEL 1
REMARK VINA RESULT:      -7.7      0.000      0.000
REMARK  3 active torsions:
REMARK  status: ('A' for Active; 'I' for Inactive)
REMARK    1  A    between atoms: C9_16  and  O2_6 
REMARK    2  A    between atoms: C1_8  and  C4_11 
REMARK    3  A    between atoms: C10_17  and  C4_11 
ROOT
HETATM    1  O1  UNK     1      18.658  -0.171  33.061  1.00  0.00    -0.307 OA
HETATM    2  O3  UNK     1      21.237  -3.271  32.475  1.00  0.00    -0.287 OA
HETATM    3  C1  UNK     1      18.956  -1.072  34.071  1.00  0.00     0.134 A 
HETATM    4  C2  UNK     1      20.147  -1.378  31.569  1.00  0.00     0.048 A 
HETATM    5  C3  UNK     1      19.256  -0.341  31.838  1.00  0.00     0.092 A 
HETATM    6  C5  UNK     1      19.796  -2.109  33.934  1.00  0.00     0.095 A 
HETATM    7  C6  UNK     1      20.464  -2.337  32.639  1.00  0.00     0.187 A 
HETATM    8  C7  UNK     1      18.939   0.582  30.840  1.00  0.00     0.075 A 
HETATM    9  C8  UNK     1      20.726  -1.502  30.304  1.00  0.00     0.021 A 
HETATM   10  C9  UNK     1      19.516   0.461  29.575  1.00  0.00     0.070 A 
HETATM   11  C11 UNK     1      20.407  -0.579  29.309  1.00  0.00     0.038 A 
ENDROOT
BRANCH   3  12
HETATM   12  C4  UNK     1      18.245  -0.784  35.356  1.00  0.00     0.349 C 
HETATM   13  F1  UNK     1      18.181  -1.903  36.119  1.00  0.00    -0.192 F 
HETATM   14  F2  UNK     1      18.918   0.146  36.077  1.00  0.00    -0.192 F 
BRANCH  12  15
HETATM   15  C10 UNK     1      16.848  -0.291  35.081  1.00  0.00     0.431 C 
HETATM   16  F3  UNK     1      16.084  -1.334  34.671  1.00  0.00    -0.207 F 
HETATM   17  F4  UNK     1      16.286   0.179  36.222  1.00  0.00    -0.207 F 
ENDBRANCH  12  15
ENDBRANCH   3  12
BRANCH  10  18
HETATM   18  O2  UNK     1      19.207   1.359  28.600  1.00  0.00    -0.356 OA
HETATM   19  C12 UNK     1      17.906   1.942  28.643  1.00  0.00     0.210 C 
ENDBRANCH  10  18
TORSDOF 3
ENDMDL
MODEL 2
REMARK VINA RESULT:      -7.6      0.668      1.252
REMARK  3 active torsions:
REMARK  status: ('A' for Active; 'I' for Inactive)
REMARK    1  A    between atoms: C9_16  and  O2_6 
REMARK    2  A    between atoms: C1_8  and  C4_11 
REMARK    3  A    between atoms: C10_17  and  C4_11 
ROOT
HETATM    1  O1  UNK     1      18.677  -0.153  33.035  1.00  0.00    -0.307 OA
HETATM    2  O3  UNK     1      21.238  -3.273  32.477  1.00  0.00    -0.287 OA
HETATM    3  C1  UNK     1      18.987  -1.033  34.059  1.00  0.00     0.134 A 
HETATM    4  C2  UNK     1      20.141  -1.396  31.547  1.00  0.00     0.048 A 
HETATM    5  C3  UNK     1      19.256  -0.351  31.807  1.00  0.00     0.092 A 
HETATM    6  C5  UNK     1      19.822  -2.076  33.932  1.00  0.00     0.095 A 
HETATM    7  C6  UNK     1      20.471  -2.333  32.632  1.00  0.00     0.187 A 
HETATM    8  C7  UNK     1      18.928   0.552  30.795  1.00  0.00     0.075 A 
HETATM    9  C8  UNK     1      20.701  -1.549  30.277  1.00  0.00     0.021 A 
HETATM   10  C9  UNK     1      19.485   0.403  29.525  1.00  0.00     0.070 A 
HETATM   11  C11 UNK     1      20.369  -0.645  29.267  1.00  0.00     0.038 A 
ENDROOT
BRANCH   3  12
HETATM   12  C4  UNK     1      18.297  -0.717  35.349  1.00  0.00     0.349 C 
HETATM   13  F1  UNK     1      17.040  -1.225  35.348  1.00  0.00    -0.192 F 
HETATM   14  F2  UNK     1      18.951  -1.283  36.393  1.00  0.00    -0.192 F 
BRANCH  12  15
HETATM   15  C10 UNK     1      18.227   0.775  35.550  1.00  0.00     0.431 C 
HETATM   16  F3  UNK     1      17.358   1.044  36.557  1.00  0.00    -0.207 F 
HETATM   17  F4  UNK     1      19.435   1.250  35.943  1.00  0.00    -0.207 F 
ENDBRANCH  12  15
ENDBRANCH   3  12
BRANCH  10  18
HETATM   18  O2  UNK     1      19.165   1.280  28.535  1.00  0.00    -0.356 OA
HETATM   19  C12 UNK     1      17.931   1.983  28.666  1.00  0.00     0.210 C 
ENDBRANCH  10  18
TORSDOF 3
ENDMDL
MODEL 3
REMARK VINA RESULT:      -7.4      1.085      1.409
REMARK  3 active torsions:
REMARK  status: ('A' for Active; 'I' for Inactive)
REMARK    1  A    between atoms: C9_16  and  O2_6 
REMARK    2  A    between atoms: C1_8  and  C4_11 
REMARK    3  A    between atoms: C10_17  and  C4_11 
ROOT
HETATM    1  O1  UNK     1      18.504   0.266  33.430  1.00  0.00    -0.307 OA
HETATM    2  O3  UNK     1      20.514  -3.230  34.016  1.00  0.00    -0.287 OA
HETATM    3  C1  UNK     1      18.551  -0.348  34.670  1.00  0.00     0.134 A 
HETATM    4  C2  UNK     1      19.864  -1.526  32.512  1.00  0.00     0.048 A 
HETATM    5  C3  UNK     1      19.158  -0.331  32.381  1.00  0.00     0.092 A 
HETATM    6  C5  UNK     1      19.196  -1.497  34.921  1.00  0.00     0.095 A 
HETATM    7  C6  UNK     1      19.914  -2.181  33.828  1.00  0.00     0.187 A 
HETATM    8  C7  UNK     1      19.095   0.310  31.143  1.00  0.00     0.075 A 
HETATM    9  C8  UNK     1      20.510  -2.089  31.409  1.00  0.00     0.021 A 
HETATM   10  C9  UNK     1      19.740  -0.249  30.039  1.00  0.00     0.070 A 
HETATM   11  C11 UNK     1      20.445  -1.445  30.172  1.00  0.00     0.038 A 
ENDROOT
BRANCH   3  12
HETATM   12  C4  UNK     1      17.804   0.396  35.733  1.00  0.00     0.349 C 
HETATM   13  F1  UNK     1      18.348   0.151  36.950  1.00  0.00    -0.192 F 
HETATM   14  F2  UNK     1      17.883   1.733  35.527  1.00  0.00    -0.192 F 
BRANCH  12  15
HETATM   15  C10 UNK     1      16.357  -0.025  35.744  1.00  0.00     0.431 C 
HETATM   16  F3  UNK     1      15.751   0.508  36.835  1.00  0.00    -0.207 F 
HETATM   17  F4  UNK     1      15.717   0.478  34.660  1.00  0.00    -0.207 F 
ENDBRANCH  12  15
ENDBRANCH   3  12
BRANCH  10  18
HETATM   18  O2  UNK     1      19.679   0.373  28.830  1.00  0.00    -0.356 OA
HETATM   19  C12 UNK     1      18.515   1.151  28.559  1.00  0.00     0.210 C 
ENDBRANCH  10  18
TORSDOF 3
ENDMDL
MODEL 4
REMARK VINA RESULT:      -7.3      3.589      5.501
REMARK  3 active torsions:
REMARK  status: ('A' for Active; 'I' for Inactive)
REMARK    1  A    between atoms: C9_16  and  O2_6 
REMARK    2  A    between atoms: C1_8  and  C4_11 
REMARK    3  A    between atoms: C10_17  and  C4_11 
ROOT
HETATM    1  O1  UNK     1      19.010  -0.216  31.629  1.00  0.00    -0.307 OA
HETATM    2  O3  UNK     1      21.305  -3.332  32.905  1.00  0.00    -0.287 OA
HETATM    3  C1  UNK     1      19.872  -0.884  30.774  1.00  0.00     0.134 A 
HETATM    4  C2  UNK     1      19.695  -1.685  33.438  1.00  0.00     0.048 A 
HETATM    5  C3  UNK     1      18.939  -0.627  32.936  1.00  0.00     0.092 A 
HETATM    6  C5  UNK     1      20.650  -1.914  31.139  1.00  0.00     0.095 A 
HETATM    7  C6  UNK     1      20.612  -2.395  32.533  1.00  0.00     0.187 A 
HETATM    8  C7  UNK     1      18.061   0.062  33.774  1.00  0.00     0.075 A 
HETATM    9  C8  UNK     1      19.581  -2.060  34.779  1.00  0.00     0.021 A 
HETATM   10  C9  UNK     1      17.945  -0.310  35.113  1.00  0.00     0.070 A 
HETATM   11  C11 UNK     1      18.704  -1.368  35.614  1.00  0.00     0.038 A 
ENDROOT
BRANCH   3  12
HETATM   12  C4  UNK     1      19.863  -0.347  29.377  1.00  0.00     0.349 C 
HETATM   13  F1  UNK     1      21.097   0.095  29.033  1.00  0.00    -0.192 F 
HETATM   14  F2  UNK     1      19.532  -1.320  28.493  1.00  0.00    -0.192 F 
BRANCH  12  15
HETATM   15  C10 UNK     1      18.880   0.789  29.261  1.00  0.00     0.431 C 
HETATM   16  F3  UNK     1      19.539   1.963  29.431  1.00  0.00    -0.207 F 
HETATM   17  F4  UNK     1      18.346   0.821  28.015  1.00  0.00    -0.207 F 
ENDBRANCH  12  15
ENDBRANCH   3  12
BRANCH  10  18
HETATM   18  O2  UNK     1      17.092   0.362  35.933  1.00  0.00    -0.356 OA
HETATM   19  C12 UNK     1      15.699   0.256  35.647  1.00  0.00     0.210 C 
ENDBRANCH  10  18
TORSDOF 3
ENDMDL
MODEL 5
REMARK VINA RESULT:      -7.3     13.170     15.715
REMARK  3 active torsions:
REMARK  status: ('A' for Active; 'I' for Inactive)
REMARK    1  A    between atoms: C9_16  and  O2_6 
REMARK    2  A    between atoms: C1_8  and  C4_11 
REMARK    3  A    between atoms: C10_17  and  C4_11 
ROOT
HETATM    1  O1  UNK     1      18.459  -0.869  17.957  1.00  0.00    -0.307 OA
HETATM    2  O3  UNK     1      19.837   1.948  15.355  1.00  0.00    -0.287 OA
HETATM    3  C1  UNK     1      18.817   0.400  18.380  1.00  0.00     0.134 A 
HETATM    4  C2  UNK     1      19.040  -0.254  15.680  1.00  0.00     0.048 A 
HETATM    5  C3  UNK     1      18.576  -1.170  16.623  1.00  0.00     0.092 A 
HETATM    6  C5  UNK     1      19.277   1.366  17.569  1.00  0.00     0.095 A 
HETATM    7  C6  UNK     1      19.423   1.094  16.126  1.00  0.00     0.187 A 
HETATM    8  C7  UNK     1      18.206  -2.454  16.225  1.00  0.00     0.075 A 
HETATM    9  C8  UNK     1      19.139  -0.615  14.334  1.00  0.00     0.021 A 
HETATM   10  C9  UNK     1      18.303  -2.819  14.881  1.00  0.00     0.070 A 
HETATM   11  C11 UNK     1      18.769  -1.902  13.939  1.00  0.00     0.038 A 
ENDROOT
BRANCH   3  12
HETATM   12  C4  UNK     1      18.646   0.610  19.852  1.00  0.00     0.349 C 
HETATM   13  F1  UNK     1      17.330   0.642  20.174  1.00  0.00    -0.192 F 
HETATM   14  F2  UNK     1      19.198  -0.414  20.548  1.00  0.00    -0.192 F 
BRANCH  12  15
HETATM   15  C10 UNK     1      19.290   1.906  20.273  1.00  0.00     0.431 C 
HETATM   16  F3  UNK     1      18.642   2.387  21.363  1.00  0.00    -0.207 F 
HETATM   17  F4  UNK     1      20.575   1.689  20.648  1.00  0.00    -0.207 F 
ENDBRANCH  12  15
ENDBRANCH   3  12
BRANCH  10  18
HETATM   18  O2  UNK     1      17.945  -4.072  14.490  1.00  0.00    -0.356 OA
HETATM   19  C12 UNK     1      17.992  -5.099  15.479  1.00  0.00     0.210 C 
ENDBRANCH  10  18
TORSDOF 3
ENDMDL
MODEL 6
REMARK VINA RESULT:      -7.3      2.148      3.696
REMARK  3 active torsions:
REMARK  status: ('A' for Active; 'I' for Inactive)
REMARK    1  A    between atoms: C9_16  and  O2_6 
REMARK    2  A    between atoms: C1_8  and  C4_11 
REMARK    3  A    between atoms: C10_17  and  C4_11 
ROOT
HETATM    1  O1  UNK     1      18.797   0.851  33.322  1.00  0.00    -0.307 OA
HETATM    2  O3  UNK     1      17.653   4.691  32.584  1.00  0.00    -0.287 OA
HETATM    3  C1  UNK     1      18.398   1.700  34.340  1.00  0.00     0.134 A 
HETATM    4  C2  UNK     1      18.422   2.632  31.713  1.00  0.00     0.048 A 
HETATM    5  C3  UNK     1      18.801   1.330  32.036  1.00  0.00     0.092 A 
HETATM    6  C5  UNK     1      18.012   2.972  34.156  1.00  0.00     0.095 A 
HETATM    7  C6  UNK     1      17.999   3.537  32.793  1.00  0.00     0.187 A 
HETATM    8  C7  UNK     1      19.205   0.452  31.030  1.00  0.00     0.075 A 
HETATM    9  C8  UNK     1      18.445   3.066  30.386  1.00  0.00     0.021 A 
HETATM   10  C9  UNK     1      19.230   0.882  29.703  1.00  0.00     0.070 A 
HETATM   11  C11 UNK     1      18.851   2.186  29.382  1.00  0.00     0.038 A 
ENDROOT
BRANCH   3  12
HETATM   12  C4  UNK     1      18.435   1.067  35.696  1.00  0.00     0.349 C 
HETATM   13  F1  UNK     1      19.399   0.115  35.746  1.00  0.00    -0.192 F 
HETATM   14  F2  UNK     1      18.738   1.985  36.645  1.00  0.00    -0.192 F 
BRANCH  12  15
HETATM   15  C10 UNK     1      17.102   0.439  36.014  1.00  0.00     0.431 C 
HETATM   16  F3  UNK     1      16.521   1.127  37.029  1.00  0.00    -0.207 F 
HETATM   17  F4  UNK     1      16.270   0.543  34.948  1.00  0.00    -0.207 F 
ENDBRANCH  12  15
ENDBRANCH   3  12
BRANCH  10  18
HETATM   18  O2  UNK     1      19.626   0.029  28.720  1.00  0.00    -0.356 OA
HETATM   19  C12 UNK     1      20.668  -0.891  29.040  1.00  0.00     0.210 C 
ENDBRANCH  10  18
TORSDOF 3
ENDMDL
MODEL 7
REMARK VINA RESULT:      -7.2      3.847      6.420
REMARK  3 active torsions:
REMARK  status: ('A' for Active; 'I' for Inactive)
REMARK    1  A    between atoms: C9_16  and  O2_6 
REMARK    2  A    between atoms: C1_8  and  C4_11 
REMARK    3  A    between atoms: C10_17  and  C4_11 
ROOT
HETATM    1  O1  UNK     1      18.607   0.444  31.669  1.00  0.00    -0.307 OA
HETATM    2  O3  UNK     1      17.947   4.096  33.351  1.00  0.00    -0.287 OA
HETATM    3  C1  UNK     1      18.505   1.591  30.901  1.00  0.00     0.134 A 
HETATM    4  C2  UNK     1      18.255   1.774  33.671  1.00  0.00     0.048 A 
HETATM    5  C3  UNK     1      18.481   0.556  33.031  1.00  0.00     0.092 A 
HETATM    6  C5  UNK     1      18.288   2.818  31.400  1.00  0.00     0.095 A 
HETATM    7  C6  UNK     1      18.145   2.994  32.858  1.00  0.00     0.187 A 
HETATM    8  C7  UNK     1      18.590  -0.616  33.780  1.00  0.00     0.075 A 
HETATM    9  C8  UNK     1      18.134   1.829  35.062  1.00  0.00     0.021 A 
HETATM   10  C9  UNK     1      18.470  -0.564  35.170  1.00  0.00     0.070 A 
HETATM   11  C11 UNK     1      18.243   0.655  35.808  1.00  0.00     0.038 A 
ENDROOT
BRANCH   3  12
HETATM   12  C4  UNK     1      18.660   1.343  29.433  1.00  0.00     0.349 C 
HETATM   13  F1  UNK     1      17.445   1.211  28.846  1.00  0.00    -0.192 F 
HETATM   14  F2  UNK     1      19.275   2.392  28.833  1.00  0.00    -0.192 F 
BRANCH  12  15
HETATM   15  C10 UNK     1      19.463   0.090  29.198  1.00  0.00     0.431 C 
HETATM   16  F3  UNK     1      19.259  -0.332  27.924  1.00  0.00    -0.207 F 
HETATM   17  F4  UNK     1      20.788   0.356  29.312  1.00  0.00    -0.207 F 
ENDBRANCH  12  15
ENDBRANCH   3  12
BRANCH  10  18
HETATM   18  O2  UNK     1      18.574  -1.706  35.903  1.00  0.00    -0.356 OA
HETATM   19  C12 UNK     1      18.290  -1.610  37.297  1.00  0.00     0.210 C 
ENDBRANCH  10  18
TORSDOF 3
ENDMDL
MODEL 8
REMARK VINA RESULT:      -7.1     24.432     26.727
REMARK  3 active torsions:
REMARK  status: ('A' for Active; 'I' for Inactive)
REMARK    1  A    between atoms: C9_16  and  O2_6 
REMARK    2  A    between atoms: C1_8  and  C4_11 
REMARK    3  A    between atoms: C10_17  and  C4_11 
ROOT
HETATM    1  O1  UNK     1      11.558   7.299   9.313  1.00  0.00    -0.307 OA
HETATM    2  O3  UNK     1      11.960   6.161   5.421  1.00  0.00    -0.287 OA
HETATM    3  C1  UNK     1      12.802   7.121   8.731  1.00  0.00     0.134 A 
HETATM    4  C2  UNK     1      10.507   6.694   7.208  1.00  0.00     0.048 A 
HETATM    5  C3  UNK     1      10.441   7.084   8.544  1.00  0.00     0.092 A 
HETATM    6  C5  UNK     1      12.994   6.748   7.457  1.00  0.00     0.095 A 
HETATM    7  C6  UNK     1      11.827   6.502   6.588  1.00  0.00     0.187 A 
HETATM    8  C7  UNK     1       9.201   7.272   9.155  1.00  0.00     0.075 A 
HETATM    9  C8  UNK     1       9.337   6.488   6.473  1.00  0.00     0.021 A 
HETATM   10  C9  UNK     1       8.030   7.068   8.425  1.00  0.00     0.070 A 
HETATM   11  C11 UNK     1       8.098   6.677   7.088  1.00  0.00     0.038 A 
ENDROOT
BRANCH   3  12
HETATM   12  C4  UNK     1      13.941   7.385   9.665  1.00  0.00     0.349 C 
HETATM   13  F1  UNK     1      14.862   8.183   9.071  1.00  0.00    -0.192 F 
HETATM   14  F2  UNK     1      13.510   8.037  10.773  1.00  0.00    -0.192 F 
BRANCH  12  15
HETATM   15  C10 UNK     1      14.595   6.090  10.069  1.00  0.00     0.431 C 
HETATM   16  F3  UNK     1      13.655   5.112  10.103  1.00  0.00    -0.207 F 
HETATM   17  F4  UNK     1      15.510   5.718   9.139  1.00  0.00    -0.207 F 
ENDBRANCH  12  15
ENDBRANCH   3  12
BRANCH  10  18
HETATM   18  O2  UNK     1       6.819   7.250   9.019  1.00  0.00    -0.356 OA
HETATM   19  C12 UNK     1       6.818   7.778  10.344  1.00  0.00     0.210 C 
ENDBRANCH  10  18
TORSDOF 3
ENDMDL
MODEL 9
REMARK VINA RESULT:      -7.1      7.878      9.485
REMARK  3 active torsions:
REMARK  status: ('A' for Active; 'I' for Inactive)
REMARK    1  A    between atoms: C9_16  and  O2_6 
REMARK    2  A    between atoms: C1_8  and  C4_11 
REMARK    3  A    between atoms: C10_17  and  C4_11 
ROOT
HETATM    1  O1  UNK     1      17.483   7.110  31.397  1.00  0.00    -0.307 OA
HETATM    2  O3  UNK     1      19.404   7.573  34.961  1.00  0.00    -0.287 OA
HETATM    3  C1  UNK     1      18.726   6.544  31.634  1.00  0.00     0.134 A 
HETATM    4  C2  UNK     1      17.499   8.039  33.642  1.00  0.00     0.048 A 
HETATM    5  C3  UNK     1      16.898   7.841  32.399  1.00  0.00     0.092 A 
HETATM    6  C5  UNK     1      19.404   6.664  32.786  1.00  0.00     0.095 A 
HETATM    7  C6  UNK     1      18.818   7.441  33.895  1.00  0.00     0.187 A 
HETATM    8  C7  UNK     1      15.646   8.398  32.134  1.00  0.00     0.075 A 
HETATM    9  C8  UNK     1      16.856   8.794  34.625  1.00  0.00     0.021 A 
HETATM   10  C9  UNK     1      15.000   9.152  33.115  1.00  0.00     0.070 A 
HETATM   11  C11 UNK     1      15.604   9.349  34.357  1.00  0.00     0.038 A 
ENDROOT
BRANCH   3  12
HETATM   12  C4  UNK     1      19.262   5.771  30.470  1.00  0.00     0.349 C 
HETATM   13  F1  UNK     1      18.656   6.165  29.323  1.00  0.00    -0.192 F 
HETATM   14  F2  UNK     1      20.589   6.000  30.314  1.00  0.00    -0.192 F 
BRANCH  12  15
HETATM   15  C10 UNK     1      19.029   4.296  30.672  1.00  0.00     0.431 C 
HETATM   16  F3  UNK     1      17.947   4.126  31.474  1.00  0.00    -0.207 F 
HETATM   17  F4  UNK     1      18.732   3.704  29.489  1.00  0.00    -0.207 F 
ENDBRANCH  12  15
ENDBRANCH   3  12
BRANCH  10  18
HETATM   18  O2  UNK     1      13.780   9.697  32.858  1.00  0.00    -0.356 OA
HETATM   19  C12 UNK     1      13.638  11.100  33.075  1.00  0.00     0.210 C 
ENDBRANCH  10  18
TORSDOF 3
ENDMDL
MODEL 10
REMARK VINA RESULT:      -7.0      8.518     10.248
REMARK  3 active torsions:
REMARK  status: ('A' for Active; 'I' for Inactive)
REMARK    1  A    between atoms: C9_16  and  O2_6 
REMARK    2  A    between atoms: C1_8  and  C4_11 
REMARK    3  A    between atoms: C10_17  and  C4_11 
ROOT
HETATM    1  O1  UNK     1      17.721   7.945  33.252  1.00  0.00    -0.307 OA
HETATM    2  O3  UNK     1      14.135   6.670  31.798  1.00  0.00    -0.287 OA
HETATM    3  C1  UNK     1      17.625   6.849  32.411  1.00  0.00     0.134 A 
HETATM    4  C2  UNK     1      15.311   8.226  33.133  1.00  0.00     0.048 A 
HETATM    5  C3  UNK     1      16.570   8.608  33.595  1.00  0.00     0.092 A 
HETATM    6  C5  UNK     1      16.473   6.385  31.903  1.00  0.00     0.095 A 
HETATM    7  C6  UNK     1      15.205   7.061  32.241  1.00  0.00     0.187 A 
HETATM    8  C7  UNK     1      16.697   9.709  34.442  1.00  0.00     0.075 A 
HETATM    9  C8  UNK     1      14.172   8.938  33.515  1.00  0.00     0.021 A 
HETATM   10  C9  UNK     1      15.561  10.424  34.826  1.00  0.00     0.070 A 
HETATM   11  C11 UNK     1      14.302  10.039  34.363  1.00  0.00     0.038 A 
ENDROOT
BRANCH   3  12
HETATM   12  C4  UNK     1      18.944   6.210  32.109  1.00  0.00     0.349 C 
HETATM   13  F1  UNK     1      18.830   4.859  32.133  1.00  0.00    -0.192 F 
HETATM   14  F2  UNK     1      19.365   6.548  30.865  1.00  0.00    -0.192 F 
BRANCH  12  15
HETATM   15  C10 UNK     1      19.975   6.638  33.121  1.00  0.00     0.431 C 
HETATM   16  F3  UNK     1      19.879   5.841  34.214  1.00  0.00    -0.207 F 
HETATM   17  F4  UNK     1      21.223   6.462  32.619  1.00  0.00    -0.207 F 
ENDBRANCH  12  15
ENDBRANCH   3  12
BRANCH  10  18
HETATM   18  O2  UNK     1      15.682  11.497  35.654  1.00  0.00    -0.356 OA
HETATM   19  C12 UNK     1      16.470  12.590  35.188  1.00  0.00     0.210 C 
ENDBRANCH  10  18
TORSDOF 3
ENDMDL
