MODEL 1
REMARK VINA RESULT:      -8.2      0.000      0.000
REMARK  2 active torsions:
REMARK  status: ('A' for Active; 'I' for Inactive)
REMARK    1  A    between atoms: C14_18  and  O3_3 
REMARK    2  A    between atoms: C10_14  and  C14_18 
ROOT
HETATM    1  O1  UNK     1      16.490   8.611  34.572  1.00  0.00    -0.274 OA
HETATM    2  O2  UNK     1      14.219   8.846  34.525  1.00  0.00    -0.259 OA
HETATM    3  C1  UNK     1      17.630   7.253  32.883  1.00  0.00     0.010 A 
HETATM    4  C2  UNK     1      18.851   6.733  32.364  1.00  0.00    -0.013 A 
HETATM    5  C3  UNK     1      20.067   7.066  33.025  1.00  0.00    -0.025 A 
HETATM    6  C4  UNK     1      17.668   8.069  34.017  1.00  0.00     0.090 A 
HETATM    7  C5  UNK     1      16.309   6.990  32.303  1.00  0.00     0.039 A 
HETATM    8  C6  UNK     1      20.051   7.890  34.161  1.00  0.00     0.015 A 
HETATM    9  C7  UNK     1      18.856   8.392  34.660  1.00  0.00     0.039 A 
HETATM   10  C8  UNK     1      18.947   5.898  31.224  1.00  0.00     0.013 A 
HETATM   11  C9  UNK     1      21.293   6.574  32.545  1.00  0.00     0.012 A 
HETATM   12  C10 UNK     1      15.195   7.507  32.835  1.00  0.00     0.114 A 
HETATM   13  C11 UNK     1      20.174   5.418  30.760  1.00  0.00     0.001 A 
HETATM   14  C12 UNK     1      21.346   5.756  31.420  1.00  0.00     0.001 A 
HETATM   15  C13 UNK     1      15.234   8.369  34.032  1.00  0.00     0.305 A 
ENDROOT
BRANCH  12  16
HETATM   16  C14 UNK     1      13.934   7.170  32.162  1.00  0.00     0.182 C 
HETATM   17  O4  UNK     1      13.790   7.128  30.956  1.00  0.00    -0.646 OA
BRANCH  16  18
HETATM   18  O3  UNK     1      12.984   6.921  33.086  1.00  0.00    -0.772 OA
HETATM   19  H8  UNK     1      13.221   6.166  33.665  1.00  0.00     0.167 HD
ENDBRANCH  16  18
ENDBRANCH  12  16
TORSDOF 2
ENDMDL
MODEL 2
REMARK VINA RESULT:      -8.0      5.657      7.266
REMARK  2 active torsions:
REMARK  status: ('A' for Active; 'I' for Inactive)
REMARK    1  A    between atoms: C14_18  and  O3_3 
REMARK    2  A    between atoms: C10_14  and  C14_18 
ROOT
HETATM    1  O1  UNK     1      18.833   0.433  32.440  1.00  0.00    -0.274 OA
HETATM    2  O2  UNK     1      19.373  -1.547  31.439  1.00  0.00    -0.259 OA
HETATM    3  C1  UNK     1      18.877   2.521  31.161  1.00  0.00     0.010 A 
HETATM    4  C2  UNK     1      18.685   3.932  31.133  1.00  0.00    -0.013 A 
HETATM    5  C3  UNK     1      18.280   4.587  32.330  1.00  0.00    -0.025 A 
HETATM    6  C4  UNK     1      18.659   1.830  32.356  1.00  0.00     0.090 A 
HETATM    7  C5  UNK     1      19.292   1.722  30.004  1.00  0.00     0.039 A 
HETATM    8  C6  UNK     1      18.076   3.848  33.505  1.00  0.00     0.015 A 
HETATM    9  C7  UNK     1      18.264   2.472  33.523  1.00  0.00     0.039 A 
HETATM   10  C8  UNK     1      18.871   4.744  29.988  1.00  0.00     0.013 A 
HETATM   11  C9  UNK     1      18.081   5.978  32.345  1.00  0.00     0.012 A 
HETATM   12  C10 UNK     1      19.455   0.396  30.090  1.00  0.00     0.114 A 
HETATM   13  C11 UNK     1      18.668   6.126  30.020  1.00  0.00     0.001 A 
HETATM   14  C12 UNK     1      18.273   6.743  31.197  1.00  0.00     0.001 A 
HETATM   15  C13 UNK     1      19.225  -0.334  31.351  1.00  0.00     0.305 A 
ENDROOT
BRANCH  12  16
HETATM   16  C14 UNK     1      19.874  -0.291  28.861  1.00  0.00     0.182 C 
HETATM   17  O4  UNK     1      19.256  -0.263  27.815  1.00  0.00    -0.646 OA
BRANCH  16  18
HETATM   18  O3  UNK     1      21.033  -0.943  29.083  1.00  0.00    -0.772 OA
HETATM   19  H8  UNK     1      21.583  -0.498  29.763  1.00  0.00     0.167 HD
ENDBRANCH  16  18
ENDBRANCH  12  16
TORSDOF 2
ENDMDL
MODEL 3
REMARK VINA RESULT:      -7.8     15.514     18.074
REMARK  2 active torsions:
REMARK  status: ('A' for Active; 'I' for Inactive)
REMARK    1  A    between atoms: C14_18  and  O3_3 
REMARK    2  A    between atoms: C10_14  and  C14_18 
ROOT
HETATM    1  O1  UNK     1      19.196   0.654  14.792  1.00  0.00    -0.274 OA
HETATM    2  O2  UNK     1      19.047  -1.052  13.281  1.00  0.00    -0.259 OA
HETATM    3  C1  UNK     1      19.149   0.188  17.195  1.00  0.00     0.010 A 
HETATM    4  C2  UNK     1      19.191   0.686  18.530  1.00  0.00    -0.013 A 
HETATM    5  C3  UNK     1      19.315   2.089  18.728  1.00  0.00    -0.025 A 
HETATM    6  C4  UNK     1      19.232   1.091  16.132  1.00  0.00     0.090 A 
HETATM    7  C5  UNK     1      19.024  -1.231  16.848  1.00  0.00     0.039 A 
HETATM    8  C6  UNK     1      19.394   2.955  17.626  1.00  0.00     0.015 A 
HETATM    9  C7  UNK     1      19.353   2.461  16.329  1.00  0.00     0.039 A 
HETATM   10  C8  UNK     1      19.118  -0.123  19.690  1.00  0.00     0.013 A 
HETATM   11  C9  UNK     1      19.360   2.621  20.029  1.00  0.00     0.012 A 
HETATM   12  C10 UNK     1      18.990  -1.640  15.573  1.00  0.00     0.114 A 
HETATM   13  C11 UNK     1      19.165   0.421  20.976  1.00  0.00     0.001 A 
HETATM   14  C12 UNK     1      19.286   1.792  21.145  1.00  0.00     0.001 A 
HETATM   15  C13 UNK     1      19.078  -0.687  14.450  1.00  0.00     0.305 A 
ENDROOT
BRANCH  12  16
HETATM   16  C14 UNK     1      18.862  -3.086  15.356  1.00  0.00     0.182 C 
HETATM   17  O4  UNK     1      19.673  -3.911  15.729  1.00  0.00    -0.646 OA
BRANCH  16  18
HETATM   18  O3  UNK     1      17.719  -3.341  14.688  1.00  0.00    -0.772 OA
HETATM   19  H8  UNK     1      17.887  -3.712  13.796  1.00  0.00     0.167 HD
ENDBRANCH  16  18
ENDBRANCH  12  16
TORSDOF 2
ENDMDL
MODEL 4
REMARK VINA RESULT:      -7.7      8.153     10.109
REMARK  2 active torsions:
REMARK  status: ('A' for Active; 'I' for Inactive)
REMARK    1  A    between atoms: C14_18  and  O3_3 
REMARK    2  A    between atoms: C10_14  and  C14_18 
ROOT
HETATM    1  O1  UNK     1      20.849  -2.908  30.768  1.00  0.00    -0.274 OA
HETATM    2  O2  UNK     1      21.431  -4.393  32.402  1.00  0.00    -0.259 OA
HETATM    3  C1  UNK     1      19.815  -0.766  31.352  1.00  0.00     0.010 A 
HETATM    4  C2  UNK     1      19.268   0.477  30.919  1.00  0.00    -0.013 A 
HETATM    5  C3  UNK     1      19.231   0.754  29.524  1.00  0.00    -0.025 A 
HETATM    6  C4  UNK     1      20.296  -1.664  30.396  1.00  0.00     0.090 A 
HETATM    7  C5  UNK     1      19.915  -1.179  32.755  1.00  0.00     0.039 A 
HETATM    8  C6  UNK     1      19.726  -0.183  28.604  1.00  0.00     0.015 A 
HETATM    9  C7  UNK     1      20.259  -1.391  29.035  1.00  0.00     0.039 A 
HETATM   10  C8  UNK     1      18.750   1.471  31.786  1.00  0.00     0.013 A 
HETATM   11  C9  UNK     1      18.699   1.967  29.056  1.00  0.00     0.012 A 
HETATM   12  C10 UNK     1      20.440  -2.360  33.102  1.00  0.00     0.114 A 
HETATM   13  C11 UNK     1      18.226   2.672  31.304  1.00  0.00     0.001 A 
HETATM   14  C12 UNK     1      18.200   2.921  29.939  1.00  0.00     0.001 A 
HETATM   15  C13 UNK     1      20.949  -3.310  32.094  1.00  0.00     0.305 A 
ENDROOT
BRANCH  12  16
HETATM   16  C14 UNK     1      20.483  -2.657  34.540  1.00  0.00     0.182 C 
HETATM   17  O4  UNK     1      20.806  -1.858  35.396  1.00  0.00    -0.646 OA
BRANCH  16  18
HETATM   18  O3  UNK     1      20.113  -3.938  34.745  1.00  0.00    -0.772 OA
HETATM   19  H8  UNK     1      19.189  -4.105  34.462  1.00  0.00     0.167 HD
ENDBRANCH  16  18
ENDBRANCH  12  16
TORSDOF 2
ENDMDL
MODEL 5
REMARK VINA RESULT:      -7.7     23.008     24.711
REMARK  2 active torsions:
REMARK  status: ('A' for Active; 'I' for Inactive)
REMARK    1  A    between atoms: C14_18  and  O3_3 
REMARK    2  A    between atoms: C10_14  and  C14_18 
ROOT
HETATM    1  O1  UNK     1      13.881   5.057   9.233  1.00  0.00    -0.274 OA
HETATM    2  O2  UNK     1      12.201   3.925   8.179  1.00  0.00    -0.259 OA
HETATM    3  C1  UNK     1      14.284   7.421   8.738  1.00  0.00     0.010 A 
HETATM    4  C2  UNK     1      15.046   8.600   8.981  1.00  0.00    -0.013 A 
HETATM    5  C3  UNK     1      16.110   8.539   9.924  1.00  0.00    -0.025 A 
HETATM    6  C4  UNK     1      14.603   6.252   9.434  1.00  0.00     0.090 A 
HETATM    7  C5  UNK     1      13.164   7.343   7.795  1.00  0.00     0.039 A 
HETATM    8  C6  UNK     1      16.391   7.339  10.596  1.00  0.00     0.015 A 
HETATM    9  C7  UNK     1      15.642   6.195  10.354  1.00  0.00     0.039 A 
HETATM   10  C8  UNK     1      14.823   9.845   8.344  1.00  0.00     0.013 A 
HETATM   11  C9  UNK     1      16.887   9.679  10.192  1.00  0.00     0.012 A 
HETATM   12  C10 UNK     1      12.482   6.205   7.609  1.00  0.00     0.114 A 
HETATM   13  C11 UNK     1      15.604  10.969   8.622  1.00  0.00     0.001 A 
HETATM   14  C12 UNK     1      16.635  10.887   9.546  1.00  0.00     0.001 A 
HETATM   15  C13 UNK     1      12.819   4.970   8.343  1.00  0.00     0.305 A 
ENDROOT
BRANCH  12  16
HETATM   16  C14 UNK     1      11.383   6.256   6.638  1.00  0.00     0.182 C 
HETATM   17  O4  UNK     1      10.209   6.363   6.934  1.00  0.00    -0.646 OA
BRANCH  16  18
HETATM   18  O3  UNK     1      11.882   6.165   5.389  1.00  0.00    -0.772 OA
HETATM   19  H8  UNK     1      12.460   5.380   5.278  1.00  0.00     0.167 HD
ENDBRANCH  16  18
ENDBRANCH  12  16
TORSDOF 2
ENDMDL
MODEL 6
REMARK VINA RESULT:      -7.6      7.282      8.466
REMARK  2 active torsions:
REMARK  status: ('A' for Active; 'I' for Inactive)
REMARK    1  A    between atoms: C14_18  and  O3_3 
REMARK    2  A    between atoms: C10_14  and  C14_18 
ROOT
HETATM    1  O1  UNK     1      18.018   1.362  34.461  1.00  0.00    -0.274 OA
HETATM    2  O2  UNK     1      17.686   0.697  36.620  1.00  0.00    -0.259 OA
HETATM    3  C1  UNK     1      18.994  -0.178  32.826  1.00  0.00     0.010 A 
HETATM    4  C2  UNK     1      19.429  -0.415  31.490  1.00  0.00    -0.013 A 
HETATM    5  C3  UNK     1      19.307   0.636  30.539  1.00  0.00    -0.025 A 
HETATM    6  C4  UNK     1      18.464   1.072  33.154  1.00  0.00     0.090 A 
HETATM    7  C5  UNK     1      19.062  -1.169  33.904  1.00  0.00     0.039 A 
HETATM    8  C6  UNK     1      18.768   1.874  30.919  1.00  0.00     0.015 A 
HETATM    9  C7  UNK     1      18.346   2.097  32.224  1.00  0.00     0.039 A 
HETATM   10  C8  UNK     1      19.981  -1.636  31.031  1.00  0.00     0.013 A 
HETATM   11  C9  UNK     1      19.724   0.443  29.210  1.00  0.00     0.012 A 
HETATM   12  C10 UNK     1      18.638  -0.889  35.142  1.00  0.00     0.114 A 
HETATM   13  C11 UNK     1      20.390  -1.812  29.707  1.00  0.00     0.001 A 
HETATM   14  C12 UNK     1      20.262  -0.773  28.797  1.00  0.00     0.001 A 
HETATM   15  C13 UNK     1      18.077   0.431  35.490  1.00  0.00     0.305 A 
ENDROOT
BRANCH  12  16
HETATM   16  C14 UNK     1      18.759  -1.966  36.133  1.00  0.00     0.182 C 
HETATM   17  O4  UNK     1      19.815  -2.395  36.554  1.00  0.00    -0.646 OA
BRANCH  16  18
HETATM   18  O3  UNK     1      17.530  -2.390  36.488  1.00  0.00    -0.772 OA
HETATM   19  H8  UNK     1      17.309  -2.149  37.413  1.00  0.00     0.167 HD
ENDBRANCH  16  18
ENDBRANCH  12  16
TORSDOF 2
ENDMDL
MODEL 7
REMARK VINA RESULT:      -7.6     17.072     18.834
REMARK  2 active torsions:
REMARK  status: ('A' for Active; 'I' for Inactive)
REMARK    1  A    between atoms: C14_18  and  O3_3 
REMARK    2  A    between atoms: C10_14  and  C14_18 
ROOT
HETATM    1  O1  UNK     1      27.176  -4.866  38.807  1.00  0.00    -0.274 OA
HETATM    2  O2  UNK     1      24.959  -5.399  38.926  1.00  0.00    -0.259 OA
HETATM    3  C1  UNK     1      28.851  -6.612  38.427  1.00  0.00     0.010 A 
HETATM    4  C2  UNK     1      30.221  -6.965  38.260  1.00  0.00    -0.013 A 
HETATM    5  C3  UNK     1      31.200  -5.933  38.315  1.00  0.00    -0.025 A 
HETATM    6  C4  UNK     1      28.516  -5.272  38.636  1.00  0.00     0.090 A 
HETATM    7  C5  UNK     1      27.742  -7.571  38.393  1.00  0.00     0.039 A 
HETATM    8  C6  UNK     1      30.812  -4.602  38.529  1.00  0.00     0.015 A 
HETATM    9  C7  UNK     1      29.474  -4.267  38.690  1.00  0.00     0.039 A 
HETATM   10  C8  UNK     1      30.689  -8.284  38.041  1.00  0.00     0.013 A 
HETATM   11  C9  UNK     1      32.563  -6.239  38.156  1.00  0.00     0.012 A 
HETATM   12  C10 UNK     1      26.472  -7.180  38.556  1.00  0.00     0.114 A 
HETATM   13  C11 UNK     1      32.047  -8.570  37.883  1.00  0.00     0.001 A 
HETATM   14  C12 UNK     1      32.984  -7.549  37.941  1.00  0.00     0.001 A 
HETATM   15  C13 UNK     1      26.118  -5.765  38.776  1.00  0.00     0.305 A 
ENDROOT
BRANCH  12  16
HETATM   16  C14 UNK     1      25.453  -8.236  38.501  1.00  0.00     0.182 C 
HETATM   17  O4  UNK     1      24.591  -8.314  37.649  1.00  0.00    -0.646 OA
BRANCH  16  18
HETATM   18  O3  UNK     1      25.631  -9.086  39.533  1.00  0.00    -0.772 OA
HETATM   19  H8  UNK     1      25.938  -9.969  39.236  1.00  0.00     0.167 HD
ENDBRANCH  16  18
ENDBRANCH  12  16
TORSDOF 2
ENDMDL
MODEL 8
REMARK VINA RESULT:      -7.6      5.235      6.713
REMARK  2 active torsions:
REMARK  status: ('A' for Active; 'I' for Inactive)
REMARK    1  A    between atoms: C14_18  and  O3_3 
REMARK    2  A    between atoms: C10_14  and  C14_18 
ROOT
HETATM    1  O1  UNK     1      17.927   2.875  33.011  1.00  0.00    -0.274 OA
HETATM    2  O2  UNK     1      17.522   5.112  32.798  1.00  0.00    -0.259 OA
HETATM    3  C1  UNK     1      19.053   1.643  31.219  1.00  0.00     0.010 A 
HETATM    4  C2  UNK     1      19.565   0.406  30.731  1.00  0.00    -0.013 A 
HETATM    5  C3  UNK     1      19.438  -0.751  31.549  1.00  0.00    -0.025 A 
HETATM    6  C4  UNK     1      18.449   1.678  32.478  1.00  0.00     0.090 A 
HETATM    7  C5  UNK     1      19.116   2.910  30.483  1.00  0.00     0.039 A 
HETATM    8  C6  UNK     1      18.822  -0.664  32.807  1.00  0.00     0.015 A 
HETATM    9  C7  UNK     1      18.327   0.546  33.275  1.00  0.00     0.039 A 
HETATM   10  C8  UNK     1      20.198   0.240  29.475  1.00  0.00     0.013 A 
HETATM   11  C9  UNK     1      19.929  -1.991  31.105  1.00  0.00     0.012 A 
HETATM   12  C10 UNK     1      18.618   4.043  30.993  1.00  0.00     0.114 A 
HETATM   13  C11 UNK     1      20.682  -1.000  29.049  1.00  0.00     0.001 A 
HETATM   14  C12 UNK     1      20.547  -2.114  29.863  1.00  0.00     0.001 A 
HETATM   15  C13 UNK     1      17.981   4.080  32.323  1.00  0.00     0.305 A 
ENDROOT
BRANCH  12  16
HETATM   16  C14 UNK     1      18.743   5.244  30.158  1.00  0.00     0.182 C 
HETATM   17  O4  UNK     1      18.939   6.363  30.589  1.00  0.00    -0.646 OA
BRANCH  16  18
HETATM   18  O3  UNK     1      18.606   4.905  28.860  1.00  0.00    -0.772 OA
HETATM   19  H8  UNK     1      18.786   3.953  28.705  1.00  0.00     0.167 HD
ENDBRANCH  16  18
ENDBRANCH  12  16
TORSDOF 2
ENDMDL
MODEL 9
REMARK VINA RESULT:      -7.5      5.161      6.545
REMARK  2 active torsions:
REMARK  status: ('A' for Active; 'I' for Inactive)
REMARK    1  A    between atoms: C14_18  and  O3_3 
REMARK    2  A    between atoms: C10_14  and  C14_18 
ROOT
HETATM    1  O1  UNK     1      18.558   0.366  32.908  1.00  0.00    -0.274 OA
HETATM    2  O2  UNK     1      18.240  -0.726  34.887  1.00  0.00    -0.259 OA
HETATM    3  C1  UNK     1      18.418   2.809  32.803  1.00  0.00     0.010 A 
HETATM    4  C2  UNK     1      18.495   3.998  32.022  1.00  0.00    -0.013 A 
HETATM    5  C3  UNK     1      18.776   3.880  30.632  1.00  0.00    -0.025 A 
HETATM    6  C4  UNK     1      18.622   1.575  32.182  1.00  0.00     0.090 A 
HETATM    7  C5  UNK     1      18.136   2.785  34.242  1.00  0.00     0.039 A 
HETATM    8  C6  UNK     1      18.972   2.616  30.055  1.00  0.00     0.015 A 
HETATM    9  C7  UNK     1      18.896   1.463  30.825  1.00  0.00     0.039 A 
HETATM   10  C8  UNK     1      18.309   5.306  32.531  1.00  0.00     0.013 A 
HETATM   11  C9  UNK     1      18.860   5.028  29.825  1.00  0.00     0.012 A 
HETATM   12  C10 UNK     1      18.076   1.635  34.925  1.00  0.00     0.114 A 
HETATM   13  C11 UNK     1      18.397   6.437  31.716  1.00  0.00     0.001 A 
HETATM   14  C12 UNK     1      18.672   6.299  30.364  1.00  0.00     0.001 A 
HETATM   15  C13 UNK     1      18.293   0.331  34.270  1.00  0.00     0.305 A 
ENDROOT
BRANCH  12  16
HETATM   16  C14 UNK     1      17.787   1.744  36.361  1.00  0.00     0.182 C 
HETATM   17  O4  UNK     1      16.748   1.387  36.880  1.00  0.00    -0.646 OA
BRANCH  16  18
HETATM   18  O3  UNK     1      18.844   2.294  36.992  1.00  0.00    -0.772 OA
HETATM   19  H8  UNK     1      19.586   2.479  36.377  1.00  0.00     0.167 HD
ENDBRANCH  16  18
ENDBRANCH  12  16
TORSDOF 2
ENDMDL
MODEL 10
REMARK VINA RESULT:      -7.5      8.171      9.367
REMARK  2 active torsions:
REMARK  status: ('A' for Active; 'I' for Inactive)
REMARK    1  A    between atoms: C14_18  and  O3_3 
REMARK    2  A    between atoms: C10_14  and  C14_18 
ROOT
HETATM    1  O1  UNK     1      18.783   1.081  31.895  1.00  0.00    -0.274 OA
HETATM    2  O2  UNK     1      19.538   0.425  29.842  1.00  0.00    -0.259 OA
HETATM    3  C1  UNK     1      18.830  -0.473  33.787  1.00  0.00     0.010 A 
HETATM    4  C2  UNK     1      18.560  -0.718  35.165  1.00  0.00    -0.013 A 
HETATM    5  C3  UNK     1      17.997   0.331  35.944  1.00  0.00    -0.025 A 
HETATM    6  C4  UNK     1      18.535   0.783  33.252  1.00  0.00     0.090 A 
HETATM    7  C5  UNK     1      19.407  -1.462  32.872  1.00  0.00     0.039 A 
HETATM    8  C6  UNK     1      17.719   1.576  35.358  1.00  0.00     0.015 A 
HETATM    9  C7  UNK     1      17.985   1.806  34.014  1.00  0.00     0.039 A 
HETATM   10  C8  UNK     1      18.814  -1.944  35.826  1.00  0.00     0.013 A 
HETATM   11  C9  UNK     1      17.715   0.131  37.306  1.00  0.00     0.012 A 
HETATM   12  C10 UNK     1      19.639  -1.174  31.585  1.00  0.00     0.114 A 
HETATM   13  C11 UNK     1      18.529  -2.127  37.182  1.00  0.00     0.001 A 
HETATM   14  C12 UNK     1      17.980  -1.090  37.921  1.00  0.00     0.001 A 
HETATM   15  C13 UNK     1      19.329   0.153  31.019  1.00  0.00     0.305 A 
ENDROOT
BRANCH  12  16
HETATM   16  C14 UNK     1      20.220  -2.249  30.771  1.00  0.00     0.182 C 
HETATM   17  O4  UNK     1      21.008  -3.076  31.187  1.00  0.00    -0.646 OA
BRANCH  16  18
HETATM   18  O3  UNK     1      19.744  -2.167  29.512  1.00  0.00    -0.772 OA
HETATM   19  H8  UNK     1      19.744  -3.037  29.059  1.00  0.00     0.167 HD
ENDBRANCH  16  18
ENDBRANCH  12  16
TORSDOF 2
ENDMDL
