MODEL 1
REMARK VINA RESULT:      -8.2      0.000      0.000
REMARK  3 active torsions:
REMARK  status: ('A' for Active; 'I' for Inactive)
REMARK    1  A    between atoms: C1_4  and  C3_6 
REMARK    2  A    between atoms: C2_5  and  C4_7 
REMARK    3  A    between atoms: C3_6  and  C5_8 
ROOT
HETATM    1  O1  UNK     1      17.937   2.538  28.223  1.00  0.00    -0.288 OA
HETATM    2  C3  UNK     1      18.414   2.290  29.330  1.00  0.00     0.182 C 
ENDROOT
BRANCH   2   3
HETATM    3  C1  UNK     1      19.045   1.001  29.641  1.00  0.00     0.014 A 
HETATM    4  C6  UNK     1      19.256   0.645  30.966  1.00  0.00     0.017 A 
HETATM    5  C10 UNK     1      19.858  -0.578  31.259  1.00  0.00     0.020 A 
HETATM    6  C14 UNK     1      20.242  -1.434  30.226  1.00  0.00     0.011 A 
HETATM    7 Br1  UNK     1      21.057  -3.092  30.626  1.00  0.00    -0.051 Br
HETATM    8  C11 UNK     1      20.024  -1.066  28.899  1.00  0.00     0.020 A 
HETATM    9  C7  UNK     1      19.423   0.158  28.605  1.00  0.00     0.017 A 
ENDBRANCH   2   3
BRANCH   2  10
HETATM   10  C5  UNK     1      18.391   3.345  30.396  1.00  0.00     0.056 C 
HETATM   11  C4  UNK     1      19.183   4.409  30.280  1.00  0.00     0.015 C 
BRANCH  11  12
HETATM   12  C2  UNK     1      19.238   5.460  31.283  1.00  0.00    -0.036 A 
HETATM   13  C8  UNK     1      20.444   5.759  31.915  1.00  0.00     0.012 A 
HETATM   14  C12 UNK     1      20.496   6.768  32.878  1.00  0.00     0.020 A 
HETATM   15  C15 UNK     1      19.341   7.477  33.208  1.00  0.00     0.011 A 
HETATM   16 Br2  UNK     1      19.412   8.844  34.511  1.00  0.00    -0.051 Br
HETATM   17  C13 UNK     1      18.135   7.179  32.575  1.00  0.00     0.020 A 
HETATM   18  C9  UNK     1      18.083   6.169  31.613  1.00  0.00     0.012 A 
ENDBRANCH  11  12
ENDBRANCH   2  10
TORSDOF 3
ENDMDL
MODEL 2
REMARK VINA RESULT:      -7.1      3.746      4.506
REMARK  3 active torsions:
REMARK  status: ('A' for Active; 'I' for Inactive)
REMARK    1  A    between atoms: C1_4  and  C3_6 
REMARK    2  A    between atoms: C2_5  and  C4_7 
REMARK    3  A    between atoms: C3_6  and  C5_8 
ROOT
HETATM    1  O1  UNK     1      17.932   2.400  32.093  1.00  0.00    -0.288 OA
HETATM    2  C3  UNK     1      18.104   2.687  33.278  1.00  0.00     0.182 C 
ENDROOT
BRANCH   2   3
HETATM    3  C1  UNK     1      18.142   1.667  34.334  1.00  0.00     0.014 A 
HETATM    4  C6  UNK     1      18.163   2.061  35.664  1.00  0.00     0.017 A 
HETATM    5  C10 UNK     1      18.201   1.092  36.666  1.00  0.00     0.020 A 
HETATM    6  C14 UNK     1      18.216  -0.262  36.328  1.00  0.00     0.011 A 
HETATM    7 Br1  UNK     1      18.268  -1.575  37.687  1.00  0.00    -0.051 Br
HETATM    8  C11 UNK     1      18.194  -0.646  34.987  1.00  0.00     0.020 A 
HETATM    9  C7  UNK     1      18.157   0.324  33.985  1.00  0.00     0.017 A 
ENDBRANCH   2   3
BRANCH   2  10
HETATM   10  C5  UNK     1      18.323   4.119  33.666  1.00  0.00     0.056 C 
HETATM   11  C4  UNK     1      17.857   5.088  32.880  1.00  0.00     0.015 C 
BRANCH  11  12
HETATM   12  C2  UNK     1      18.051   6.499  33.174  1.00  0.00    -0.036 A 
HETATM   13  C8  UNK     1      17.049   7.419  32.872  1.00  0.00     0.012 A 
HETATM   14  C12 UNK     1      17.235   8.773  33.155  1.00  0.00     0.020 A 
HETATM   15  C15 UNK     1      18.426   9.205  33.739  1.00  0.00     0.011 A 
HETATM   16 Br2  UNK     1      18.679  11.038  34.122  1.00  0.00    -0.051 Br
HETATM   17  C13 UNK     1      19.429   8.284  34.041  1.00  0.00     0.020 A 
HETATM   18  C9  UNK     1      19.242   6.931  33.758  1.00  0.00     0.012 A 
ENDBRANCH  11  12
ENDBRANCH   2  10
TORSDOF 3
ENDMDL
MODEL 3
REMARK VINA RESULT:      -7.0      3.800      8.870
REMARK  3 active torsions:
REMARK  status: ('A' for Active; 'I' for Inactive)
REMARK    1  A    between atoms: C1_4  and  C3_6 
REMARK    2  A    between atoms: C2_5  and  C4_7 
REMARK    3  A    between atoms: C3_6  and  C5_8 
ROOT
HETATM    1  O1  UNK     1      20.380   9.088  34.564  1.00  0.00    -0.288 OA
HETATM    2  C3  UNK     1      19.340   8.569  34.157  1.00  0.00     0.182 C 
ENDROOT
BRANCH   2   3
HETATM    3  C1  UNK     1      18.033   9.225  34.292  1.00  0.00     0.014 A 
HETATM    4  C6  UNK     1      16.937   8.485  34.715  1.00  0.00     0.017 A 
HETATM    5  C10 UNK     1      15.696   9.108  34.840  1.00  0.00     0.020 A 
HETATM    6  C14 UNK     1      15.562  10.465  34.542  1.00  0.00     0.011 A 
HETATM    7 Br1  UNK     1      13.879  11.308  34.712  1.00  0.00    -0.051 Br
HETATM    8  C11 UNK     1      16.670  11.198  34.118  1.00  0.00     0.020 A 
HETATM    9  C7  UNK     1      17.911  10.575  33.992  1.00  0.00     0.017 A 
ENDBRANCH   2   3
BRANCH   2  10
HETATM   10  C5  UNK     1      19.400   7.241  33.464  1.00  0.00     0.056 C 
HETATM   11  C4  UNK     1      18.683   7.047  32.360  1.00  0.00     0.015 C 
BRANCH  11  12
HETATM   12  C2  UNK     1      18.668   5.780  31.646  1.00  0.00    -0.036 A 
HETATM   13  C8  UNK     1      19.110   5.718  30.326  1.00  0.00     0.012 A 
HETATM   14  C12 UNK     1      19.096   4.502  29.641  1.00  0.00     0.020 A 
HETATM   15  C15 UNK     1      18.637   3.349  30.278  1.00  0.00     0.011 A 
HETATM   16 Br2  UNK     1      18.617   1.702  29.352  1.00  0.00    -0.051 Br
HETATM   17  C13 UNK     1      18.195   3.411  31.599  1.00  0.00     0.020 A 
HETATM   18  C9  UNK     1      18.209   4.627  32.283  1.00  0.00     0.012 A 
ENDBRANCH  11  12
ENDBRANCH   2  10
TORSDOF 3
ENDMDL
MODEL 4
REMARK VINA RESULT:      -6.9      6.757     10.427
REMARK  3 active torsions:
REMARK  status: ('A' for Active; 'I' for Inactive)
REMARK    1  A    between atoms: C1_4  and  C3_6 
REMARK    2  A    between atoms: C2_5  and  C4_7 
REMARK    3  A    between atoms: C3_6  and  C5_8 
ROOT
HETATM    1  O1  UNK     1      18.411  -1.187  36.227  1.00  0.00    -0.288 OA
HETATM    2  C3  UNK     1      19.230  -1.913  35.665  1.00  0.00     0.182 C 
ENDROOT
BRANCH   2   3
HETATM    3  C1  UNK     1      19.513  -1.809  34.227  1.00  0.00     0.014 A 
HETATM    4  C6  UNK     1      20.553  -2.547  33.680  1.00  0.00     0.017 A 
HETATM    5  C10 UNK     1      20.822  -2.446  32.316  1.00  0.00     0.020 A 
HETATM    6  C14 UNK     1      20.047  -1.610  31.511  1.00  0.00     0.011 A 
HETATM    7 Br1  UNK     1      20.412  -1.475  29.661  1.00  0.00    -0.051 Br
HETATM    8  C11 UNK     1      19.004  -0.874  32.072  1.00  0.00     0.020 A 
HETATM    9  C7  UNK     1      18.736  -0.974  33.437  1.00  0.00     0.017 A 
ENDBRANCH   2   3
BRANCH   2  10
HETATM   10  C5  UNK     1      20.003  -2.915  36.470  1.00  0.00     0.056 C 
HETATM   11  C4  UNK     1      19.500  -4.135  36.650  1.00  0.00     0.015 C 
BRANCH  11  12
HETATM   12  C2  UNK     1      20.176  -5.153  37.440  1.00  0.00    -0.036 A 
HETATM   13  C8  UNK     1      21.508  -4.979  37.810  1.00  0.00     0.012 A 
HETATM   14  C12 UNK     1      22.156  -5.956  38.568  1.00  0.00     0.020 A 
HETATM   15  C15 UNK     1      21.469  -7.107  38.953  1.00  0.00     0.011 A 
HETATM   16 Br2  UNK     1      22.345  -8.431  39.978  1.00  0.00    -0.051 Br
HETATM   17  C13 UNK     1      20.136  -7.282  38.582  1.00  0.00     0.020 A 
HETATM   18  C9  UNK     1      19.489  -6.305  37.824  1.00  0.00     0.012 A 
ENDBRANCH  11  12
ENDBRANCH   2  10
TORSDOF 3
ENDMDL
MODEL 5
REMARK VINA RESULT:      -6.9      4.035      5.956
REMARK  3 active torsions:
REMARK  status: ('A' for Active; 'I' for Inactive)
REMARK    1  A    between atoms: C1_4  and  C3_6 
REMARK    2  A    between atoms: C2_5  and  C4_7 
REMARK    3  A    between atoms: C3_6  and  C5_8 
ROOT
HETATM    1  O1  UNK     1      20.474   7.369  33.425  1.00  0.00    -0.288 OA
HETATM    2  C3  UNK     1      19.337   7.012  33.118  1.00  0.00     0.182 C 
ENDROOT
BRANCH   2   3
HETATM    3  C1  UNK     1      19.088   5.887  32.207  1.00  0.00     0.014 A 
HETATM    4  C6  UNK     1      18.427   4.760  32.677  1.00  0.00     0.017 A 
HETATM    5  C10 UNK     1      18.193   3.692  31.811  1.00  0.00     0.020 A 
HETATM    6  C14 UNK     1      18.622   3.761  30.485  1.00  0.00     0.011 A 
HETATM    7 Br1  UNK     1      18.304   2.312  29.313  1.00  0.00    -0.051 Br
HETATM    8  C11 UNK     1      19.285   4.898  30.025  1.00  0.00     0.020 A 
HETATM    9  C7  UNK     1      19.520   5.966  30.890  1.00  0.00     0.017 A 
ENDBRANCH   2   3
BRANCH   2  10
HETATM   10  C5  UNK     1      18.155   7.715  33.718  1.00  0.00     0.056 C 
HETATM   11  C4  UNK     1      17.964   9.007  33.461  1.00  0.00     0.015 C 
BRANCH  11  12
HETATM   12  C2  UNK     1      16.858   9.764  34.026  1.00  0.00    -0.036 A 
HETATM   13  C8  UNK     1      16.991  11.134  34.245  1.00  0.00     0.012 A 
HETATM   14  C12 UNK     1      15.929  11.861  34.786  1.00  0.00     0.020 A 
HETATM   15  C15 UNK     1      14.736  11.215  35.109  1.00  0.00     0.011 A 
HETATM   16 Br2  UNK     1      13.298  12.198  35.841  1.00  0.00    -0.051 Br
HETATM   17  C13 UNK     1      14.603   9.844  34.889  1.00  0.00     0.020 A 
HETATM   18  C9  UNK     1      15.665   9.118  34.348  1.00  0.00     0.012 A 
ENDBRANCH  11  12
ENDBRANCH   2  10
TORSDOF 3
ENDMDL
MODEL 6
REMARK VINA RESULT:      -6.9      7.793     11.679
REMARK  3 active torsions:
REMARK  status: ('A' for Active; 'I' for Inactive)
REMARK    1  A    between atoms: C1_4  and  C3_6 
REMARK    2  A    between atoms: C2_5  and  C4_7 
REMARK    3  A    between atoms: C3_6  and  C5_8 
ROOT
HETATM    1  O1  UNK     1      21.480  -2.083  35.464  1.00  0.00    -0.288 OA
HETATM    2  C3  UNK     1      20.482  -2.465  36.074  1.00  0.00     0.182 C 
ENDROOT
BRANCH   2   3
HETATM    3  C1  UNK     1      19.261  -1.653  36.164  1.00  0.00     0.014 A 
HETATM    4  C6  UNK     1      18.653  -1.468  37.398  1.00  0.00     0.017 A 
HETATM    5  C10 UNK     1      17.493  -0.699  37.482  1.00  0.00     0.020 A 
HETATM    6  C14 UNK     1      16.952  -0.123  36.332  1.00  0.00     0.011 A 
HETATM    7 Br1  UNK     1      15.379   0.920  36.448  1.00  0.00    -0.051 Br
HETATM    8  C11 UNK     1      17.571  -0.316  35.098  1.00  0.00     0.020 A 
HETATM    9  C7  UNK     1      18.732  -1.086  35.014  1.00  0.00     0.017 A 
ENDBRANCH   2   3
BRANCH   2  10
HETATM   10  C5  UNK     1      20.484  -3.819  36.719  1.00  0.00     0.056 C 
HETATM   11  C4  UNK     1      19.715  -4.783  36.216  1.00  0.00     0.015 C 
BRANCH  11  12
HETATM   12  C2  UNK     1      19.642  -6.113  36.800  1.00  0.00    -0.036 A 
HETATM   13  C8  UNK     1      19.999  -6.310  38.133  1.00  0.00     0.012 A 
HETATM   14  C12 UNK     1      19.928  -7.586  38.693  1.00  0.00     0.020 A 
HETATM   15  C15 UNK     1      19.501  -8.665  37.918  1.00  0.00     0.011 A 
HETATM   16 Br2  UNK     1      19.405 -10.393  38.676  1.00  0.00    -0.051 Br
HETATM   17  C13 UNK     1      19.144  -8.467  36.585  1.00  0.00     0.020 A 
HETATM   18  C9  UNK     1      19.215  -7.191  36.025  1.00  0.00     0.012 A 
ENDBRANCH  11  12
ENDBRANCH   2  10
TORSDOF 3
ENDMDL
MODEL 7
REMARK VINA RESULT:      -6.9      4.080      6.026
REMARK  3 active torsions:
REMARK  status: ('A' for Active; 'I' for Inactive)
REMARK    1  A    between atoms: C1_4  and  C3_6 
REMARK    2  A    between atoms: C2_5  and  C4_7 
REMARK    3  A    between atoms: C3_6  and  C5_8 
ROOT
HETATM    1  O1  UNK     1      20.227   7.416  33.361  1.00  0.00    -0.288 OA
HETATM    2  C3  UNK     1      19.130   7.093  32.908  1.00  0.00     0.182 C 
ENDROOT
BRANCH   2   3
HETATM    3  C1  UNK     1      18.952   5.913  32.051  1.00  0.00     0.014 A 
HETATM    4  C6  UNK     1      18.355   4.774  32.571  1.00  0.00     0.017 A 
HETATM    5  C10 UNK     1      18.189   3.654  31.757  1.00  0.00     0.020 A 
HETATM    6  C14 UNK     1      18.622   3.684  30.431  1.00  0.00     0.011 A 
HETATM    7 Br1  UNK     1      18.396   2.165  29.329  1.00  0.00    -0.051 Br
HETATM    8  C11 UNK     1      19.221   4.834  29.919  1.00  0.00     0.020 A 
HETATM    9  C7  UNK     1      19.388   5.955  30.734  1.00  0.00     0.017 A 
ENDBRANCH   2   3
BRANCH   2  10
HETATM   10  C5  UNK     1      17.917   7.899  33.266  1.00  0.00     0.056 C 
HETATM   11  C4  UNK     1      18.070   9.090  33.841  1.00  0.00     0.015 C 
BRANCH  11  12
HETATM   12  C2  UNK     1      16.944   9.919  34.241  1.00  0.00    -0.036 A 
HETATM   13  C8  UNK     1      15.755   9.325  34.660  1.00  0.00     0.012 A 
HETATM   14  C12 UNK     1      14.674  10.120  35.045  1.00  0.00     0.020 A 
HETATM   15  C15 UNK     1      14.785  11.511  35.008  1.00  0.00     0.011 A 
HETATM   16 Br2  UNK     1      13.323  12.589  35.529  1.00  0.00    -0.051 Br
HETATM   17  C13 UNK     1      15.975  12.105  34.589  1.00  0.00     0.020 A 
HETATM   18  C9  UNK     1      17.055  11.309  34.205  1.00  0.00     0.012 A 
ENDBRANCH  11  12
ENDBRANCH   2  10
TORSDOF 3
ENDMDL
MODEL 8
REMARK VINA RESULT:      -6.8      3.577      7.618
REMARK  3 active torsions:
REMARK  status: ('A' for Active; 'I' for Inactive)
REMARK    1  A    between atoms: C1_4  and  C3_6 
REMARK    2  A    between atoms: C2_5  and  C4_7 
REMARK    3  A    between atoms: C3_6  and  C5_8 
ROOT
HETATM    1  O1  UNK     1      18.871   4.585  30.413  1.00  0.00    -0.288 OA
HETATM    2  C3  UNK     1      18.428   4.633  31.560  1.00  0.00     0.182 C 
ENDROOT
BRANCH   2   3
HETATM    3  C1  UNK     1      18.007   5.894  32.185  1.00  0.00     0.014 A 
HETATM    4  C6  UNK     1      18.967   6.776  32.661  1.00  0.00     0.017 A 
HETATM    5  C10 UNK     1      18.566   7.972  33.255  1.00  0.00     0.020 A 
HETATM    6  C14 UNK     1      17.208   8.275  33.368  1.00  0.00     0.011 A 
HETATM    7 Br1  UNK     1      16.666   9.896  34.175  1.00  0.00    -0.051 Br
HETATM    8  C11 UNK     1      16.252   7.381  32.886  1.00  0.00     0.020 A 
HETATM    9  C7  UNK     1      16.654   6.184  32.292  1.00  0.00     0.017 A 
ENDBRANCH   2   3
BRANCH   2  10
HETATM   10  C5  UNK     1      18.271   3.365  32.345  1.00  0.00     0.056 C 
HETATM   11  C4  UNK     1      18.387   3.398  33.670  1.00  0.00     0.015 C 
BRANCH  11  12
HETATM   12  C2  UNK     1      18.274   2.207  34.498  1.00  0.00    -0.036 A 
HETATM   13  C8  UNK     1      18.145   0.954  33.903  1.00  0.00     0.012 A 
HETATM   14  C12 UNK     1      18.038  -0.189  34.697  1.00  0.00     0.020 A 
HETATM   15  C15 UNK     1      18.058  -0.075  36.088  1.00  0.00     0.011 A 
HETATM   16 Br2  UNK     1      17.912  -1.621  37.164  1.00  0.00    -0.051 Br
HETATM   17  C13 UNK     1      18.187   1.180  36.683  1.00  0.00     0.020 A 
HETATM   18  C9  UNK     1      18.294   2.321  35.889  1.00  0.00     0.012 A 
ENDBRANCH  11  12
ENDBRANCH   2  10
TORSDOF 3
ENDMDL
MODEL 9
REMARK VINA RESULT:      -6.7      3.981      8.135
REMARK  3 active torsions:
REMARK  status: ('A' for Active; 'I' for Inactive)
REMARK    1  A    between atoms: C1_4  and  C3_6 
REMARK    2  A    between atoms: C2_5  and  C4_7 
REMARK    3  A    between atoms: C3_6  and  C5_8 
ROOT
HETATM    1  O1  UNK     1      18.936   5.081  31.574  1.00  0.00    -0.288 OA
HETATM    2  C3  UNK     1      18.237   5.246  32.573  1.00  0.00     0.182 C 
ENDROOT
BRANCH   2   3
HETATM    3  C1  UNK     1      17.342   6.402  32.722  1.00  0.00     0.014 A 
HETATM    4  C6  UNK     1      16.964   7.122  31.597  1.00  0.00     0.017 A 
HETATM    5  C10 UNK     1      16.117   8.221  31.740  1.00  0.00     0.020 A 
HETATM    6  C14 UNK     1      15.655   8.587  33.005  1.00  0.00     0.011 A 
HETATM    7 Br1  UNK     1      14.507  10.076  33.197  1.00  0.00    -0.051 Br
HETATM    8  C11 UNK     1      16.042   7.855  34.127  1.00  0.00     0.020 A 
HETATM    9  C7  UNK     1      16.891   6.757  33.985  1.00  0.00     0.017 A 
ENDBRANCH   2   3
BRANCH   2  10
HETATM   10  C5  UNK     1      18.259   4.219  33.666  1.00  0.00     0.056 C 
HETATM   11  C4  UNK     1      18.207   2.927  33.351  1.00  0.00     0.015 C 
BRANCH  11  12
HETATM   12  C2  UNK     1      18.197   1.874  34.354  1.00  0.00    -0.036 A 
HETATM   13  C8  UNK     1      18.228   2.201  35.708  1.00  0.00     0.012 A 
HETATM   14  C12 UNK     1      18.218   1.190  36.671  1.00  0.00     0.020 A 
HETATM   15  C15 UNK     1      18.179  -0.147  36.276  1.00  0.00     0.011 A 
HETATM   16 Br2  UNK     1      18.166  -1.516  37.579  1.00  0.00    -0.051 Br
HETATM   17  C13 UNK     1      18.148  -0.474  34.921  1.00  0.00     0.020 A 
HETATM   18  C9  UNK     1      18.159   0.537  33.959  1.00  0.00     0.012 A 
ENDBRANCH  11  12
ENDBRANCH   2  10
TORSDOF 3
ENDMDL
MODEL 10
REMARK VINA RESULT:      -6.7      6.728      9.416
REMARK  3 active torsions:
REMARK  status: ('A' for Active; 'I' for Inactive)
REMARK    1  A    between atoms: C1_4  and  C3_6 
REMARK    2  A    between atoms: C2_5  and  C4_7 
REMARK    3  A    between atoms: C3_6  and  C5_8 
ROOT
HETATM    1  O1  UNK     1      20.034  -3.053  37.645  1.00  0.00    -0.288 OA
HETATM    2  C3  UNK     1      20.019  -3.943  36.795  1.00  0.00     0.182 C 
ENDROOT
BRANCH   2   3
HETATM    3  C1  UNK     1      19.830  -5.358  37.146  1.00  0.00     0.014 A 
HETATM    4  C6  UNK     1      20.215  -5.808  38.401  1.00  0.00     0.017 A 
HETATM    5  C10 UNK     1      20.037  -7.151  38.732  1.00  0.00     0.020 A 
HETATM    6  C14 UNK     1      19.476  -8.030  37.805  1.00  0.00     0.011 A 
HETATM    7 Br1  UNK     1      19.236  -9.851  38.255  1.00  0.00    -0.051 Br
HETATM    8  C11 UNK     1      19.093  -7.566  36.547  1.00  0.00     0.020 A 
HETATM    9  C7  UNK     1      19.272  -6.223  36.216  1.00  0.00     0.017 A 
ENDBRANCH   2   3
BRANCH   2  10
HETATM   10  C5  UNK     1      20.158  -3.584  35.346  1.00  0.00     0.056 C 
HETATM   11  C4  UNK     1      19.802  -2.367  34.938  1.00  0.00     0.015 C 
BRANCH  11  12
HETATM   12  C2  UNK     1      19.882  -1.952  33.546  1.00  0.00    -0.036 A 
HETATM   13  C8  UNK     1      20.796  -2.561  32.688  1.00  0.00     0.012 A 
HETATM   14  C12 UNK     1      20.872  -2.163  31.352  1.00  0.00     0.020 A 
HETATM   15  C15 UNK     1      20.034  -1.153  30.878  1.00  0.00     0.011 A 
HETATM   16 Br2  UNK     1      20.136  -0.613  29.070  1.00  0.00    -0.051 Br
HETATM   17  C13 UNK     1      19.120  -0.544  31.737  1.00  0.00     0.020 A 
HETATM   18  C9  UNK     1      19.044  -0.942  33.072  1.00  0.00     0.012 A 
ENDBRANCH  11  12
ENDBRANCH   2  10
TORSDOF 3
ENDMDL
