MODEL 1
REMARK VINA RESULT:      -9.2      0.000      0.000
REMARK  6 active torsions:
REMARK  status: ('A' for Active; 'I' for Inactive)
REMARK    1  A    between atoms: C10_17  and  O1_2 
REMARK    2  A    between atoms: C12_19  and  O1_2 
REMARK       I    between atoms: C11_18  and  N1_7 
REMARK    3  A    between atoms: C9_16  and  N1_7 
REMARK    4  A    between atoms: C10_17  and  C8_15 
REMARK    5  A    between atoms: C11_18  and  C13_20 
REMARK    6  A    between atoms: C12_19  and  C14_21 
ROOT
HETATM    1  S1  UNK     1      18.183  -1.705  37.139  1.00  0.00    -0.075 SA
HETATM    2  C1  UNK     1      18.107   2.252  35.999  1.00  0.00    -0.014 C 
HETATM    3  C2  UNK     1      18.049   1.962  34.483  1.00  0.00     0.009 C 
HETATM    4  C3  UNK     1      17.644   1.026  36.818  1.00  0.00     0.051 C 
HETATM    5  C4  UNK     1      18.914   0.763  34.060  1.00  0.00     0.041 C 
HETATM    6  C5  UNK     1      18.766  -0.389  35.005  1.00  0.00    -0.026 A 
HETATM    7  C6  UNK     1      18.209  -0.246  36.262  1.00  0.00    -0.008 A 
HETATM    8  C7  UNK     1      19.500   2.722  36.433  1.00  0.00     0.010 C 
HETATM    9  C8  UNK     1      19.184  -1.734  34.772  1.00  0.00     0.080 A 
HETATM   10  C9  UNK     1      18.925  -2.553  35.850  1.00  0.00     0.094 A 
ENDROOT
BRANCH  10  11
HETATM   11  N1  UNK     1      19.157  -3.888  36.048  1.00  0.00    -0.316 N 
HETATM   12  C11 UNK     1      20.277  -4.461  36.663  1.00  0.00     0.262 C 
HETATM   13  O3  UNK     1      21.256  -3.899  37.138  1.00  0.00    -0.267 OA
HETATM   14  H11 UNK     1      18.415  -4.500  35.717  1.00  0.00     0.169 HD
BRANCH  12  15
HETATM   15  C13 UNK     1      20.203  -5.937  36.709  1.00  0.00     0.108 A 
HETATM   16  C15 UNK     1      20.051  -6.484  37.920  1.00  0.00     0.037 A 
HETATM   17  C16 UNK     1      19.968  -7.929  38.068  1.00  0.00    -0.001 A 
HETATM   18  C18 UNK     1      20.049  -8.726  36.932  1.00  0.00     0.089 A 
HETATM   19  C20 UNK     1      19.808  -8.542  39.312  1.00  0.00     0.014 A 
HETATM   20  O4  UNK     1      20.210  -8.146  35.659  1.00  0.00    -0.274 OA
HETATM   21  C21 UNK     1      19.977 -10.116  37.004  1.00  0.00     0.038 A 
HETATM   22  C17 UNK     1      20.292  -6.767  35.485  1.00  0.00     0.304 A 
HETATM   23  O5  UNK     1      20.433  -6.269  34.374  1.00  0.00    -0.259 OA
HETATM   24  C23 UNK     1      19.818 -10.720  38.250  1.00  0.00     0.003 A 
HETATM   25  C22 UNK     1      19.734  -9.935  39.401  1.00  0.00     0.001 A 
ENDBRANCH  12  15
ENDBRANCH  10  11
BRANCH   9  26
HETATM   26  C10 UNK     1      19.802  -2.220  33.564  1.00  0.00     0.296 C 
HETATM   27  O2  UNK     1      20.773  -2.989  33.546  1.00  0.00    -0.259 OA
BRANCH  26  28
HETATM   28  O1  UNK     1      19.214  -1.751  32.408  1.00  0.00    -0.317 OA
BRANCH  28  29
HETATM   29  C12 UNK     1      19.971  -1.883  31.199  1.00  0.00     0.178 C 
BRANCH  29  30
HETATM   30  C14 UNK     1      20.491  -0.512  30.793  1.00  0.00     0.022 C 
HETATM   31  C19 UNK     1      20.508  -0.338  29.285  1.00  0.00     0.007 C 
ENDBRANCH  29  30
ENDBRANCH  28  29
ENDBRANCH  26  28
ENDBRANCH   9  26
TORSDOF 6
ENDMDL
MODEL 2
REMARK VINA RESULT:      -9.0     16.904     21.653
REMARK  6 active torsions:
REMARK  status: ('A' for Active; 'I' for Inactive)
REMARK    1  A    between atoms: C10_17  and  O1_2 
REMARK    2  A    between atoms: C12_19  and  O1_2 
REMARK       I    between atoms: C11_18  and  N1_7 
REMARK    3  A    between atoms: C9_16  and  N1_7 
REMARK    4  A    between atoms: C10_17  and  C8_15 
REMARK    5  A    between atoms: C11_18  and  C13_20 
REMARK    6  A    between atoms: C12_19  and  C14_21 
ROOT
HETATM    1  S1  UNK     1      19.216  -1.707  12.154  1.00  0.00    -0.075 SA
HETATM    2  C1  UNK     1      19.988  -4.686   9.416  1.00  0.00    -0.014 C 
HETATM    3  C2  UNK     1      19.884  -5.844  10.433  1.00  0.00     0.009 C 
HETATM    4  C3  UNK     1      19.270  -3.421   9.938  1.00  0.00     0.051 C 
HETATM    5  C4  UNK     1      20.479  -5.500  11.808  1.00  0.00     0.041 C 
HETATM    6  C5  UNK     1      20.083  -4.129  12.258  1.00  0.00    -0.026 A 
HETATM    7  C6  UNK     1      19.558  -3.191  11.391  1.00  0.00    -0.008 A 
HETATM    8  C7  UNK     1      21.445  -4.389   9.044  1.00  0.00     0.010 C 
HETATM    9  C8  UNK     1      20.210  -3.602  13.579  1.00  0.00     0.080 A 
HETATM   10  C9  UNK     1      19.774  -2.296  13.662  1.00  0.00     0.094 A 
ENDROOT
BRANCH  10  11
HETATM   11  N1  UNK     1      19.717  -1.427  14.718  1.00  0.00    -0.316 N 
HETATM   12  C11 UNK     1      18.786  -1.443  15.765  1.00  0.00     0.262 C 
HETATM   13  O3  UNK     1      17.856  -2.217  15.945  1.00  0.00    -0.267 OA
HETATM   14  H11 UNK     1      20.446  -0.719  14.724  1.00  0.00     0.169 HD
BRANCH  12  15
HETATM   15  C13 UNK     1      19.016  -0.356  16.741  1.00  0.00     0.108 A 
HETATM   16  C15 UNK     1      19.005  -0.707  18.031  1.00  0.00     0.037 A 
HETATM   17  C16 UNK     1      19.221   0.293  19.066  1.00  0.00    -0.001 A 
HETATM   18  C18 UNK     1      19.438   1.614  18.689  1.00  0.00     0.089 A 
HETATM   19  C20 UNK     1      19.220  -0.030  20.425  1.00  0.00     0.014 A 
HETATM   20  O4  UNK     1      19.448   1.979  17.329  1.00  0.00    -0.274 OA
HETATM   21  C21 UNK     1      19.652   2.620  19.630  1.00  0.00     0.038 A 
HETATM   22  C17 UNK     1      19.245   1.045  16.316  1.00  0.00     0.304 A 
HETATM   23  O5  UNK     1      19.254   1.371  15.134  1.00  0.00    -0.259 OA
HETATM   24  C23 UNK     1      19.647   2.289  20.984  1.00  0.00     0.003 A 
HETATM   25  C22 UNK     1      19.432   0.968  21.380  1.00  0.00     0.001 A 
ENDBRANCH  12  15
ENDBRANCH  10  11
BRANCH   9  26
HETATM   26  C10 UNK     1      20.722  -4.319  14.720  1.00  0.00     0.296 C 
HETATM   27  O2  UNK     1      20.139  -5.272  15.255  1.00  0.00    -0.259 OA
BRANCH  26  28
HETATM   28  O1  UNK     1      21.935  -3.850  15.176  1.00  0.00    -0.317 OA
BRANCH  28  29
HETATM   29  C12 UNK     1      22.109  -3.782  16.596  1.00  0.00     0.178 C 
BRANCH  29  30
HETATM   30  C14 UNK     1      23.303  -4.641  16.986  1.00  0.00     0.022 C 
HETATM   31  C19 UNK     1      24.619  -3.984  16.609  1.00  0.00     0.007 C 
ENDBRANCH  29  30
ENDBRANCH  28  29
ENDBRANCH  26  28
ENDBRANCH   9  26
TORSDOF 6
ENDMDL
MODEL 3
REMARK VINA RESULT:      -8.8      1.779      2.328
REMARK  6 active torsions:
REMARK  status: ('A' for Active; 'I' for Inactive)
REMARK    1  A    between atoms: C10_17  and  O1_2 
REMARK    2  A    between atoms: C12_19  and  O1_2 
REMARK       I    between atoms: C11_18  and  N1_7 
REMARK    3  A    between atoms: C9_16  and  N1_7 
REMARK    4  A    between atoms: C10_17  and  C8_15 
REMARK    5  A    between atoms: C11_18  and  C13_20 
REMARK    6  A    between atoms: C12_19  and  C14_21 
ROOT
HETATM    1  S1  UNK     1      18.289  -2.581  37.198  1.00  0.00    -0.075 SA
HETATM    2  C1  UNK     1      16.899   1.158  36.170  1.00  0.00    -0.014 C 
HETATM    3  C2  UNK     1      17.133   0.984  34.653  1.00  0.00     0.009 C 
HETATM    4  C3  UNK     1      16.826  -0.212  36.882  1.00  0.00     0.051 C 
HETATM    5  C4  UNK     1      18.422   0.214  34.321  1.00  0.00     0.041 C 
HETATM    6  C5  UNK     1      18.597  -0.983  35.203  1.00  0.00    -0.026 A 
HETATM    7  C6  UNK     1      17.881  -1.148  36.374  1.00  0.00    -0.008 A 
HETATM    8  C7  UNK     1      17.959   2.064  36.806  1.00  0.00     0.010 C 
HETATM    9  C8  UNK     1      19.505  -2.064  34.993  1.00  0.00     0.080 A 
HETATM   10  C9  UNK     1      19.439  -3.002  36.002  1.00  0.00     0.094 A 
ENDROOT
BRANCH  10  11
HETATM   11  N1  UNK     1      20.120  -4.174  36.192  1.00  0.00    -0.316 N 
HETATM   12  C11 UNK     1      19.563  -5.439  36.414  1.00  0.00     0.262 C 
HETATM   13  O3  UNK     1      18.380  -5.750  36.480  1.00  0.00    -0.267 OA
HETATM   14  H11 UNK     1      21.133  -4.088  36.149  1.00  0.00     0.169 HD
BRANCH  12  15
HETATM   15  C13 UNK     1      20.591  -6.489  36.580  1.00  0.00     0.108 A 
HETATM   16  C15 UNK     1      20.488  -7.551  35.774  1.00  0.00     0.037 A 
HETATM   17  C16 UNK     1      21.454  -8.636  35.863  1.00  0.00    -0.001 A 
HETATM   18  C18 UNK     1      22.480  -8.548  36.797  1.00  0.00     0.089 A 
HETATM   19  C20 UNK     1      21.385  -9.763  35.040  1.00  0.00     0.014 A 
HETATM   20  O4  UNK     1      22.584  -7.427  37.644  1.00  0.00    -0.274 OA
HETATM   21  C21 UNK     1      23.437  -9.552  36.934  1.00  0.00     0.038 A 
HETATM   22  C17 UNK     1      21.676  -6.373  37.582  1.00  0.00     0.304 A 
HETATM   23  O5  UNK     1      21.772  -5.401  38.323  1.00  0.00    -0.259 OA
HETATM   24  C23 UNK     1      23.360 -10.673  36.110  1.00  0.00     0.003 A 
HETATM   25  C22 UNK     1      22.337 -10.778  35.165  1.00  0.00     0.001 A 
ENDBRANCH  12  15
ENDBRANCH  10  11
BRANCH   9  26
HETATM   26  C10 UNK     1      20.398  -2.199  33.870  1.00  0.00     0.296 C 
HETATM   27  O2  UNK     1      21.614  -2.415  33.975  1.00  0.00    -0.259 OA
BRANCH  26  28
HETATM   28  O1  UNK     1      19.779  -2.066  32.645  1.00  0.00    -0.317 OA
BRANCH  28  29
HETATM   29  C12 UNK     1      20.613  -1.718  31.534  1.00  0.00     0.178 C 
BRANCH  29  30
HETATM   30  C14 UNK     1      20.009  -0.515  30.824  1.00  0.00     0.022 C 
HETATM   31  C19 UNK     1      20.223  -0.580  29.322  1.00  0.00     0.007 C 
ENDBRANCH  29  30
ENDBRANCH  28  29
ENDBRANCH  26  28
ENDBRANCH   9  26
TORSDOF 6
ENDMDL
MODEL 4
REMARK VINA RESULT:      -8.4      6.528     11.794
REMARK  6 active torsions:
REMARK  status: ('A' for Active; 'I' for Inactive)
REMARK    1  A    between atoms: C10_17  and  O1_2 
REMARK    2  A    between atoms: C12_19  and  O1_2 
REMARK       I    between atoms: C11_18  and  N1_7 
REMARK    3  A    between atoms: C9_16  and  N1_7 
REMARK    4  A    between atoms: C10_17  and  C8_15 
REMARK    5  A    between atoms: C11_18  and  C13_20 
REMARK    6  A    between atoms: C12_19  and  C14_21 
ROOT
HETATM    1  S1  UNK     1      18.642   2.701  30.158  1.00  0.00    -0.075 SA
HETATM    2  C1  UNK     1      20.119  -1.060  29.353  1.00  0.00    -0.014 C 
HETATM    3  C2  UNK     1      19.343  -1.762  30.489  1.00  0.00     0.009 C 
HETATM    4  C3  UNK     1      19.464   0.292  28.986  1.00  0.00     0.051 C 
HETATM    5  C4  UNK     1      19.252  -0.922  31.773  1.00  0.00     0.041 C 
HETATM    6  C5  UNK     1      18.927   0.509  31.478  1.00  0.00    -0.026 A 
HETATM    7  C6  UNK     1      19.052   1.049  30.212  1.00  0.00    -0.008 A 
HETATM    8  C7  UNK     1      21.602  -0.887  29.703  1.00  0.00     0.010 C 
HETATM    9  C8  UNK     1      18.490   1.489  32.420  1.00  0.00     0.080 A 
HETATM   10  C9  UNK     1      18.297   2.723  31.835  1.00  0.00     0.094 A 
ENDROOT
BRANCH  10  11
HETATM   11  N1  UNK     1      17.886   3.918  32.360  1.00  0.00    -0.316 N 
HETATM   12  C11 UNK     1      18.539   5.152  32.242  1.00  0.00     0.262 C 
HETATM   13  O3  UNK     1      19.585   5.408  31.660  1.00  0.00    -0.267 OA
HETATM   14  H11 UNK     1      17.007   3.878  32.869  1.00  0.00     0.169 HD
BRANCH  12  15
HETATM   15  C13 UNK     1      17.817   6.241  32.935  1.00  0.00     0.108 A 
HETATM   16  C15 UNK     1      16.604   6.543  32.459  1.00  0.00     0.037 A 
HETATM   17  C16 UNK     1      15.816   7.600  33.074  1.00  0.00    -0.001 A 
HETATM   18  C18 UNK     1      16.346   8.288  34.160  1.00  0.00     0.089 A 
HETATM   19  C20 UNK     1      14.545   7.947  32.611  1.00  0.00     0.014 A 
HETATM   20  O4  UNK     1      17.624   7.967  34.657  1.00  0.00    -0.274 OA
HETATM   21  C21 UNK     1      15.644   9.311  34.794  1.00  0.00     0.038 A 
HETATM   22  C17 UNK     1      18.401   6.960  34.090  1.00  0.00     0.304 A 
HETATM   23  O5  UNK     1      19.513   6.687  34.528  1.00  0.00    -0.259 OA
HETATM   24  C23 UNK     1      14.377   9.652  34.325  1.00  0.00     0.003 A 
HETATM   25  C22 UNK     1      13.829   8.972  33.236  1.00  0.00     0.001 A 
ENDBRANCH  12  15
ENDBRANCH  10  11
BRANCH   9  26
HETATM   26  C10 UNK     1      18.259   1.256  33.823  1.00  0.00     0.296 C 
HETATM   27  O2  UNK     1      19.164   1.112  34.657  1.00  0.00    -0.259 OA
BRANCH  26  28
HETATM   28  O1  UNK     1      16.926   1.204  34.170  1.00  0.00    -0.317 OA
BRANCH  28  29
HETATM   29  C12 UNK     1      16.502   0.075  34.942  1.00  0.00     0.178 C 
BRANCH  29  30
HETATM   30  C14 UNK     1      15.770   0.573  36.179  1.00  0.00     0.022 C 
HETATM   31  C19 UNK     1      16.732   1.102  37.230  1.00  0.00     0.007 C 
ENDBRANCH  29  30
ENDBRANCH  28  29
ENDBRANCH  26  28
ENDBRANCH   9  26
TORSDOF 6
ENDMDL
MODEL 5
REMARK VINA RESULT:      -8.3      8.405     10.996
REMARK  6 active torsions:
REMARK  status: ('A' for Active; 'I' for Inactive)
REMARK    1  A    between atoms: C10_17  and  O1_2 
REMARK    2  A    between atoms: C12_19  and  O1_2 
REMARK       I    between atoms: C11_18  and  N1_7 
REMARK    3  A    between atoms: C9_16  and  N1_7 
REMARK    4  A    between atoms: C10_17  and  C8_15 
REMARK    5  A    between atoms: C11_18  and  C13_20 
REMARK    6  A    between atoms: C12_19  and  C14_21 
ROOT
HETATM    1  S1  UNK     1      28.432  -9.024  36.475  1.00  0.00    -0.075 SA
HETATM    2  C1  UNK     1      32.496  -9.022  35.803  1.00  0.00    -0.014 C 
HETATM    3  C2  UNK     1      32.865  -8.411  37.174  1.00  0.00     0.009 C 
HETATM    4  C3  UNK     1      31.087  -9.656  35.839  1.00  0.00     0.051 C 
HETATM    5  C4  UNK     1      31.877  -7.332  37.645  1.00  0.00     0.041 C 
HETATM    6  C5  UNK     1      30.456  -7.742  37.416  1.00  0.00    -0.026 A 
HETATM    7  C6  UNK     1      30.115  -8.784  36.575  1.00  0.00    -0.008 A 
HETATM    8  C7  UNK     1      32.618  -7.993  34.674  1.00  0.00     0.010 C 
HETATM    9  C8  UNK     1      29.297  -7.129  37.981  1.00  0.00     0.080 A 
HETATM   10  C9  UNK     1      28.131  -7.729  37.554  1.00  0.00     0.094 A 
ENDROOT
BRANCH  10  11
HETATM   11  N1  UNK     1      26.820  -7.466  37.845  1.00  0.00    -0.316 N 
HETATM   12  C11 UNK     1      26.045  -8.076  38.840  1.00  0.00     0.262 C 
HETATM   13  O3  UNK     1      26.373  -8.948  39.634  1.00  0.00    -0.267 OA
HETATM   14  H11 UNK     1      26.396  -6.739  37.274  1.00  0.00     0.169 HD
BRANCH  12  15
HETATM   15  C13 UNK     1      24.663  -7.552  38.880  1.00  0.00     0.108 A 
HETATM   16  C15 UNK     1      23.688  -8.461  38.995  1.00  0.00     0.037 A 
HETATM   17  C16 UNK     1      22.296  -8.042  39.043  1.00  0.00    -0.001 A 
HETATM   18  C18 UNK     1      21.999  -6.686  38.966  1.00  0.00     0.089 A 
HETATM   19  C20 UNK     1      21.247  -8.956  39.164  1.00  0.00     0.014 A 
HETATM   20  O4  UNK     1      23.029  -5.732  38.844  1.00  0.00    -0.274 OA
HETATM   21  C21 UNK     1      20.687  -6.218  39.005  1.00  0.00     0.038 A 
HETATM   22  C17 UNK     1      24.370  -6.102  38.796  1.00  0.00     0.304 A 
HETATM   23  O5  UNK     1      25.261  -5.267  38.689  1.00  0.00    -0.259 OA
HETATM   24  C23 UNK     1      19.646  -7.137  39.125  1.00  0.00     0.003 A 
HETATM   25  C22 UNK     1      19.925  -8.503  39.204  1.00  0.00     0.001 A 
ENDBRANCH  12  15
ENDBRANCH  10  11
BRANCH   9  26
HETATM   26  C10 UNK     1      29.302  -6.018  38.898  1.00  0.00     0.296 C 
HETATM   27  O2  UNK     1      28.483  -5.876  39.817  1.00  0.00    -0.259 OA
BRANCH  26  28
HETATM   28  O1  UNK     1      30.311  -5.107  38.667  1.00  0.00    -0.317 OA
BRANCH  28  29
HETATM   29  C12 UNK     1      30.089  -4.147  37.627  1.00  0.00     0.178 C 
BRANCH  29  30
HETATM   30  C14 UNK     1      31.435  -3.672  37.102  1.00  0.00     0.022 C 
HETATM   31  C19 UNK     1      31.840  -4.409  35.837  1.00  0.00     0.007 C 
ENDBRANCH  29  30
ENDBRANCH  28  29
ENDBRANCH  26  28
ENDBRANCH   9  26
TORSDOF 6
ENDMDL
MODEL 6
REMARK VINA RESULT:      -8.1      6.311      9.567
REMARK  6 active torsions:
REMARK  status: ('A' for Active; 'I' for Inactive)
REMARK    1  A    between atoms: C10_17  and  O1_2 
REMARK    2  A    between atoms: C12_19  and  O1_2 
REMARK       I    between atoms: C11_18  and  N1_7 
REMARK    3  A    between atoms: C9_16  and  N1_7 
REMARK    4  A    between atoms: C10_17  and  C8_15 
REMARK    5  A    between atoms: C11_18  and  C13_20 
REMARK    6  A    between atoms: C12_19  and  C14_21 
ROOT
HETATM    1  S1  UNK     1      23.450  -9.543  36.893  1.00  0.00    -0.075 SA
HETATM    2  C1  UNK     1      19.565 -10.884  37.165  1.00  0.00    -0.014 C 
HETATM    3  C2  UNK     1      18.948  -9.486  37.389  1.00  0.00     0.009 C 
HETATM    4  C3  UNK     1      20.963 -10.777  36.514  1.00  0.00     0.051 C 
HETATM    5  C4  UNK     1      19.811  -8.577  38.279  1.00  0.00     0.041 C 
HETATM    6  C5  UNK     1      21.261  -8.657  37.916  1.00  0.00    -0.026 A 
HETATM    7  C6  UNK     1      21.770  -9.676  37.133  1.00  0.00    -0.008 A 
HETATM    8  C7  UNK     1      19.613 -11.697  38.463  1.00  0.00     0.010 C 
HETATM    9  C8  UNK     1      22.288  -7.755  38.327  1.00  0.00     0.080 A 
HETATM   10  C9  UNK     1      23.525  -8.120  37.840  1.00  0.00     0.094 A 
ENDROOT
BRANCH  10  11
HETATM   11  N1  UNK     1      24.759  -7.545  37.986  1.00  0.00    -0.316 N 
HETATM   12  C11 UNK     1      25.814  -8.017  38.779  1.00  0.00     0.262 C 
HETATM   13  O3  UNK     1      25.847  -9.016  39.486  1.00  0.00    -0.267 OA
HETATM   14  H11 UNK     1      24.900  -6.699  37.441  1.00  0.00     0.169 HD
BRANCH  12  15
HETATM   15  C13 UNK     1      27.008  -7.149  38.704  1.00  0.00     0.108 A 
HETATM   16  C15 UNK     1      28.185  -7.772  38.576  1.00  0.00     0.037 A 
HETATM   17  C16 UNK     1      29.417  -7.003  38.495  1.00  0.00    -0.001 A 
HETATM   18  C18 UNK     1      29.349  -5.615  38.553  1.00  0.00     0.089 A 
HETATM   19  C20 UNK     1      30.667  -7.611  38.359  1.00  0.00     0.014 A 
HETATM   20  O4  UNK     1      28.107  -4.964  38.689  1.00  0.00    -0.274 OA
HETATM   21  C21 UNK     1      30.491  -4.820  38.482  1.00  0.00     0.038 A 
HETATM   22  C17 UNK     1      26.911  -5.673  38.768  1.00  0.00     0.304 A 
HETATM   23  O5  UNK     1      25.834  -5.099  38.887  1.00  0.00    -0.259 OA
HETATM   24  C23 UNK     1      31.734  -5.435  38.347  1.00  0.00     0.003 A 
HETATM   25  C22 UNK     1      31.822  -6.827  38.286  1.00  0.00     0.001 A 
ENDBRANCH  12  15
ENDBRANCH  10  11
BRANCH   9  26
HETATM   26  C10 UNK     1      22.095  -6.587  39.149  1.00  0.00     0.296 C 
HETATM   27  O2  UNK     1      22.802  -6.306  40.127  1.00  0.00    -0.259 OA
BRANCH  26  28
HETATM   28  O1  UNK     1      21.040  -5.793  38.753  1.00  0.00    -0.317 OA
BRANCH  28  29
HETATM   29  C12 UNK     1      21.302  -4.843  37.714  1.00  0.00     0.178 C 
BRANCH  29  30
HETATM   30  C14 UNK     1      19.978  -4.399  37.109  1.00  0.00     0.022 C 
HETATM   31  C19 UNK     1      20.160  -3.253  36.130  1.00  0.00     0.007 C 
ENDBRANCH  29  30
ENDBRANCH  28  29
ENDBRANCH  26  28
ENDBRANCH   9  26
TORSDOF 6
ENDMDL
MODEL 7
REMARK VINA RESULT:      -8.1      6.679     12.155
REMARK  6 active torsions:
REMARK  status: ('A' for Active; 'I' for Inactive)
REMARK    1  A    between atoms: C10_17  and  O1_2 
REMARK    2  A    between atoms: C12_19  and  O1_2 
REMARK       I    between atoms: C11_18  and  N1_7 
REMARK    3  A    between atoms: C9_16  and  N1_7 
REMARK    4  A    between atoms: C10_17  and  C8_15 
REMARK    5  A    between atoms: C11_18  and  C13_20 
REMARK    6  A    between atoms: C12_19  and  C14_21 
ROOT
HETATM    1  S1  UNK     1      18.469   2.702  29.856  1.00  0.00    -0.075 SA
HETATM    2  C1  UNK     1      20.141  -1.061  29.980  1.00  0.00    -0.014 C 
HETATM    3  C2  UNK     1      19.335  -1.533  31.211  1.00  0.00     0.009 C 
HETATM    4  C3  UNK     1      19.451   0.139  29.291  1.00  0.00     0.051 C 
HETATM    5  C4  UNK     1      19.141  -0.434  32.268  1.00  0.00     0.041 C 
HETATM    6  C5  UNK     1      18.773   0.877  31.646  1.00  0.00    -0.026 A 
HETATM    7  C6  UNK     1      18.943   1.127  30.297  1.00  0.00    -0.008 A 
HETATM    8  C7  UNK     1      21.594  -0.737  30.344  1.00  0.00     0.010 C 
HETATM    9  C8  UNK     1      18.247   2.017  32.324  1.00  0.00     0.080 A 
HETATM   10  C9  UNK     1      18.034   3.078  31.469  1.00  0.00     0.094 A 
ENDROOT
BRANCH  10  11
HETATM   11  N1  UNK     1      17.547   4.337  31.694  1.00  0.00    -0.316 N 
HETATM   12  C11 UNK     1      18.246   5.419  32.246  1.00  0.00     0.262 C 
HETATM   13  O3  UNK     1      19.407   5.459  32.630  1.00  0.00    -0.267 OA
HETATM   14  H11 UNK     1      16.581   4.476  31.408  1.00  0.00     0.169 HD
BRANCH  12  15
HETATM   15  C13 UNK     1      17.413   6.636  32.348  1.00  0.00     0.108 A 
HETATM   16  C15 UNK     1      17.062   7.011  33.584  1.00  0.00     0.037 A 
HETATM   17  C16 UNK     1      16.243   8.196  33.786  1.00  0.00    -0.001 A 
HETATM   18  C18 UNK     1      15.834   8.928  32.677  1.00  0.00     0.089 A 
HETATM   19  C20 UNK     1      15.854   8.624  35.058  1.00  0.00     0.014 A 
HETATM   20  O4  UNK     1      16.207   8.530  31.378  1.00  0.00    -0.274 OA
HETATM   21  C21 UNK     1      15.049  10.073  32.801  1.00  0.00     0.038 A 
HETATM   22  C17 UNK     1      16.990   7.401  31.153  1.00  0.00     0.304 A 
HETATM   23  O5  UNK     1      17.309   7.060  30.019  1.00  0.00    -0.259 OA
HETATM   24  C23 UNK     1      14.664  10.492  34.074  1.00  0.00     0.003 A 
HETATM   25  C22 UNK     1      15.066   9.769  35.199  1.00  0.00     0.001 A 
ENDBRANCH  12  15
ENDBRANCH  10  11
BRANCH   9  26
HETATM   26  C10 UNK     1      17.952   2.090  33.733  1.00  0.00     0.296 C 
HETATM   27  O2  UNK     1      18.612   2.756  34.543  1.00  0.00    -0.259 OA
BRANCH  26  28
HETATM   28  O1  UNK     1      16.856   1.346  34.114  1.00  0.00    -0.317 OA
BRANCH  28  29
HETATM   29  C12 UNK     1      17.089   0.282  35.044  1.00  0.00     0.178 C 
BRANCH  29  30
HETATM   30  C14 UNK     1      16.179   0.474  36.248  1.00  0.00     0.022 C 
HETATM   31  C19 UNK     1      16.756   1.470  37.238  1.00  0.00     0.007 C 
ENDBRANCH  29  30
ENDBRANCH  28  29
ENDBRANCH  26  28
ENDBRANCH   9  26
TORSDOF 6
ENDMDL
MODEL 8
REMARK VINA RESULT:      -8.1      6.382     12.269
REMARK  6 active torsions:
REMARK  status: ('A' for Active; 'I' for Inactive)
REMARK    1  A    between atoms: C10_17  and  O1_2 
REMARK    2  A    between atoms: C12_19  and  O1_2 
REMARK       I    between atoms: C11_18  and  N1_7 
REMARK    3  A    between atoms: C9_16  and  N1_7 
REMARK    4  A    between atoms: C10_17  and  C8_15 
REMARK    5  A    between atoms: C11_18  and  C13_20 
REMARK    6  A    between atoms: C12_19  and  C14_21 
ROOT
HETATM    1  S1  UNK     1      18.518   2.910  35.584  1.00  0.00    -0.075 SA
HETATM    2  C1  UNK     1      18.084  -1.133  34.925  1.00  0.00    -0.014 C 
HETATM    3  C2  UNK     1      18.653  -1.104  33.489  1.00  0.00     0.009 C 
HETATM    4  C3  UNK     1      18.532   0.112  35.726  1.00  0.00     0.051 C 
HETATM    5  C4  UNK     1      18.231   0.142  32.693  1.00  0.00     0.041 C 
HETATM    6  C5  UNK     1      18.332   1.388  33.517  1.00  0.00    -0.026 A 
HETATM    7  C6  UNK     1      18.445   1.355  34.894  1.00  0.00    -0.008 A 
HETATM    8  C7  UNK     1      16.559  -1.281  34.927  1.00  0.00     0.010 C 
HETATM    9  C8  UNK     1      18.300   2.729  33.030  1.00  0.00     0.080 A 
HETATM   10  C9  UNK     1      18.393   3.654  34.048  1.00  0.00     0.094 A 
ENDROOT
BRANCH  10  11
HETATM   11  N1  UNK     1      18.404   5.023  34.027  1.00  0.00    -0.316 N 
HETATM   12  C11 UNK     1      17.543   5.856  33.301  1.00  0.00     0.262 C 
HETATM   13  O3  UNK     1      16.627   5.538  32.553  1.00  0.00    -0.267 OA
HETATM   14  H11 UNK     1      19.110   5.450  34.621  1.00  0.00     0.169 HD
BRANCH  12  15
HETATM   15  C13 UNK     1      17.835   7.290  33.511  1.00  0.00     0.108 A 
HETATM   16  C15 UNK     1      16.776   8.104  33.592  1.00  0.00     0.037 A 
HETATM   17  C16 UNK     1      16.962   9.532  33.797  1.00  0.00    -0.001 A 
HETATM   18  C18 UNK     1      18.255  10.033  33.906  1.00  0.00     0.089 A 
HETATM   19  C20 UNK     1      15.886  10.418  33.889  1.00  0.00     0.014 A 
HETATM   20  O4  UNK     1      19.367   9.172  33.820  1.00  0.00    -0.274 OA
HETATM   21  C21 UNK     1      18.503  11.390  34.103  1.00  0.00     0.038 A 
HETATM   22  C17 UNK     1      19.220   7.801  33.624  1.00  0.00     0.304 A 
HETATM   23  O5  UNK     1      20.193   7.058  33.549  1.00  0.00    -0.259 OA
HETATM   24  C23 UNK     1      17.423  12.267  34.193  1.00  0.00     0.003 A 
HETATM   25  C22 UNK     1      16.118  11.782  34.086  1.00  0.00     0.001 A 
ENDBRANCH  12  15
ENDBRANCH  10  11
BRANCH   9  26
HETATM   26  C10 UNK     1      18.189   3.113  31.645  1.00  0.00     0.296 C 
HETATM   27  O2  UNK     1      17.245   2.789  30.911  1.00  0.00    -0.259 OA
BRANCH  26  28
HETATM   28  O1  UNK     1      19.238   3.885  31.194  1.00  0.00    -0.317 OA
BRANCH  28  29
HETATM   29  C12 UNK     1      19.013   4.650  30.004  1.00  0.00     0.178 C 
BRANCH  29  30
HETATM   30  C14 UNK     1      19.712   5.994  30.144  1.00  0.00     0.022 C 
HETATM   31  C19 UNK     1      21.110   5.846  30.720  1.00  0.00     0.007 C 
ENDBRANCH  29  30
ENDBRANCH  28  29
ENDBRANCH  26  28
ENDBRANCH   9  26
TORSDOF 6
ENDMDL
MODEL 9
REMARK VINA RESULT:      -8.0     17.603     21.915
REMARK  6 active torsions:
REMARK  status: ('A' for Active; 'I' for Inactive)
REMARK    1  A    between atoms: C10_17  and  O1_2 
REMARK    2  A    between atoms: C12_19  and  O1_2 
REMARK       I    between atoms: C11_18  and  N1_7 
REMARK    3  A    between atoms: C9_16  and  N1_7 
REMARK    4  A    between atoms: C10_17  and  C8_15 
REMARK    5  A    between atoms: C11_18  and  C13_20 
REMARK    6  A    between atoms: C12_19  and  C14_21 
ROOT
HETATM    1  S1  UNK     1      19.169  -3.571  12.018  1.00  0.00    -0.075 SA
HETATM    2  C1  UNK     1      19.167  -7.281  10.227  1.00  0.00    -0.014 C 
HETATM    3  C2  UNK     1      18.121  -7.898  11.182  1.00  0.00     0.009 C 
HETATM    4  C3  UNK     1      19.090  -5.737  10.242  1.00  0.00     0.051 C 
HETATM    5  C4  UNK     1      18.280  -7.435  12.639  1.00  0.00     0.041 C 
HETATM    6  C5  UNK     1      18.534  -5.962  12.729  1.00  0.00    -0.026 A 
HETATM    7  C6  UNK     1      18.924  -5.212  11.636  1.00  0.00    -0.008 A 
HETATM    8  C7  UNK     1      20.584  -7.773  10.544  1.00  0.00     0.010 C 
HETATM    9  C8  UNK     1      18.445  -5.159  13.906  1.00  0.00     0.080 A 
HETATM   10  C9  UNK     1      18.763  -3.840  13.659  1.00  0.00     0.094 A 
ENDROOT
BRANCH  10  11
HETATM   11  N1  UNK     1      18.803  -2.750  14.487  1.00  0.00    -0.316 N 
HETATM   12  C11 UNK     1      19.699  -2.532  15.542  1.00  0.00     0.262 C 
HETATM   13  O3  UNK     1      20.607  -3.254  15.931  1.00  0.00    -0.267 OA
HETATM   14  H11 UNK     1      18.109  -2.035  14.281  1.00  0.00     0.169 HD
BRANCH  12  15
HETATM   15  C13 UNK     1      19.458  -1.246  16.230  1.00  0.00     0.108 A 
HETATM   16  C15 UNK     1      19.342  -1.300  17.562  1.00  0.00     0.037 A 
HETATM   17  C16 UNK     1      19.104  -0.086  18.328  1.00  0.00    -0.001 A 
HETATM   18  C18 UNK     1      19.000   1.125  17.653  1.00  0.00     0.089 A 
HETATM   19  C20 UNK     1      18.977  -0.096  19.718  1.00  0.00     0.014 A 
HETATM   20  O4  UNK     1      19.124   1.177  16.251  1.00  0.00    -0.274 OA
HETATM   21  C21 UNK     1      18.773   2.324  18.326  1.00  0.00     0.038 A 
HETATM   22  C17 UNK     1      19.352   0.033  15.490  1.00  0.00     0.304 A 
HETATM   23  O5  UNK     1      19.457   0.086  14.270  1.00  0.00    -0.259 OA
HETATM   24  C23 UNK     1      18.646   2.305  19.714  1.00  0.00     0.003 A 
HETATM   25  C22 UNK     1      18.748   1.097  20.408  1.00  0.00     0.001 A 
ENDBRANCH  12  15
ENDBRANCH  10  11
BRANCH   9  26
HETATM   26  C10 UNK     1      18.065  -5.630  15.214  1.00  0.00     0.296 C 
HETATM   27  O2  UNK     1      18.871  -6.039  16.061  1.00  0.00    -0.259 OA
BRANCH  26  28
HETATM   28  O1  UNK     1      16.708  -5.588  15.450  1.00  0.00    -0.317 OA
BRANCH  28  29
HETATM   29  C12 UNK     1      16.291  -5.591  16.821  1.00  0.00     0.178 C 
BRANCH  29  30
HETATM   30  C14 UNK     1      15.442  -6.828  17.073  1.00  0.00     0.022 C 
HETATM   31  C19 UNK     1      14.365  -6.999  16.016  1.00  0.00     0.007 C 
ENDBRANCH  29  30
ENDBRANCH  28  29
ENDBRANCH  26  28
ENDBRANCH   9  26
TORSDOF 6
ENDMDL
MODEL 10
REMARK VINA RESULT:      -7.8      8.696     10.476
REMARK  6 active torsions:
REMARK  status: ('A' for Active; 'I' for Inactive)
REMARK    1  A    between atoms: C10_17  and  O1_2 
REMARK    2  A    between atoms: C12_19  and  O1_2 
REMARK       I    between atoms: C11_18  and  N1_7 
REMARK    3  A    between atoms: C9_16  and  N1_7 
REMARK    4  A    between atoms: C10_17  and  C8_15 
REMARK    5  A    between atoms: C11_18  and  C13_20 
REMARK    6  A    between atoms: C12_19  and  C14_21 
ROOT
HETATM    1  S1  UNK     1      29.575  -6.465  38.385  1.00  0.00    -0.075 SA
HETATM    2  C1  UNK     1      33.509  -5.618  37.501  1.00  0.00    -0.014 C 
HETATM    3  C2  UNK     1      33.241  -5.221  36.032  1.00  0.00     0.009 C 
HETATM    4  C3  UNK     1      32.216  -5.529  38.345  1.00  0.00     0.051 C 
HETATM    5  C4  UNK     1      32.176  -6.096  35.351  1.00  0.00     0.041 C 
HETATM    6  C5  UNK     1      30.997  -6.331  36.243  1.00  0.00    -0.026 A 
HETATM    7  C6  UNK     1      31.041  -6.090  37.603  1.00  0.00    -0.008 A 
HETATM    8  C7  UNK     1      34.151  -7.005  37.606  1.00  0.00     0.010 C 
HETATM    9  C8  UNK     1      29.725  -6.842  35.847  1.00  0.00     0.080 A 
HETATM   10  C9  UNK     1      28.858  -6.963  36.912  1.00  0.00     0.094 A 
ENDROOT
BRANCH  10  11
HETATM   11  N1  UNK     1      27.563  -7.400  36.979  1.00  0.00    -0.316 N 
HETATM   12  C11 UNK     1      27.124  -8.652  37.430  1.00  0.00     0.262 C 
HETATM   13  O3  UNK     1      27.793  -9.588  37.847  1.00  0.00    -0.267 OA
HETATM   14  H11 UNK     1      26.869  -6.720  36.677  1.00  0.00     0.169 HD
BRANCH  12  15
HETATM   15  C13 UNK     1      25.653  -8.791  37.367  1.00  0.00     0.108 A 
HETATM   16  C15 UNK     1      25.186  -9.789  36.608  1.00  0.00     0.037 A 
HETATM   17  C16 UNK     1      23.752 -10.006  36.483  1.00  0.00    -0.001 A 
HETATM   18  C18 UNK     1      22.882  -9.161  37.163  1.00  0.00     0.089 A 
HETATM   19  C20 UNK     1      23.220 -11.035  35.703  1.00  0.00     0.014 A 
HETATM   20  O4  UNK     1      23.380  -8.111  37.961  1.00  0.00    -0.274 OA
HETATM   21  C21 UNK     1      21.499  -9.314  37.086  1.00  0.00     0.038 A 
HETATM   22  C17 UNK     1      24.745  -7.879  38.100  1.00  0.00     0.304 A 
HETATM   23  O5  UNK     1      25.171  -6.963  38.795  1.00  0.00    -0.259 OA
HETATM   24  C23 UNK     1      20.977 -10.343  36.305  1.00  0.00     0.003 A 
HETATM   25  C22 UNK     1      21.836 -11.202  35.615  1.00  0.00     0.001 A 
ENDBRANCH  12  15
ENDBRANCH  10  11
BRANCH   9  26
HETATM   26  C10 UNK     1      29.348  -7.196  34.501  1.00  0.00     0.296 C 
HETATM   27  O2  UNK     1      29.859  -8.128  33.863  1.00  0.00    -0.259 OA
BRANCH  26  28
HETATM   28  O1  UNK     1      28.355  -6.400  33.971  1.00  0.00    -0.317 OA
BRANCH  28  29
HETATM   29  C12 UNK     1      28.393  -6.176  32.556  1.00  0.00     0.178 C 
BRANCH  29  30
HETATM   30  C14 UNK     1      29.506  -5.186  32.245  1.00  0.00     0.022 C 
HETATM   31  C19 UNK     1      29.700  -5.008  30.749  1.00  0.00     0.007 C 
ENDBRANCH  29  30
ENDBRANCH  28  29
ENDBRANCH  26  28
ENDBRANCH   9  26
TORSDOF 6
ENDMDL
