MODEL 1
REMARK VINA RESULT:      -8.9      0.000      0.000
REMARK  1 active torsions:
REMARK  status: ('A' for Active; 'I' for Inactive)
REMARK    1  A    between atoms: C10_16  and  C6_12 
ROOT
HETATM    1  O1  UNK     1      33.414 -10.564  33.786  1.00  0.00    -0.293 OA
HETATM    2  N1  UNK     1      29.109 -10.034  31.687  1.00  0.00    -0.357 N 
HETATM    3  N2  UNK     1      31.043  -7.768  32.092  1.00  0.00    -0.375 N 
HETATM    4  C1  UNK     1      31.603 -12.828  31.590  1.00  0.00    -0.036 C 
HETATM    5  C2  UNK     1      30.224 -12.170  31.749  1.00  0.00     0.067 C 
HETATM    6  C3  UNK     1      32.435 -12.501  32.829  1.00  0.00     0.092 C 
HETATM    7  C4  UNK     1      30.261 -10.685  32.082  1.00  0.00     0.022 C 
HETATM    8  C5  UNK     1      31.317 -10.141  32.725  1.00  0.00     0.037 C 
HETATM    9  C6  UNK     1      31.417  -8.698  33.144  1.00  0.00     0.160 C 
HETATM   10  C7  UNK     1      32.469 -11.022  33.142  1.00  0.00     0.160 C 
HETATM   11  C8  UNK     1      32.309 -12.336  30.310  1.00  0.00     0.015 C 
HETATM   12  C9  UNK     1      31.429 -14.354  31.482  1.00  0.00     0.015 C 
HETATM   13  C11 UNK     1      28.848  -8.678  31.411  1.00  0.00     0.059 A 
HETATM   14  C12 UNK     1      29.779  -7.634  31.541  1.00  0.00     0.055 A 
HETATM   15  C15 UNK     1      27.559  -8.376  30.912  1.00  0.00     0.032 A 
HETATM   16  C16 UNK     1      29.398  -6.338  31.123  1.00  0.00     0.031 A 
HETATM   17  C18 UNK     1      27.200  -7.087  30.523  1.00  0.00     0.002 A 
HETATM   18  C19 UNK     1      28.127  -6.065  30.620  1.00  0.00     0.002 A 
HETATM   19  H12 UNK     1      28.339 -10.657  31.459  1.00  0.00     0.166 HD
HETATM   20  H13 UNK     1      31.670  -6.979  31.962  1.00  0.00     0.160 HD
ENDROOT
BRANCH   9  21
HETATM   21  C10 UNK     1      30.672  -8.407  34.410  1.00  0.00     0.042 A 
HETATM   22  C13 UNK     1      30.867  -7.087  35.062  1.00  0.00     0.195 A 
HETATM   23  O3  UNK     1      31.614  -6.236  34.597  1.00  0.00    -0.287 OA
HETATM   24  C17 UNK     1      30.111  -6.854  36.307  1.00  0.00     0.050 A 
HETATM   25  C20 UNK     1      29.274  -7.860  36.791  1.00  0.00     0.089 A 
HETATM   26  C21 UNK     1      30.228  -5.644  36.995  1.00  0.00     0.042 A 
HETATM   27  O2  UNK     1      29.121  -9.067  36.154  1.00  0.00    -0.321 OA
HETATM   28  C22 UNK     1      28.549  -7.661  37.966  1.00  0.00     0.040 A 
HETATM   29  C14 UNK     1      29.832  -9.270  34.998  1.00  0.00     0.156 A 
HETATM   30  C24 UNK     1      28.664  -6.454  38.655  1.00  0.00     0.026 A 
HETATM   31  C23 UNK     1      29.501  -5.448  38.171  1.00  0.00     0.035 A 
HETATM   32 Cl1  UNK     1      29.638  -3.961  39.026  1.00  0.00    -0.084 Cl
ENDBRANCH   9  21
TORSDOF 1
ENDMDL
MODEL 2
REMARK VINA RESULT:      -8.8      3.409      7.016
REMARK  1 active torsions:
REMARK  status: ('A' for Active; 'I' for Inactive)
REMARK    1  A    between atoms: C10_16  and  C6_12 
ROOT
HETATM    1  O1  UNK     1      26.158  -9.349  36.213  1.00  0.00    -0.293 OA
HETATM    2  N1  UNK     1      30.801  -8.278  36.933  1.00  0.00    -0.357 N 
HETATM    3  N2  UNK     1      29.045  -6.805  34.987  1.00  0.00    -0.375 N 
HETATM    4  C1  UNK     1      28.116  -9.433  39.277  1.00  0.00    -0.036 C 
HETATM    5  C2  UNK     1      29.499  -9.421  38.608  1.00  0.00     0.067 C 
HETATM    6  C3  UNK     1      27.109 -10.009  38.284  1.00  0.00     0.092 C 
HETATM    7  C4  UNK     1      29.541  -8.752  37.242  1.00  0.00     0.022 C 
HETATM    8  C5  UNK     1      28.442  -8.696  36.459  1.00  0.00     0.037 C 
HETATM    9  C6  UNK     1      28.402  -8.105  35.074  1.00  0.00     0.160 C 
HETATM   10  C7  UNK     1      27.157  -9.328  36.934  1.00  0.00     0.160 C 
HETATM   11  C8  UNK     1      27.701  -8.014  39.718  1.00  0.00     0.015 C 
HETATM   12  C9  UNK     1      28.165 -10.326  40.530  1.00  0.00     0.015 C 
HETATM   13  C11 UNK     1      31.232  -7.283  36.034  1.00  0.00     0.059 A 
HETATM   14  C12 UNK     1      30.394  -6.553  35.174  1.00  0.00     0.055 A 
HETATM   15  C15 UNK     1      32.612  -6.972  36.057  1.00  0.00     0.032 A 
HETATM   16  C16 UNK     1      30.962  -5.511  34.407  1.00  0.00     0.031 A 
HETATM   17  C18 UNK     1      33.153  -5.952  35.277  1.00  0.00     0.002 A 
HETATM   18  C19 UNK     1      32.323  -5.211  34.456  1.00  0.00     0.002 A 
HETATM   19  H12 UNK     1      31.538  -8.641  37.530  1.00  0.00     0.166 HD
HETATM   20  H13 UNK     1      28.527  -6.094  34.477  1.00  0.00     0.160 HD
ENDROOT
BRANCH   9  21
HETATM   21  C10 UNK     1      28.932  -9.038  34.028  1.00  0.00     0.042 A 
HETATM   22  C13 UNK     1      28.764  -8.671  32.599  1.00  0.00     0.195 A 
HETATM   23  O3  UNK     1      28.211  -7.635  32.254  1.00  0.00    -0.287 OA
HETATM   24  C17 UNK     1      29.302  -9.625  31.612  1.00  0.00     0.050 A 
HETATM   25  C20 UNK     1      29.923 -10.791  32.063  1.00  0.00     0.089 A 
HETATM   26  C21 UNK     1      29.193  -9.370  30.243  1.00  0.00     0.042 A 
HETATM   27  O2  UNK     1      30.057 -11.091  33.396  1.00  0.00    -0.321 OA
HETATM   28  C22 UNK     1      30.439 -11.707  31.146  1.00  0.00     0.040 A 
HETATM   29  C14 UNK     1      29.551 -10.193  34.304  1.00  0.00     0.156 A 
HETATM   30  C24 UNK     1      30.331 -11.455  29.779  1.00  0.00     0.026 A 
HETATM   31  C23 UNK     1      29.710 -10.290  29.328  1.00  0.00     0.035 A 
HETATM   32 Cl1  UNK     1      29.582  -9.985  27.639  1.00  0.00    -0.084 Cl
ENDBRANCH   9  21
TORSDOF 1
ENDMDL
MODEL 3
REMARK VINA RESULT:      -8.8      3.435      7.347
REMARK  1 active torsions:
REMARK  status: ('A' for Active; 'I' for Inactive)
REMARK    1  A    between atoms: C10_16  and  C6_12 
ROOT
HETATM    1  O1  UNK     1      27.391  -6.732  35.244  1.00  0.00    -0.293 OA
HETATM    2  N1  UNK     1      31.728  -7.261  37.275  1.00  0.00    -0.357 N 
HETATM    3  N2  UNK     1      31.155  -5.276  35.091  1.00  0.00    -0.375 N 
HETATM    4  C1  UNK     1      28.268  -7.481  38.693  1.00  0.00    -0.036 C 
HETATM    5  C2  UNK     1      29.714  -7.922  38.421  1.00  0.00     0.067 C 
HETATM    6  C3  UNK     1      27.456  -7.685  37.415  1.00  0.00     0.092 C 
HETATM    7  C4  UNK     1      30.350  -7.295  37.189  1.00  0.00     0.022 C 
HETATM    8  C5  UNK     1      29.595  -6.873  36.152  1.00  0.00     0.037 C 
HETATM    9  C6  UNK     1      30.138  -6.292  34.873  1.00  0.00     0.160 C 
HETATM   10  C7  UNK     1      28.097  -7.048  36.203  1.00  0.00     0.160 C 
HETATM   11  C8  UNK     1      28.213  -6.008  39.149  1.00  0.00     0.015 C 
HETATM   12  C9  UNK     1      27.675  -8.350  39.818  1.00  0.00     0.015 C 
HETATM   13  C11 UNK     1      32.688  -6.458  36.628  1.00  0.00     0.059 A 
HETATM   14  C12 UNK     1      32.403  -5.486  35.654  1.00  0.00     0.055 A 
HETATM   15  C15 UNK     1      34.029  -6.622  37.048  1.00  0.00     0.032 A 
HETATM   16  C16 UNK     1      33.463  -4.684  35.174  1.00  0.00     0.031 A 
HETATM   17  C18 UNK     1      35.062  -5.832  36.547  1.00  0.00     0.002 A 
HETATM   18  C19 UNK     1      34.776  -4.852  35.612  1.00  0.00     0.002 A 
HETATM   19  H12 UNK     1      32.112  -7.852  38.007  1.00  0.00     0.166 HD
HETATM   20  H13 UNK     1      31.055  -4.431  34.536  1.00  0.00     0.160 HD
ENDROOT
BRANCH   9  21
HETATM   21  C10 UNK     1      30.621  -7.339  33.917  1.00  0.00     0.042 A 
HETATM   22  C13 UNK     1      30.944  -6.936  32.525  1.00  0.00     0.195 A 
HETATM   23  O3  UNK     1      30.829  -5.780  32.140  1.00  0.00    -0.287 OA
HETATM   24  C17 UNK     1      31.412  -8.006  31.626  1.00  0.00     0.050 A 
HETATM   25  C20 UNK     1      31.524  -9.307  32.120  1.00  0.00     0.089 A 
HETATM   26  C21 UNK     1      31.741  -7.728  30.297  1.00  0.00     0.042 A 
HETATM   27  O2  UNK     1      31.216  -9.636  33.416  1.00  0.00    -0.321 OA
HETATM   28  C22 UNK     1      31.966 -10.335  31.287  1.00  0.00     0.040 A 
HETATM   29  C14 UNK     1      30.780  -8.629  34.242  1.00  0.00     0.156 A 
HETATM   30  C24 UNK     1      32.294 -10.059  29.960  1.00  0.00     0.026 A 
HETATM   31  C23 UNK     1      32.182  -8.759  29.466  1.00  0.00     0.035 A 
HETATM   32 Cl1  UNK     1      32.590  -8.426  27.827  1.00  0.00    -0.084 Cl
ENDBRANCH   9  21
TORSDOF 1
ENDMDL
MODEL 4
REMARK VINA RESULT:      -8.7      3.266      5.313
REMARK  1 active torsions:
REMARK  status: ('A' for Active; 'I' for Inactive)
REMARK    1  A    between atoms: C10_16  and  C6_12 
ROOT
HETATM    1  O1  UNK     1      29.117 -10.091  32.654  1.00  0.00    -0.293 OA
HETATM    2  N1  UNK     1      30.051  -5.728  34.472  1.00  0.00    -0.357 N 
HETATM    3  N2  UNK     1      31.689  -8.169  35.103  1.00  0.00    -0.375 N 
HETATM    4  C1  UNK     1      28.783  -6.811  31.118  1.00  0.00    -0.036 C 
HETATM    5  C2  UNK     1      28.817  -5.997  32.420  1.00  0.00     0.067 C 
HETATM    6  C3  UNK     1      28.296  -8.220  31.447  1.00  0.00     0.092 C 
HETATM    7  C4  UNK     1      29.579  -6.653  33.562  1.00  0.00     0.022 C 
HETATM    8  C5  UNK     1      29.710  -7.995  33.634  1.00  0.00     0.037 C 
HETATM    9  C6  UNK     1      30.397  -8.734  34.751  1.00  0.00     0.160 C 
HETATM   10  C7  UNK     1      29.069  -8.862  32.577  1.00  0.00     0.160 C 
HETATM   11  C8  UNK     1      30.174  -6.852  30.453  1.00  0.00     0.015 C 
HETATM   12  C9  UNK     1      27.803  -6.151  30.131  1.00  0.00     0.015 C 
HETATM   13  C11 UNK     1      31.099  -5.788  35.412  1.00  0.00     0.059 A 
HETATM   14  C12 UNK     1      31.902  -6.915  35.653  1.00  0.00     0.055 A 
HETATM   15  C15 UNK     1      31.382  -4.593  36.113  1.00  0.00     0.032 A 
HETATM   16  C16 UNK     1      32.986  -6.788  36.552  1.00  0.00     0.031 A 
HETATM   17  C18 UNK     1      32.445  -4.496  37.009  1.00  0.00     0.002 A 
HETATM   18  C19 UNK     1      33.257  -5.597  37.222  1.00  0.00     0.002 A 
HETATM   19  H12 UNK     1      29.634  -4.805  34.380  1.00  0.00     0.166 HD
HETATM   20  H13 UNK     1      32.443  -8.840  35.221  1.00  0.00     0.160 HD
ENDROOT
BRANCH   9  21
HETATM   21  C10 UNK     1      29.531  -8.892  35.963  1.00  0.00     0.042 A 
HETATM   22  C13 UNK     1      30.099  -9.563  37.159  1.00  0.00     0.195 A 
HETATM   23  O3  UNK     1      31.247  -9.987  37.184  1.00  0.00    -0.287 OA
HETATM   24  C17 UNK     1      29.203  -9.694  38.323  1.00  0.00     0.050 A 
HETATM   25  C20 UNK     1      27.903  -9.191  38.239  1.00  0.00     0.089 A 
HETATM   26  C21 UNK     1      29.644 -10.310  39.496  1.00  0.00     0.042 A 
HETATM   27  O2  UNK     1      27.419  -8.576  37.112  1.00  0.00    -0.321 OA
HETATM   28  C22 UNK     1      27.039  -9.303  39.328  1.00  0.00     0.040 A 
HETATM   29  C14 UNK     1      28.264  -8.462  36.036  1.00  0.00     0.156 A 
HETATM   30  C24 UNK     1      27.477  -9.919  40.500  1.00  0.00     0.026 A 
HETATM   31  C23 UNK     1      28.776 -10.422  40.584  1.00  0.00     0.035 A 
HETATM   32 Cl1  UNK     1      29.310 -11.180  42.034  1.00  0.00    -0.084 Cl
ENDBRANCH   9  21
TORSDOF 1
ENDMDL
MODEL 5
REMARK VINA RESULT:      -8.5      3.467      6.995
REMARK  1 active torsions:
REMARK  status: ('A' for Active; 'I' for Inactive)
REMARK    1  A    between atoms: C10_16  and  C6_12 
ROOT
HETATM    1  O1  UNK     1      31.358  -8.503  38.264  1.00  0.00    -0.293 OA
HETATM    2  N1  UNK     1      30.448  -5.476  34.628  1.00  0.00    -0.357 N 
HETATM    3  N2  UNK     1      30.302  -8.468  34.366  1.00  0.00    -0.375 N 
HETATM    4  C1  UNK     1      29.743  -5.245  38.300  1.00  0.00    -0.036 C 
HETATM    5  C2  UNK     1      30.247  -4.778  36.925  1.00  0.00     0.067 C 
HETATM    6  C3  UNK     1      30.717  -6.292  38.836  1.00  0.00     0.092 C 
HETATM    7  C4  UNK     1      30.538  -5.900  35.939  1.00  0.00     0.022 C 
HETATM    8  C5  UNK     1      30.875  -7.135  36.367  1.00  0.00     0.037 C 
HETATM    9  C6  UNK     1      31.233  -8.290  35.468  1.00  0.00     0.160 C 
HETATM   10  C7  UNK     1      30.989  -7.404  37.848  1.00  0.00     0.160 C 
HETATM   11  C8  UNK     1      28.316  -5.822  38.201  1.00  0.00     0.015 C 
HETATM   12  C9  UNK     1      29.706  -4.043  39.262  1.00  0.00     0.015 C 
HETATM   13  C11 UNK     1      30.230  -6.182  33.428  1.00  0.00     0.059 A 
HETATM   14  C12 UNK     1      30.098  -7.577  33.325  1.00  0.00     0.055 A 
HETATM   15  C15 UNK     1      30.081  -5.400  32.258  1.00  0.00     0.032 A 
HETATM   16  C16 UNK     1      29.775  -8.130  32.065  1.00  0.00     0.031 A 
HETATM   17  C18 UNK     1      29.780  -5.970  31.022  1.00  0.00     0.002 A 
HETATM   18  C19 UNK     1      29.617  -7.341  30.927  1.00  0.00     0.002 A 
HETATM   19  H12 UNK     1      30.437  -4.466  34.518  1.00  0.00     0.166 HD
HETATM   20  H13 UNK     1      30.001  -9.423  34.198  1.00  0.00     0.160 HD
ENDROOT
BRANCH   9  21
HETATM   21  C10 UNK     1      32.645  -8.225  34.974  1.00  0.00     0.042 A 
HETATM   22  C13 UNK     1      33.174  -9.367  34.185  1.00  0.00     0.195 A 
HETATM   23  O3  UNK     1      32.493 -10.351  33.928  1.00  0.00    -0.287 OA
HETATM   24  C17 UNK     1      34.571  -9.253  33.725  1.00  0.00     0.050 A 
HETATM   25  C20 UNK     1      35.300  -8.107  34.048  1.00  0.00     0.089 A 
HETATM   26  C21 UNK     1      35.159 -10.274  32.976  1.00  0.00     0.042 A 
HETATM   27  O2  UNK     1      34.771  -7.073  34.779  1.00  0.00    -0.321 OA
HETATM   28  C22 UNK     1      36.622  -7.978  33.622  1.00  0.00     0.040 A 
HETATM   29  C14 UNK     1      33.470  -7.194  35.202  1.00  0.00     0.156 A 
HETATM   30  C24 UNK     1      37.213  -8.996  32.875  1.00  0.00     0.026 A 
HETATM   31  C23 UNK     1      36.483 -10.142  32.553  1.00  0.00     0.035 A 
HETATM   32 Cl1  UNK     1      37.218 -11.395  31.630  1.00  0.00    -0.084 Cl
ENDBRANCH   9  21
TORSDOF 1
ENDMDL
MODEL 6
REMARK VINA RESULT:      -8.5      2.788      4.544
REMARK  1 active torsions:
REMARK  status: ('A' for Active; 'I' for Inactive)
REMARK    1  A    between atoms: C10_16  and  C6_12 
ROOT
HETATM    1  O1  UNK     1      33.211  -5.069  36.296  1.00  0.00    -0.293 OA
HETATM    2  N1  UNK     1      32.482  -8.973  33.568  1.00  0.00    -0.357 N 
HETATM    3  N2  UNK     1      30.528  -6.696  33.754  1.00  0.00    -0.375 N 
HETATM    4  C1  UNK     1      35.591  -7.053  34.392  1.00  0.00    -0.036 C 
HETATM    5  C2  UNK     1      34.699  -8.292  34.222  1.00  0.00     0.067 C 
HETATM    6  C3  UNK     1      35.130  -6.298  35.637  1.00  0.00     0.092 C 
HETATM    7  C4  UNK     1      33.204  -8.008  34.242  1.00  0.00     0.022 C 
HETATM    8  C5  UNK     1      32.706  -6.936  34.896  1.00  0.00     0.037 C 
HETATM    9  C6  UNK     1      31.242  -6.607  35.016  1.00  0.00     0.160 C 
HETATM   10  C7  UNK     1      33.644  -6.016  35.638  1.00  0.00     0.160 C 
HETATM   11  C8  UNK     1      35.526  -6.147  33.145  1.00  0.00     0.015 C 
HETATM   12  C9  UNK     1      37.053  -7.500  34.579  1.00  0.00     0.015 C 
HETATM   13  C11 UNK     1      31.200  -8.947  32.985  1.00  0.00     0.059 A 
HETATM   14  C12 UNK     1      30.320  -7.853  33.021  1.00  0.00     0.055 A 
HETATM   15  C15 UNK     1      30.815 -10.102  32.264  1.00  0.00     0.032 A 
HETATM   16  C16 UNK     1      29.109  -7.940  32.295  1.00  0.00     0.031 A 
HETATM   17  C18 UNK     1      29.608 -10.172  31.571  1.00  0.00     0.002 A 
HETATM   18  C19 UNK     1      28.756  -9.083  31.579  1.00  0.00     0.002 A 
HETATM   19  H12 UNK     1      33.007  -9.822  33.372  1.00  0.00     0.166 HD
HETATM   20  H13 UNK     1      29.902  -5.922  33.549  1.00  0.00     0.160 HD
ENDROOT
BRANCH   9  21
HETATM   21  C10 UNK     1      30.553  -7.403  36.081  1.00  0.00     0.042 A 
HETATM   22  C13 UNK     1      29.110  -7.155  36.332  1.00  0.00     0.195 A 
HETATM   23  O3  UNK     1      28.473  -6.326  35.697  1.00  0.00    -0.287 OA
HETATM   24  C17 UNK     1      28.482  -7.964  37.393  1.00  0.00     0.050 A 
HETATM   25  C20 UNK     1      29.258  -8.896  38.085  1.00  0.00     0.089 A 
HETATM   26  C21 UNK     1      27.130  -7.805  37.704  1.00  0.00     0.042 A 
HETATM   27  O2  UNK     1      30.590  -9.094  37.820  1.00  0.00    -0.321 OA
HETATM   28  C22 UNK     1      28.684  -9.673  39.091  1.00  0.00     0.040 A 
HETATM   29  C14 UNK     1      31.161  -8.332  36.830  1.00  0.00     0.156 A 
HETATM   30  C24 UNK     1      27.334  -9.515  39.404  1.00  0.00     0.026 A 
HETATM   31  C23 UNK     1      26.559  -8.584  38.712  1.00  0.00     0.035 A 
HETATM   32 Cl1  UNK     1      24.893  -8.395  39.103  1.00  0.00    -0.084 Cl
ENDBRANCH   9  21
TORSDOF 1
ENDMDL
MODEL 7
REMARK VINA RESULT:      -8.4      3.588      6.770
REMARK  1 active torsions:
REMARK  status: ('A' for Active; 'I' for Inactive)
REMARK    1  A    between atoms: C10_16  and  C6_12 
ROOT
HETATM    1  O1  UNK     1      33.000  -9.159  34.563  1.00  0.00    -0.293 OA
HETATM    2  N1  UNK     1      30.542  -5.832  37.033  1.00  0.00    -0.357 N 
HETATM    3  N2  UNK     1      29.699  -8.712  36.845  1.00  0.00    -0.375 N 
HETATM    4  C1  UNK     1      34.216  -6.335  36.505  1.00  0.00    -0.036 C 
HETATM    5  C2  UNK     1      32.889  -5.564  36.555  1.00  0.00     0.067 C 
HETATM    6  C3  UNK     1      34.199  -7.240  35.275  1.00  0.00     0.092 C 
HETATM    7  C4  UNK     1      31.643  -6.433  36.456  1.00  0.00     0.022 C 
HETATM    8  C5  UNK     1      31.675  -7.629  35.830  1.00  0.00     0.037 C 
HETATM    9  C6  UNK     1      30.483  -8.530  35.636  1.00  0.00     0.160 C 
HETATM   10  C7  UNK     1      32.960  -8.103  35.196  1.00  0.00     0.160 C 
HETATM   11  C8  UNK     1      34.427  -7.162  37.791  1.00  0.00     0.015 C 
HETATM   12  C9  UNK     1      35.381  -5.335  36.386  1.00  0.00     0.015 C 
HETATM   13  C11 UNK     1      29.339  -6.366  37.537  1.00  0.00     0.059 A 
HETATM   14  C12 UNK     1      28.983  -7.725  37.503  1.00  0.00     0.055 A 
HETATM   15  C15 UNK     1      28.465  -5.453  38.172  1.00  0.00     0.032 A 
HETATM   16  C16 UNK     1      27.789  -8.123  38.146  1.00  0.00     0.031 A 
HETATM   17  C18 UNK     1      27.283  -5.866  38.784  1.00  0.00     0.002 A 
HETATM   18  C19 UNK     1      26.948  -7.208  38.779  1.00  0.00     0.002 A 
HETATM   19  H12 UNK     1      30.661  -4.840  37.218  1.00  0.00     0.166 HD
HETATM   20  H13 UNK     1      29.427  -9.669  37.051  1.00  0.00     0.160 HD
ENDROOT
BRANCH   9  21
HETATM   21  C10 UNK     1      29.616  -8.108  34.490  1.00  0.00     0.042 A 
HETATM   22  C13 UNK     1      29.569  -8.968  33.281  1.00  0.00     0.195 A 
HETATM   23  O3  UNK     1      30.212 -10.006  33.195  1.00  0.00    -0.287 OA
HETATM   24  C17 UNK     1      28.701  -8.505  32.182  1.00  0.00     0.050 A 
HETATM   25  C20 UNK     1      27.990  -7.314  32.335  1.00  0.00     0.089 A 
HETATM   26  C21 UNK     1      28.589  -9.244  31.002  1.00  0.00     0.042 A 
HETATM   27  O2  UNK     1      28.062  -6.549  33.473  1.00  0.00    -0.321 OA
HETATM   28  C22 UNK     1      27.162  -6.857  31.309  1.00  0.00     0.040 A 
HETATM   29  C14 UNK     1      28.874  -6.992  34.487  1.00  0.00     0.156 A 
HETATM   30  C24 UNK     1      27.049  -7.593  30.130  1.00  0.00     0.026 A 
HETATM   31  C23 UNK     1      27.761  -8.784  29.977  1.00  0.00     0.035 A 
HETATM   32 Cl1  UNK     1      27.616  -9.688  28.519  1.00  0.00    -0.084 Cl
ENDBRANCH   9  21
TORSDOF 1
ENDMDL
MODEL 8
REMARK VINA RESULT:      -8.3      2.912      6.786
REMARK  1 active torsions:
REMARK  status: ('A' for Active; 'I' for Inactive)
REMARK    1  A    between atoms: C10_16  and  C6_12 
ROOT
HETATM    1  O1  UNK     1      29.411  -9.175  37.927  1.00  0.00    -0.293 OA
HETATM    2  N1  UNK     1      29.780  -5.789  34.518  1.00  0.00    -0.357 N 
HETATM    3  N2  UNK     1      28.381  -8.417  34.096  1.00  0.00    -0.375 N 
HETATM    4  C1  UNK     1      29.321  -5.552  38.229  1.00  0.00    -0.036 C 
HETATM    5  C2  UNK     1      29.943  -5.240  36.859  1.00  0.00     0.067 C 
HETATM    6  C3  UNK     1      29.774  -6.946  38.655  1.00  0.00     0.092 C 
HETATM    7  C4  UNK     1      29.713  -6.306  35.797  1.00  0.00     0.022 C 
HETATM    8  C5  UNK     1      29.507  -7.597  36.137  1.00  0.00     0.037 C 
HETATM    9  C6  UNK     1      29.325  -8.726  35.157  1.00  0.00     0.160 C 
HETATM   10  C7  UNK     1      29.530  -7.995  37.592  1.00  0.00     0.160 C 
HETATM   11  C8  UNK     1      27.781  -5.469  38.170  1.00  0.00     0.015 C 
HETATM   12  C9  UNK     1      29.815  -4.519  39.258  1.00  0.00     0.015 C 
HETATM   13  C11 UNK     1      29.259  -6.250  33.293  1.00  0.00     0.059 A 
HETATM   14  C12 UNK     1      28.549  -7.450  33.118  1.00  0.00     0.055 A 
HETATM   15  C15 UNK     1      29.426  -5.395  32.179  1.00  0.00     0.032 A 
HETATM   16  C16 UNK     1      27.995  -7.724  31.847  1.00  0.00     0.031 A 
HETATM   17  C18 UNK     1      28.886  -5.695  30.929  1.00  0.00     0.002 A 
HETATM   18  C19 UNK     1      28.159  -6.860  30.765  1.00  0.00     0.002 A 
HETATM   19  H12 UNK     1      30.194  -4.863  34.467  1.00  0.00     0.166 HD
HETATM   20  H13 UNK     1      27.702  -9.144  33.889  1.00  0.00     0.160 HD
ENDROOT
BRANCH   9  21
HETATM   21  C10 UNK     1      30.622  -9.223  34.596  1.00  0.00     0.042 A 
HETATM   22  C13 UNK     1      30.587 -10.313  33.588  1.00  0.00     0.195 A 
HETATM   23  O3  UNK     1      29.538 -10.812  33.205  1.00  0.00    -0.287 OA
HETATM   24  C17 UNK     1      31.892 -10.767  33.071  1.00  0.00     0.050 A 
HETATM   25  C20 UNK     1      33.057 -10.162  33.544  1.00  0.00     0.089 A 
HETATM   26  C21 UNK     1      31.965 -11.787  32.120  1.00  0.00     0.042 A 
HETATM   27  O2  UNK     1      33.043  -9.155  34.477  1.00  0.00    -0.321 OA
HETATM   28  C22 UNK     1      34.302 -10.574  33.068  1.00  0.00     0.040 A 
HETATM   29  C14 UNK     1      31.821  -8.744  34.950  1.00  0.00     0.156 A 
HETATM   30  C24 UNK     1      34.378 -11.593  32.119  1.00  0.00     0.026 A 
HETATM   31  C23 UNK     1      33.212 -12.198  31.645  1.00  0.00     0.035 A 
HETATM   32 Cl1  UNK     1      33.313 -13.455  30.474  1.00  0.00    -0.084 Cl
ENDBRANCH   9  21
TORSDOF 1
ENDMDL
MODEL 9
REMARK VINA RESULT:      -8.3      3.352      5.990
REMARK  1 active torsions:
REMARK  status: ('A' for Active; 'I' for Inactive)
REMARK    1  A    between atoms: C10_16  and  C6_12 
ROOT
HETATM    1  O1  UNK     1      33.915 -11.590  30.601  1.00  0.00    -0.293 OA
HETATM    2  N1  UNK     1      34.293  -8.869  34.559  1.00  0.00    -0.357 N 
HETATM    3  N2  UNK     1      31.986 -10.725  34.042  1.00  0.00    -0.375 N 
HETATM    4  C1  UNK     1      36.867 -10.662  32.512  1.00  0.00    -0.036 C 
HETATM    5  C2  UNK     1      36.232  -9.485  33.267  1.00  0.00     0.067 C 
HETATM    6  C3  UNK     1      36.092 -10.873  31.213  1.00  0.00     0.092 C 
HETATM    7  C4  UNK     1      34.727  -9.594  33.467  1.00  0.00     0.022 C 
HETATM    8  C5  UNK     1      33.960 -10.307  32.615  1.00  0.00     0.037 C 
HETATM    9  C6  UNK     1      32.461 -10.426  32.701  1.00  0.00     0.160 C 
HETATM   10  C7  UNK     1      34.600 -10.988  31.430  1.00  0.00     0.160 C 
HETATM   11  C8  UNK     1      36.856 -11.944  33.371  1.00  0.00     0.015 C 
HETATM   12  C9  UNK     1      38.333 -10.323  32.182  1.00  0.00     0.015 C 
HETATM   13  C11 UNK     1      33.137  -8.976  35.356  1.00  0.00     0.059 A 
HETATM   14  C12 UNK     1      32.093  -9.893  35.144  1.00  0.00     0.055 A 
HETATM   15  C15 UNK     1      33.070  -8.124  36.483  1.00  0.00     0.032 A 
HETATM   16  C16 UNK     1      31.048  -9.953  36.094  1.00  0.00     0.031 A 
HETATM   17  C18 UNK     1      32.019  -8.189  37.397  1.00  0.00     0.002 A 
HETATM   18  C19 UNK     1      31.008  -9.114  37.206  1.00  0.00     0.002 A 
HETATM   19  H12 UNK     1      34.976  -8.203  34.912  1.00  0.00     0.166 HD
HETATM   20  H13 UNK     1      31.283 -11.456  34.104  1.00  0.00     0.160 HD
ENDROOT
BRANCH   9  21
HETATM   21  C10 UNK     1      31.749  -9.238  32.131  1.00  0.00     0.042 A 
HETATM   22  C13 UNK     1      30.271  -9.290  32.004  1.00  0.00     0.195 A 
HETATM   23  O3  UNK     1      29.622 -10.268  32.350  1.00  0.00    -0.287 OA
HETATM   24  C17 UNK     1      29.622  -8.094  31.434  1.00  0.00     0.050 A 
HETATM   25  C20 UNK     1      30.412  -7.008  31.056  1.00  0.00     0.089 A 
HETATM   26  C21 UNK     1      28.235  -8.046  31.273  1.00  0.00     0.042 A 
HETATM   27  O2  UNK     1      31.778  -7.002  31.193  1.00  0.00    -0.321 OA
HETATM   28  C22 UNK     1      29.819  -5.867  30.516  1.00  0.00     0.040 A 
HETATM   29  C14 UNK     1      32.369  -8.122  31.723  1.00  0.00     0.156 A 
HETATM   30  C24 UNK     1      28.435  -5.816  30.354  1.00  0.00     0.026 A 
HETATM   31  C23 UNK     1      27.644  -6.902  30.732  1.00  0.00     0.035 A 
HETATM   32 Cl1  UNK     1      25.936  -6.832  30.529  1.00  0.00    -0.084 Cl
ENDBRANCH   9  21
TORSDOF 1
ENDMDL
MODEL 10
REMARK VINA RESULT:      -8.2      1.503      1.760
REMARK  1 active torsions:
REMARK  status: ('A' for Active; 'I' for Inactive)
REMARK    1  A    between atoms: C10_16  and  C6_12 
ROOT
HETATM    1  O1  UNK     1      34.077 -11.275  33.074  1.00  0.00    -0.293 OA
HETATM    2  N1  UNK     1      29.485 -10.490  31.844  1.00  0.00    -0.357 N 
HETATM    3  N2  UNK     1      31.727  -8.607  31.160  1.00  0.00    -0.375 N 
HETATM    4  C1  UNK     1      31.505 -13.638  32.060  1.00  0.00    -0.036 C 
HETATM    5  C2  UNK     1      30.303 -12.711  32.298  1.00  0.00     0.067 C 
HETATM    6  C3  UNK     1      32.654 -13.170  32.949  1.00  0.00     0.092 C 
HETATM    7  C4  UNK     1      30.608 -11.225  32.167  1.00  0.00     0.022 C 
HETATM    8  C5  UNK     1      31.851 -10.746  32.390  1.00  0.00     0.037 C 
HETATM    9  C6  UNK     1      32.233  -9.290  32.338  1.00  0.00     0.160 C 
HETATM   10  C7  UNK     1      32.951 -11.694  32.801  1.00  0.00     0.160 C 
HETATM   11  C8  UNK     1      31.923 -13.634  30.575  1.00  0.00     0.015 C 
HETATM   12  C9  UNK     1      31.119 -15.079  32.442  1.00  0.00     0.015 C 
HETATM   13  C11 UNK     1      29.335  -9.225  31.242  1.00  0.00     0.059 A 
HETATM   14  C12 UNK     1      30.392  -8.380  30.866  1.00  0.00     0.055 A 
HETATM   15  C15 UNK     1      28.010  -8.822  30.953  1.00  0.00     0.032 A 
HETATM   16  C16 UNK     1      30.084  -7.186  30.174  1.00  0.00     0.031 A 
HETATM   17  C18 UNK     1      27.729  -7.631  30.285  1.00  0.00     0.002 A 
HETATM   18  C19 UNK     1      28.772  -6.814  29.885  1.00  0.00     0.002 A 
HETATM   19  H12 UNK     1      28.610 -10.992  31.972  1.00  0.00     0.166 HD
HETATM   20  H13 UNK     1      32.394  -8.012  30.678  1.00  0.00     0.160 HD
ENDROOT
BRANCH   9  21
HETATM   21  C10 UNK     1      31.871  -8.549  33.588  1.00  0.00     0.042 A 
HETATM   22  C13 UNK     1      32.217  -7.108  33.683  1.00  0.00     0.195 A 
HETATM   23  O3  UNK     1      32.784  -6.513  32.776  1.00  0.00    -0.287 OA
HETATM   24  C17 UNK     1      31.840  -6.427  34.936  1.00  0.00     0.050 A 
HETATM   25  C20 UNK     1      31.195  -7.155  35.937  1.00  0.00     0.089 A 
HETATM   26  C21 UNK     1      32.122  -5.072  35.123  1.00  0.00     0.042 A 
HETATM   27  O2  UNK     1      30.893  -8.488  35.806  1.00  0.00    -0.321 OA
HETATM   28  C22 UNK     1      30.829  -6.531  37.130  1.00  0.00     0.040 A 
HETATM   29  C14 UNK     1      31.251  -9.109  34.635  1.00  0.00     0.156 A 
HETATM   30  C24 UNK     1      31.110  -5.178  37.319  1.00  0.00     0.026 A 
HETATM   31  C23 UNK     1      31.755  -4.450  36.318  1.00  0.00     0.035 A 
HETATM   32 Cl1  UNK     1      32.098  -2.781  36.558  1.00  0.00    -0.084 Cl
ENDBRANCH   9  21
TORSDOF 1
ENDMDL
