MODEL 1
REMARK VINA RESULT:      -8.2      0.000      0.000
REMARK  7 active torsions:
REMARK  status: ('A' for Active; 'I' for Inactive)
REMARK    1  A    between atoms: C24_31  and  S1_1 
REMARK    2  A    between atoms: C26_33  and  S1_1 
REMARK    3  A    between atoms: C14_21  and  O3_4 
REMARK    4  A    between atoms: C21_28  and  O3_4 
REMARK    5  A    between atoms: C12_19  and  C6_13 
REMARK    6  A    between atoms: C10_17  and  C14_21 
REMARK    7  A    between atoms: C21_28  and  C24_31 
ROOT
HETATM    1  O1  UNK     1      29.580  -9.796  35.739  1.00  0.00    -0.293 OA
HETATM    2  N1  UNK     1      30.067  -5.450  37.549  1.00  0.00    -0.362 N 
HETATM    3  C1  UNK     1      27.885  -8.343  38.631  1.00  0.00    -0.036 C 
HETATM    4  C2  UNK     1      28.828  -7.139  38.832  1.00  0.00     0.067 C 
HETATM    5  C3  UNK     1      28.648  -9.465  37.912  1.00  0.00     0.092 C 
HETATM    6  C4  UNK     1      29.576  -6.740  37.585  1.00  0.00     0.021 C 
HETATM    7  C5  UNK     1      29.781  -7.575  36.545  1.00  0.00     0.024 C 
HETATM    8  C6  UNK     1      30.503  -7.103  35.289  1.00  0.00     0.104 C 
HETATM    9  C7  UNK     1      29.337  -8.999  36.644  1.00  0.00     0.159 C 
HETATM   10  C8  UNK     1      27.413  -8.850  40.005  1.00  0.00     0.015 C 
HETATM   11  C9  UNK     1      26.639  -7.933  37.819  1.00  0.00     0.015 C 
HETATM   12  C10 UNK     1      31.114  -5.708  35.443  1.00  0.00     0.052 C 
HETATM   13  C11 UNK     1      30.863  -4.945  36.532  1.00  0.00     0.018 C 
HETATM   14  C13 UNK     1      31.391  -3.559  36.793  1.00  0.00     0.069 C 
HETATM   15  H12 UNK     1      29.901  -4.859  38.356  1.00  0.00     0.165 HD
ENDROOT
BRANCH   8  16
HETATM   16  C12 UNK     1      29.567  -7.134  34.110  1.00  0.00     0.029 A 
HETATM   17  C15 UNK     1      29.855  -8.081  33.003  1.00  0.00     0.194 A 
HETATM   18  O5  UNK     1      30.823  -8.831  33.022  1.00  0.00    -0.287 OA
HETATM   19  C17 UNK     1      28.908  -8.072  31.873  1.00  0.00     0.049 A 
HETATM   20  C18 UNK     1      27.821  -7.197  31.905  1.00  0.00     0.089 A 
HETATM   21  C19 UNK     1      29.092  -8.926  30.782  1.00  0.00     0.025 A 
HETATM   22  O2  UNK     1      27.592  -6.339  32.949  1.00  0.00    -0.321 OA
HETATM   23  C20 UNK     1      26.913  -7.173  30.846  1.00  0.00     0.039 A 
HETATM   24  C16 UNK     1      28.482  -6.358  33.995  1.00  0.00     0.154 A 
HETATM   25  C23 UNK     1      27.094  -8.023  29.756  1.00  0.00     0.009 A 
HETATM   26  C22 UNK     1      28.181  -8.898  29.724  1.00  0.00    -0.061 A 
HETATM   27  C25 UNK     1      28.370  -9.806  28.556  1.00  0.00     0.048 C 
ENDBRANCH   8  16
BRANCH  12  28
HETATM   28  C14 UNK     1      31.994  -5.264  34.348  1.00  0.00     0.292 C 
HETATM   29  O4  UNK     1      31.658  -4.446  33.511  1.00  0.00    -0.259 OA
BRANCH  28  30
HETATM   30  O3  UNK     1      33.177  -5.914  34.459  1.00  0.00    -0.317 OA
BRANCH  30  31
HETATM   31  C21 UNK     1      34.282  -5.096  34.856  1.00  0.00     0.189 C 
BRANCH  31  32
HETATM   32  C24 UNK     1      35.176  -5.859  35.822  1.00  0.00     0.100 C 
BRANCH  32  33
HETATM   33  S1  UNK     1      34.396  -6.027  37.457  1.00  0.00    -0.167 SA
BRANCH  33  34
HETATM   34  C26 UNK     1      33.677  -7.670  37.234  1.00  0.00     0.069 C 
HETATM   35  C27 UNK     1      32.648  -7.952  38.312  1.00  0.00     0.016 C 
ENDBRANCH  33  34
ENDBRANCH  32  33
ENDBRANCH  31  32
ENDBRANCH  30  31
ENDBRANCH  28  30
ENDBRANCH  12  28
TORSDOF 7
ENDMDL
MODEL 2
REMARK VINA RESULT:      -8.0      1.882      5.042
REMARK  7 active torsions:
REMARK  status: ('A' for Active; 'I' for Inactive)
REMARK    1  A    between atoms: C24_31  and  S1_1 
REMARK    2  A    between atoms: C26_33  and  S1_1 
REMARK    3  A    between atoms: C14_21  and  O3_4 
REMARK    4  A    between atoms: C21_28  and  O3_4 
REMARK    5  A    between atoms: C12_19  and  C6_13 
REMARK    6  A    between atoms: C10_17  and  C14_21 
REMARK    7  A    between atoms: C21_28  and  C24_31 
ROOT
HETATM    1  O1  UNK     1      31.868  -5.259  33.913  1.00  0.00    -0.293 OA
HETATM    2  N1  UNK     1      32.484  -8.852  36.932  1.00  0.00    -0.362 N 
HETATM    3  C1  UNK     1      34.920  -7.147  34.595  1.00  0.00    -0.036 C 
HETATM    4  C2  UNK     1      34.459  -7.806  35.912  1.00  0.00     0.067 C 
HETATM    5  C3  UNK     1      34.134  -5.845  34.382  1.00  0.00     0.092 C 
HETATM    6  C4  UNK     1      32.960  -7.905  36.046  1.00  0.00     0.021 C 
HETATM    7  C5  UNK     1      32.101  -7.122  35.362  1.00  0.00     0.024 C 
HETATM    8  C6  UNK     1      30.594  -7.298  35.502  1.00  0.00     0.104 C 
HETATM    9  C7  UNK     1      32.634  -6.032  34.488  1.00  0.00     0.159 C 
HETATM   10  C8  UNK     1      36.422  -6.824  34.691  1.00  0.00     0.015 C 
HETATM   11  C9  UNK     1      34.713  -8.104  33.402  1.00  0.00     0.015 C 
HETATM   12  C10 UNK     1      30.211  -8.277  36.615  1.00  0.00     0.052 C 
HETATM   13  C11 UNK     1      31.147  -9.013  37.259  1.00  0.00     0.018 C 
HETATM   14  C13 UNK     1      30.896 -10.013  38.357  1.00  0.00     0.069 C 
HETATM   15  H12 UNK     1      33.163  -9.411  37.435  1.00  0.00     0.165 HD
ENDROOT
BRANCH   8  16
HETATM   16  C12 UNK     1      30.000  -7.743  34.191  1.00  0.00     0.029 A 
HETATM   17  C15 UNK     1      28.917  -6.922  33.591  1.00  0.00     0.194 A 
HETATM   18  O5  UNK     1      28.498  -5.904  34.128  1.00  0.00    -0.287 OA
HETATM   19  C17 UNK     1      28.369  -7.401  32.309  1.00  0.00     0.049 A 
HETATM   20  C18 UNK     1      28.886  -8.567  31.743  1.00  0.00     0.089 A 
HETATM   21  C19 UNK     1      27.347  -6.699  31.664  1.00  0.00     0.025 A 
HETATM   22  O2  UNK     1      29.889  -9.295  32.332  1.00  0.00    -0.321 OA
HETATM   23  C20 UNK     1      28.383  -9.037  30.530  1.00  0.00     0.039 A 
HETATM   24  C16 UNK     1      30.389  -8.837  33.526  1.00  0.00     0.154 A 
HETATM   25  C23 UNK     1      27.363  -8.339  29.885  1.00  0.00     0.009 A 
HETATM   26  C22 UNK     1      26.846  -7.173  30.451  1.00  0.00    -0.061 A 
HETATM   27  C25 UNK     1      25.755  -6.430  29.756  1.00  0.00     0.048 C 
ENDBRANCH   8  16
BRANCH  12  28
HETATM   28  C14 UNK     1      28.777  -8.350  36.944  1.00  0.00     0.292 C 
HETATM   29  O4  UNK     1      28.139  -9.386  36.921  1.00  0.00    -0.259 OA
BRANCH  28  30
HETATM   30  O3  UNK     1      28.345  -7.105  37.257  1.00  0.00    -0.317 OA
BRANCH  30  31
HETATM   31  C21 UNK     1      28.583  -6.703  38.610  1.00  0.00     0.189 C 
BRANCH  31  32
HETATM   32  C24 UNK     1      28.533  -5.187  38.720  1.00  0.00     0.100 C 
BRANCH  32  33
HETATM   33  S1  UNK     1      30.020  -4.419  38.007  1.00  0.00    -0.167 SA
BRANCH  33  34
HETATM   34  C26 UNK     1      31.252  -5.540  38.707  1.00  0.00     0.069 C 
HETATM   35  C27 UNK     1      32.652  -5.097  38.328  1.00  0.00     0.016 C 
ENDBRANCH  33  34
ENDBRANCH  32  33
ENDBRANCH  31  32
ENDBRANCH  30  31
ENDBRANCH  28  30
ENDBRANCH  12  28
TORSDOF 7
ENDMDL
MODEL 3
REMARK VINA RESULT:      -7.9      1.024      1.618
REMARK  7 active torsions:
REMARK  status: ('A' for Active; 'I' for Inactive)
REMARK    1  A    between atoms: C24_31  and  S1_1 
REMARK    2  A    between atoms: C26_33  and  S1_1 
REMARK    3  A    between atoms: C14_21  and  O3_4 
REMARK    4  A    between atoms: C21_28  and  O3_4 
REMARK    5  A    between atoms: C12_19  and  C6_13 
REMARK    6  A    between atoms: C10_17  and  C14_21 
REMARK    7  A    between atoms: C21_28  and  C24_31 
ROOT
HETATM    1  O1  UNK     1      29.719  -9.802  35.867  1.00  0.00    -0.293 OA
HETATM    2  N1  UNK     1      30.136  -5.456  37.695  1.00  0.00    -0.362 N 
HETATM    3  C1  UNK     1      27.975  -8.377  38.743  1.00  0.00    -0.036 C 
HETATM    4  C2  UNK     1      28.902  -7.162  38.959  1.00  0.00     0.067 C 
HETATM    5  C3  UNK     1      28.759  -9.488  38.030  1.00  0.00     0.092 C 
HETATM    6  C4  UNK     1      29.659  -6.752  37.721  1.00  0.00     0.021 C 
HETATM    7  C5  UNK     1      29.885  -7.581  36.682  1.00  0.00     0.024 C 
HETATM    8  C6  UNK     1      30.616  -7.097  35.435  1.00  0.00     0.104 C 
HETATM    9  C7  UNK     1      29.456  -9.010  36.772  1.00  0.00     0.159 C 
HETATM   10  C8  UNK     1      27.493  -8.893  40.110  1.00  0.00     0.015 C 
HETATM   11  C9  UNK     1      26.733  -7.978  37.918  1.00  0.00     0.015 C 
HETATM   12  C10 UNK     1      31.210  -5.695  35.600  1.00  0.00     0.052 C 
HETATM   13  C11 UNK     1      30.937  -4.939  36.689  1.00  0.00     0.018 C 
HETATM   14  C13 UNK     1      31.447  -3.548  36.959  1.00  0.00     0.069 C 
HETATM   15  H12 UNK     1      29.954  -4.869  38.501  1.00  0.00     0.165 HD
ENDROOT
BRANCH   8  16
HETATM   16  C12 UNK     1      29.694  -7.136  34.245  1.00  0.00     0.029 A 
HETATM   17  C15 UNK     1      30.024  -8.052  33.124  1.00  0.00     0.194 A 
HETATM   18  O5  UNK     1      31.015  -8.770  33.140  1.00  0.00    -0.287 OA
HETATM   19  C17 UNK     1      29.089  -8.051  31.984  1.00  0.00     0.049 A 
HETATM   20  C18 UNK     1      27.975  -7.212  32.020  1.00  0.00     0.089 A 
HETATM   21  C19 UNK     1      29.311  -8.878  30.879  1.00  0.00     0.025 A 
HETATM   22  O2  UNK     1      27.707  -6.381  33.078  1.00  0.00    -0.321 OA
HETATM   23  C20 UNK     1      27.077  -7.196  30.952  1.00  0.00     0.039 A 
HETATM   24  C16 UNK     1      28.586  -6.392  34.133  1.00  0.00     0.154 A 
HETATM   25  C23 UNK     1      27.297  -8.020  29.849  1.00  0.00     0.009 A 
HETATM   26  C22 UNK     1      28.412  -8.859  29.813  1.00  0.00    -0.061 A 
HETATM   27  C25 UNK     1      28.642  -9.738  28.630  1.00  0.00     0.048 C 
ENDBRANCH   8  16
BRANCH  12  28
HETATM   28  C14 UNK     1      32.096  -5.239  34.516  1.00  0.00     0.292 C 
HETATM   29  O4  UNK     1      31.770  -4.401  33.695  1.00  0.00    -0.259 OA
BRANCH  28  30
HETATM   30  O3  UNK     1      33.273  -5.901  34.618  1.00  0.00    -0.317 OA
BRANCH  30  31
HETATM   31  C21 UNK     1      34.331  -5.166  35.243  1.00  0.00     0.189 C 
BRANCH  31  32
HETATM   32  C24 UNK     1      35.491  -6.095  35.565  1.00  0.00     0.100 C 
BRANCH  32  33
HETATM   33  S1  UNK     1      35.438  -7.602  34.547  1.00  0.00    -0.167 SA
BRANCH  33  34
HETATM   34  C26 UNK     1      36.538  -7.059  33.222  1.00  0.00     0.069 C 
HETATM   35  C27 UNK     1      35.736  -6.537  32.044  1.00  0.00     0.016 C 
ENDBRANCH  33  34
ENDBRANCH  32  33
ENDBRANCH  31  32
ENDBRANCH  30  31
ENDBRANCH  28  30
ENDBRANCH  12  28
TORSDOF 7
ENDMDL
MODEL 4
REMARK VINA RESULT:      -7.7      3.564      7.529
REMARK  7 active torsions:
REMARK  status: ('A' for Active; 'I' for Inactive)
REMARK    1  A    between atoms: C24_31  and  S1_1 
REMARK    2  A    between atoms: C26_33  and  S1_1 
REMARK    3  A    between atoms: C14_21  and  O3_4 
REMARK    4  A    between atoms: C21_28  and  O3_4 
REMARK    5  A    between atoms: C12_19  and  C6_13 
REMARK    6  A    between atoms: C10_17  and  C14_21 
REMARK    7  A    between atoms: C21_28  and  C24_31 
ROOT
HETATM    1  O1  UNK     1      33.036  -9.648  34.537  1.00  0.00    -0.293 OA
HETATM    2  N1  UNK     1      33.254  -7.440  30.356  1.00  0.00    -0.362 N 
HETATM    3  C1  UNK     1      35.992  -8.875  32.534  1.00  0.00    -0.036 C 
HETATM    4  C2  UNK     1      35.263  -8.566  31.210  1.00  0.00     0.067 C 
HETATM    5  C3  UNK     1      35.120  -9.811  33.383  1.00  0.00     0.092 C 
HETATM    6  C4  UNK     1      33.825  -8.150  31.394  1.00  0.00     0.021 C 
HETATM    7  C5  UNK     1      33.103  -8.445  32.494  1.00  0.00     0.024 C 
HETATM    8  C6  UNK     1      31.667  -7.957  32.647  1.00  0.00     0.104 C 
HETATM    9  C7  UNK     1      33.702  -9.305  33.560  1.00  0.00     0.159 C 
HETATM   10  C8  UNK     1      37.329  -9.570  32.224  1.00  0.00     0.015 C 
HETATM   11  C9  UNK     1      36.298  -7.575  33.307  1.00  0.00     0.015 C 
HETATM   12  C10 UNK     1      31.120  -7.311  31.370  1.00  0.00     0.052 C 
HETATM   13  C11 UNK     1      31.920  -7.065  30.307  1.00  0.00     0.018 C 
HETATM   14  C13 UNK     1      31.506  -6.428  29.007  1.00  0.00     0.069 C 
HETATM   15  H12 UNK     1      33.828  -7.250  29.542  1.00  0.00     0.165 HD
ENDROOT
BRANCH   8  16
HETATM   16  C12 UNK     1      31.566  -6.995  33.801  1.00  0.00     0.029 A 
HETATM   17  C15 UNK     1      30.577  -7.278  34.872  1.00  0.00     0.194 A 
HETATM   18  O5  UNK     1      29.849  -8.262  34.843  1.00  0.00    -0.287 OA
HETATM   19  C17 UNK     1      30.518  -6.306  35.979  1.00  0.00     0.049 A 
HETATM   20  C18 UNK     1      31.373  -5.203  35.960  1.00  0.00     0.089 A 
HETATM   21  C19 UNK     1      29.620  -6.482  37.035  1.00  0.00     0.025 A 
HETATM   22  O2  UNK     1      32.273  -4.981  34.950  1.00  0.00    -0.321 OA
HETATM   23  C20 UNK     1      31.334  -4.271  36.998  1.00  0.00     0.039 A 
HETATM   24  C16 UNK     1      32.318  -5.895  33.926  1.00  0.00     0.154 A 
HETATM   25  C23 UNK     1      30.438  -4.445  38.053  1.00  0.00     0.009 A 
HETATM   26  C22 UNK     1      29.583  -5.548  38.072  1.00  0.00    -0.061 A 
HETATM   27  C25 UNK     1      28.628  -5.728  39.203  1.00  0.00     0.048 C 
ENDBRANCH   8  16
BRANCH  12  28
HETATM   28  C14 UNK     1      29.682  -6.994  31.374  1.00  0.00     0.292 C 
HETATM   29  O4  UNK     1      29.244  -5.880  31.592  1.00  0.00    -0.259 OA
BRANCH  28  30
HETATM   30  O3  UNK     1      28.993  -8.128  31.100  1.00  0.00    -0.317 OA
BRANCH  30  31
HETATM   31  C21 UNK     1      28.112  -8.045  29.975  1.00  0.00     0.189 C 
BRANCH  31  32
HETATM   32  C24 UNK     1      28.103  -9.366  29.222  1.00  0.00     0.100 C 
BRANCH  32  33
HETATM   33  S1  UNK     1      29.669  -9.636  28.336  1.00  0.00    -0.167 SA
BRANCH  33  34
HETATM   34  C26 UNK     1      30.207 -11.125  29.207  1.00  0.00     0.069 C 
HETATM   35  C27 UNK     1      31.343 -10.804  30.160  1.00  0.00     0.016 C 
ENDBRANCH  33  34
ENDBRANCH  32  33
ENDBRANCH  31  32
ENDBRANCH  30  31
ENDBRANCH  28  30
ENDBRANCH  12  28
TORSDOF 7
ENDMDL
MODEL 5
REMARK VINA RESULT:      -7.7      2.552      3.613
REMARK  7 active torsions:
REMARK  status: ('A' for Active; 'I' for Inactive)
REMARK    1  A    between atoms: C24_31  and  S1_1 
REMARK    2  A    between atoms: C26_33  and  S1_1 
REMARK    3  A    between atoms: C14_21  and  O3_4 
REMARK    4  A    between atoms: C21_28  and  O3_4 
REMARK    5  A    between atoms: C12_19  and  C6_13 
REMARK    6  A    between atoms: C10_17  and  C14_21 
REMARK    7  A    between atoms: C21_28  and  C24_31 
ROOT
HETATM    1  O1  UNK     1      30.835 -10.066  38.212  1.00  0.00    -0.293 OA
HETATM    2  N1  UNK     1      28.677  -5.973  39.210  1.00  0.00    -0.362 N 
HETATM    3  C1  UNK     1      27.346  -9.512  39.141  1.00  0.00    -0.036 C 
HETATM    4  C2  UNK     1      27.509  -8.080  39.690  1.00  0.00     0.067 C 
HETATM    5  C3  UNK     1      28.690 -10.247  39.244  1.00  0.00     0.092 C 
HETATM    6  C4  UNK     1      28.708  -7.352  39.136  1.00  0.00     0.021 C 
HETATM    7  C5  UNK     1      29.774  -7.981  38.601  1.00  0.00     0.024 C 
HETATM    8  C6  UNK     1      30.939  -7.193  38.013  1.00  0.00     0.104 C 
HETATM    9  C7  UNK     1      29.840  -9.475  38.627  1.00  0.00     0.159 C 
HETATM   10  C8  UNK     1      26.294 -10.258  39.980  1.00  0.00     0.015 C 
HETATM   11  C9  UNK     1      26.857  -9.485  37.677  1.00  0.00     0.015 C 
HETATM   12  C10 UNK     1      30.839  -5.690  38.288  1.00  0.00     0.052 C 
HETATM   13  C11 UNK     1      29.730  -5.148  38.845  1.00  0.00     0.018 C 
HETATM   14  C13 UNK     1      29.507  -3.691  39.153  1.00  0.00     0.069 C 
HETATM   15  H12 UNK     1      27.863  -5.541  39.630  1.00  0.00     0.165 HD
ENDROOT
BRANCH   8  16
HETATM   16  C12 UNK     1      31.040  -7.445  36.531  1.00  0.00     0.029 A 
HETATM   17  C15 UNK     1      32.293  -8.036  35.998  1.00  0.00     0.194 A 
HETATM   18  O5  UNK     1      33.238  -8.321  36.723  1.00  0.00    -0.287 OA
HETATM   19  C17 UNK     1      32.341  -8.262  34.542  1.00  0.00     0.049 A 
HETATM   20  C18 UNK     1      31.234  -7.918  33.765  1.00  0.00     0.089 A 
HETATM   21  C19 UNK     1      33.477  -8.813  33.943  1.00  0.00     0.025 A 
HETATM   22  O2  UNK     1      30.094  -7.374  34.300  1.00  0.00    -0.321 OA
HETATM   23  C20 UNK     1      31.258  -8.124  32.385  1.00  0.00     0.039 A 
HETATM   24  C16 UNK     1      30.063  -7.170  35.657  1.00  0.00     0.154 A 
HETATM   25  C23 UNK     1      32.390  -8.673  31.786  1.00  0.00     0.009 A 
HETATM   26  C22 UNK     1      33.498  -9.017  32.563  1.00  0.00    -0.061 A 
HETATM   27  C25 UNK     1      34.706  -9.605  31.915  1.00  0.00     0.048 C 
ENDBRANCH   8  16
BRANCH  12  28
HETATM   28  C14 UNK     1      32.020  -4.888  37.926  1.00  0.00     0.292 C 
HETATM   29  O4  UNK     1      33.103  -5.012  38.467  1.00  0.00    -0.259 OA
BRANCH  28  30
HETATM   30  O3  UNK     1      31.672  -4.039  36.929  1.00  0.00    -0.317 OA
BRANCH  30  31
HETATM   31  C21 UNK     1      32.750  -3.616  36.090  1.00  0.00     0.189 C 
BRANCH  31  32
HETATM   32  C24 UNK     1      32.884  -4.555  34.901  1.00  0.00     0.100 C 
BRANCH  32  33
HETATM   33  S1  UNK     1      34.614  -4.692  34.354  1.00  0.00    -0.167 SA
BRANCH  33  34
HETATM   34  C26 UNK     1      35.231  -5.724  35.702  1.00  0.00     0.069 C 
HETATM   35  C27 UNK     1      36.205  -6.762  35.177  1.00  0.00     0.016 C 
ENDBRANCH  33  34
ENDBRANCH  32  33
ENDBRANCH  31  32
ENDBRANCH  30  31
ENDBRANCH  28  30
ENDBRANCH  12  28
TORSDOF 7
ENDMDL
MODEL 6
REMARK VINA RESULT:      -7.7      1.500      2.502
REMARK  7 active torsions:
REMARK  status: ('A' for Active; 'I' for Inactive)
REMARK    1  A    between atoms: C24_31  and  S1_1 
REMARK    2  A    between atoms: C26_33  and  S1_1 
REMARK    3  A    between atoms: C14_21  and  O3_4 
REMARK    4  A    between atoms: C21_28  and  O3_4 
REMARK    5  A    between atoms: C12_19  and  C6_13 
REMARK    6  A    between atoms: C10_17  and  C14_21 
REMARK    7  A    between atoms: C21_28  and  C24_31 
ROOT
HETATM    1  O1  UNK     1      30.967  -9.795  36.820  1.00  0.00    -0.293 OA
HETATM    2  N1  UNK     1      29.737  -5.360  37.927  1.00  0.00    -0.362 N 
HETATM    3  C1  UNK     1      28.016  -8.650  38.644  1.00  0.00    -0.036 C 
HETATM    4  C2  UNK     1      28.514  -7.224  38.958  1.00  0.00     0.067 C 
HETATM    5  C3  UNK     1      29.226  -9.573  38.438  1.00  0.00     0.092 C 
HETATM    6  C4  UNK     1      29.572  -6.730  38.004  1.00  0.00     0.021 C 
HETATM    7  C5  UNK     1      30.341  -7.550  37.260  1.00  0.00     0.024 C 
HETATM    8  C6  UNK     1      31.364  -6.993  36.276  1.00  0.00     0.104 C 
HETATM    9  C7  UNK     1      30.224  -9.031  37.434  1.00  0.00     0.159 C 
HETATM   10  C8  UNK     1      27.180  -9.166  39.828  1.00  0.00     0.015 C 
HETATM   11  C9  UNK     1      27.117  -8.653  37.389  1.00  0.00     0.015 C 
HETATM   12  C10 UNK     1      31.540  -5.476  36.398  1.00  0.00     0.052 C 
HETATM   13  C11 UNK     1      30.726  -4.734  37.184  1.00  0.00     0.018 C 
HETATM   14  C13 UNK     1      30.790  -3.241  37.377  1.00  0.00     0.069 C 
HETATM   15  H12 UNK     1      29.147  -4.780  38.512  1.00  0.00     0.165 HD
ENDROOT
BRANCH   8  16
HETATM   16  C12 UNK     1      30.983  -7.361  34.867  1.00  0.00     0.029 A 
HETATM   17  C15 UNK     1      29.653  -6.936  34.359  1.00  0.00     0.194 A 
HETATM   18  O5  UNK     1      28.866  -6.299  35.048  1.00  0.00    -0.287 OA
HETATM   19  C17 UNK     1      29.329  -7.323  32.974  1.00  0.00     0.049 A 
HETATM   20  C18 UNK     1      30.265  -8.048  32.235  1.00  0.00     0.089 A 
HETATM   21  C19 UNK     1      28.103  -6.971  32.404  1.00  0.00     0.025 A 
HETATM   22  O2  UNK     1      31.483  -8.419  32.744  1.00  0.00    -0.321 OA
HETATM   23  C20 UNK     1      29.979  -8.423  30.922  1.00  0.00     0.039 A 
HETATM   24  C16 UNK     1      31.772  -8.052  34.035  1.00  0.00     0.154 A 
HETATM   25  C23 UNK     1      28.756  -8.073  30.351  1.00  0.00     0.009 A 
HETATM   26  C22 UNK     1      27.820  -7.348  31.090  1.00  0.00    -0.061 A 
HETATM   27  C25 UNK     1      26.514  -6.976  30.474  1.00  0.00     0.048 C 
ENDBRANCH   8  16
BRANCH  12  28
HETATM   28  C14 UNK     1      32.648  -4.892  35.623  1.00  0.00     0.292 C 
HETATM   29  O4  UNK     1      32.502  -4.392  34.523  1.00  0.00    -0.259 OA
BRANCH  28  30
HETATM   30  O3  UNK     1      33.788  -5.018  36.344  1.00  0.00    -0.317 OA
BRANCH  30  31
HETATM   31  C21 UNK     1      34.948  -5.376  35.587  1.00  0.00     0.189 C 
BRANCH  31  32
HETATM   32  C24 UNK     1      35.155  -6.882  35.631  1.00  0.00     0.100 C 
BRANCH  32  33
HETATM   33  S1  UNK     1      36.064  -7.471  34.169  1.00  0.00    -0.167 SA
BRANCH  33  34
HETATM   34  C26 UNK     1      35.127  -6.583  32.906  1.00  0.00     0.069 C 
HETATM   35  C27 UNK     1      34.917  -7.458  31.684  1.00  0.00     0.016 C 
ENDBRANCH  33  34
ENDBRANCH  32  33
ENDBRANCH  31  32
ENDBRANCH  30  31
ENDBRANCH  28  30
ENDBRANCH  12  28
TORSDOF 7
ENDMDL
MODEL 7
REMARK VINA RESULT:      -7.6      2.535      5.685
REMARK  7 active torsions:
REMARK  status: ('A' for Active; 'I' for Inactive)
REMARK    1  A    between atoms: C24_31  and  S1_1 
REMARK    2  A    between atoms: C26_33  and  S1_1 
REMARK    3  A    between atoms: C14_21  and  O3_4 
REMARK    4  A    between atoms: C21_28  and  O3_4 
REMARK    5  A    between atoms: C12_19  and  C6_13 
REMARK    6  A    between atoms: C10_17  and  C14_21 
REMARK    7  A    between atoms: C21_28  and  C24_31 
ROOT
HETATM    1  O1  UNK     1      29.830  -9.712  31.690  1.00  0.00    -0.293 OA
HETATM    2  N1  UNK     1      28.230  -6.479  34.754  1.00  0.00    -0.362 N 
HETATM    3  C1  UNK     1      27.718  -6.807  31.022  1.00  0.00    -0.036 C 
HETATM    4  C2  UNK     1      27.304  -6.520  32.480  1.00  0.00     0.067 C 
HETATM    5  C3  UNK     1      28.088  -8.291  30.886  1.00  0.00     0.092 C 
HETATM    6  C4  UNK     1      28.272  -7.060  33.501  1.00  0.00     0.021 C 
HETATM    7  C5  UNK     1      29.140  -8.060  33.245  1.00  0.00     0.024 C 
HETATM    8  C6  UNK     1      30.130  -8.533  34.303  1.00  0.00     0.104 C 
HETATM    9  C7  UNK     1      29.099  -8.750  31.919  1.00  0.00     0.159 C 
HETATM   10  C8  UNK     1      26.536  -6.491  30.088  1.00  0.00     0.015 C 
HETATM   11  C9  UNK     1      28.907  -5.915  30.605  1.00  0.00     0.015 C 
HETATM   12  C10 UNK     1      29.877  -7.906  35.676  1.00  0.00     0.052 C 
HETATM   13  C11 UNK     1      28.972  -6.913  35.841  1.00  0.00     0.018 C 
HETATM   14  C13 UNK     1      28.644  -6.211  37.132  1.00  0.00     0.069 C 
HETATM   15  H12 UNK     1      27.555  -5.738  34.908  1.00  0.00     0.165 HD
ENDROOT
BRANCH   8  16
HETATM   16  C12 UNK     1      31.540  -8.255  33.854  1.00  0.00     0.029 A 
HETATM   17  C15 UNK     1      32.525  -9.366  33.885  1.00  0.00     0.194 A 
HETATM   18  O5  UNK     1      32.224 -10.492  34.261  1.00  0.00    -0.287 OA
HETATM   19  C17 UNK     1      33.891  -9.040  33.437  1.00  0.00     0.049 A 
HETATM   20  C18 UNK     1      34.176  -7.740  33.019  1.00  0.00     0.089 A 
HETATM   21  C19 UNK     1      34.891 -10.017  33.429  1.00  0.00     0.025 A 
HETATM   22  O2  UNK     1      33.235  -6.742  33.006  1.00  0.00    -0.321 OA
HETATM   23  C20 UNK     1      35.463  -7.410  32.590  1.00  0.00     0.039 A 
HETATM   24  C16 UNK     1      31.966  -7.060  33.425  1.00  0.00     0.154 A 
HETATM   25  C23 UNK     1      36.461  -8.383  32.582  1.00  0.00     0.009 A 
HETATM   26  C22 UNK     1      36.176  -9.683  33.000  1.00  0.00    -0.061 A 
HETATM   27  C25 UNK     1      37.249 -10.720  32.989  1.00  0.00     0.048 C 
ENDBRANCH   8  16
BRANCH  12  28
HETATM   28  C14 UNK     1      30.662  -8.460  36.792  1.00  0.00     0.292 C 
HETATM   29  O4  UNK     1      30.437  -9.546  37.293  1.00  0.00    -0.259 OA
BRANCH  28  30
HETATM   30  O3  UNK     1      31.625  -7.566  37.123  1.00  0.00    -0.317 OA
BRANCH  30  31
HETATM   31  C21 UNK     1      32.912  -8.133  37.391  1.00  0.00     0.189 C 
BRANCH  31  32
HETATM   32  C24 UNK     1      34.000  -7.276  36.762  1.00  0.00     0.100 C 
BRANCH  32  33
HETATM   33  S1  UNK     1      33.460  -5.549  36.574  1.00  0.00    -0.167 SA
BRANCH  33  34
HETATM   34  C26 UNK     1      34.830  -4.959  35.555  1.00  0.00     0.069 C 
HETATM   35  C27 UNK     1      34.383  -3.805  34.677  1.00  0.00     0.016 C 
ENDBRANCH  33  34
ENDBRANCH  32  33
ENDBRANCH  31  32
ENDBRANCH  30  31
ENDBRANCH  28  30
ENDBRANCH  12  28
TORSDOF 7
ENDMDL
MODEL 8
REMARK VINA RESULT:      -7.5      2.982      6.695
REMARK  7 active torsions:
REMARK  status: ('A' for Active; 'I' for Inactive)
REMARK    1  A    between atoms: C24_31  and  S1_1 
REMARK    2  A    between atoms: C26_33  and  S1_1 
REMARK    3  A    between atoms: C14_21  and  O3_4 
REMARK    4  A    between atoms: C21_28  and  O3_4 
REMARK    5  A    between atoms: C12_19  and  C6_13 
REMARK    6  A    between atoms: C10_17  and  C14_21 
REMARK    7  A    between atoms: C21_28  and  C24_31 
ROOT
HETATM    1  O1  UNK     1      30.405  -4.232  31.803  1.00  0.00    -0.293 OA
HETATM    2  N1  UNK     1      30.679  -8.957  31.889  1.00  0.00    -0.362 N 
HETATM    3  C1  UNK     1      27.812  -6.668  30.971  1.00  0.00    -0.036 C 
HETATM    4  C2  UNK     1      28.731  -7.900  30.831  1.00  0.00     0.067 C 
HETATM    5  C3  UNK     1      28.631  -5.396  30.708  1.00  0.00     0.092 C 
HETATM    6  C4  UNK     1      30.028  -7.776  31.590  1.00  0.00     0.021 C 
HETATM    7  C5  UNK     1      30.559  -6.594  31.962  1.00  0.00     0.024 C 
HETATM    8  C6  UNK     1      31.851  -6.531  32.769  1.00  0.00     0.104 C 
HETATM    9  C7  UNK     1      29.898  -5.322  31.537  1.00  0.00     0.159 C 
HETATM   10  C8  UNK     1      26.677  -6.764  29.937  1.00  0.00     0.015 C 
HETATM   11  C9  UNK     1      27.175  -6.617  32.376  1.00  0.00     0.015 C 
HETATM   12  C10 UNK     1      32.534  -7.894  32.905  1.00  0.00     0.052 C 
HETATM   13  C11 UNK     1      31.927  -9.030  32.487  1.00  0.00     0.018 C 
HETATM   14  C13 UNK     1      32.487 -10.426  32.577  1.00  0.00     0.069 C 
HETATM   15  H12 UNK     1      30.252  -9.823  31.580  1.00  0.00     0.165 HD
ENDROOT
BRANCH   8  16
HETATM   16  C12 UNK     1      31.584  -5.944  34.130  1.00  0.00     0.029 A 
HETATM   17  C15 UNK     1      30.574  -6.601  34.998  1.00  0.00     0.194 A 
HETATM   18  O5  UNK     1      29.958  -7.597  34.641  1.00  0.00    -0.287 OA
HETATM   19  C17 UNK     1      30.350  -5.987  36.319  1.00  0.00     0.049 A 
HETATM   20  C18 UNK     1      31.081  -4.853  36.673  1.00  0.00     0.089 A 
HETATM   21  C19 UNK     1      29.419  -6.530  37.210  1.00  0.00     0.025 A 
HETATM   22  O2  UNK     1      32.007  -4.278  35.840  1.00  0.00    -0.321 OA
HETATM   23  C20 UNK     1      30.885  -4.256  37.920  1.00  0.00     0.039 A 
HETATM   24  C16 UNK     1      32.205  -4.861  34.613  1.00  0.00     0.154 A 
HETATM   25  C23 UNK     1      29.957  -4.796  38.809  1.00  0.00     0.009 A 
HETATM   26  C22 UNK     1      29.226  -5.931  38.455  1.00  0.00    -0.061 A 
HETATM   27  C25 UNK     1      28.235  -6.504  39.411  1.00  0.00     0.048 C 
ENDBRANCH   8  16
BRANCH  12  28
HETATM   28  C14 UNK     1      33.881  -7.884  33.498  1.00  0.00     0.292 C 
HETATM   29  O4  UNK     1      34.116  -8.268  34.629  1.00  0.00    -0.259 OA
BRANCH  28  30
HETATM   30  O3  UNK     1      34.749  -7.392  32.582  1.00  0.00    -0.317 OA
BRANCH  30  31
HETATM   31  C21 UNK     1      35.583  -8.368  31.950  1.00  0.00     0.189 C 
BRANCH  31  32
HETATM   32  C24 UNK     1      35.166  -8.549  30.498  1.00  0.00     0.100 C 
BRANCH  32  33
HETATM   33  S1  UNK     1      34.881  -6.946  29.685  1.00  0.00    -0.167 SA
BRANCH  33  34
HETATM   34  C26 UNK     1      33.125  -7.152  29.314  1.00  0.00     0.069 C 
HETATM   35  C27 UNK     1      32.821  -8.595  28.957  1.00  0.00     0.016 C 
ENDBRANCH  33  34
ENDBRANCH  32  33
ENDBRANCH  31  32
ENDBRANCH  30  31
ENDBRANCH  28  30
ENDBRANCH  12  28
TORSDOF 7
ENDMDL
MODEL 9
REMARK VINA RESULT:      -7.5      3.038      7.124
REMARK  7 active torsions:
REMARK  status: ('A' for Active; 'I' for Inactive)
REMARK    1  A    between atoms: C24_31  and  S1_1 
REMARK    2  A    between atoms: C26_33  and  S1_1 
REMARK    3  A    between atoms: C14_21  and  O3_4 
REMARK    4  A    between atoms: C21_28  and  O3_4 
REMARK    5  A    between atoms: C12_19  and  C6_13 
REMARK    6  A    between atoms: C10_17  and  C14_21 
REMARK    7  A    between atoms: C21_28  and  C24_31 
ROOT
HETATM    1  O1  UNK     1      32.527 -10.096  34.706  1.00  0.00    -0.293 OA
HETATM    2  N1  UNK     1      32.108  -6.836  31.300  1.00  0.00    -0.362 N 
HETATM    3  C1  UNK     1      35.106  -7.893  33.347  1.00  0.00    -0.036 C 
HETATM    4  C2  UNK     1      34.353  -7.466  32.070  1.00  0.00     0.067 C 
HETATM    5  C3  UNK     1      34.576  -9.258  33.811  1.00  0.00     0.092 C 
HETATM    6  C4  UNK     1      32.855  -7.594  32.180  1.00  0.00     0.021 C 
HETATM    7  C5  UNK     1      32.243  -8.403  33.069  1.00  0.00     0.024 C 
HETATM    8  C6  UNK     1      30.723  -8.458  33.167  1.00  0.00     0.104 C 
HETATM    9  C7  UNK     1      33.066  -9.297  33.940  1.00  0.00     0.159 C 
HETATM   10  C8  UNK     1      36.608  -8.012  33.032  1.00  0.00     0.015 C 
HETATM   11  C9  UNK     1      34.934  -6.841  34.463  1.00  0.00     0.015 C 
HETATM   12  C10 UNK     1      30.027  -7.682  32.046  1.00  0.00     0.052 C 
HETATM   13  C11 UNK     1      30.727  -6.904  31.188  1.00  0.00     0.018 C 
HETATM   14  C13 UNK     1      30.160  -6.086  30.058  1.00  0.00     0.069 C 
HETATM   15  H12 UNK     1      32.606  -6.251  30.640  1.00  0.00     0.165 HD
ENDROOT
BRANCH   8  16
HETATM   16  C12 UNK     1      30.272  -7.949  34.511  1.00  0.00     0.029 A 
HETATM   17  C15 UNK     1      29.497  -8.862  35.389  1.00  0.00     0.194 A 
HETATM   18  O5  UNK     1      29.218 -10.006  35.055  1.00  0.00    -0.287 OA
HETATM   19  C17 UNK     1      29.079  -8.315  36.692  1.00  0.00     0.049 A 
HETATM   20  C18 UNK     1      29.425  -7.004  37.021  1.00  0.00     0.089 A 
HETATM   21  C19 UNK     1      28.345  -9.095  37.591  1.00  0.00     0.025 A 
HETATM   22  O2  UNK     1      30.144  -6.194  36.179  1.00  0.00    -0.321 OA
HETATM   23  C20 UNK     1      29.040  -6.466  38.250  1.00  0.00     0.039 A 
HETATM   24  C16 UNK     1      30.527  -6.717  34.969  1.00  0.00     0.154 A 
HETATM   25  C23 UNK     1      28.308  -7.243  39.148  1.00  0.00     0.009 A 
HETATM   26  C22 UNK     1      27.961  -8.554  38.819  1.00  0.00    -0.061 A 
HETATM   27  C25 UNK     1      27.178  -9.380  39.783  1.00  0.00     0.048 C 
ENDBRANCH   8  16
BRANCH  12  28
HETATM   28  C14 UNK     1      28.567  -7.849  31.956  1.00  0.00     0.292 C 
HETATM   29  O4  UNK     1      27.774  -7.092  32.485  1.00  0.00    -0.259 OA
BRANCH  28  30
HETATM   30  O3  UNK     1      28.307  -8.949  31.210  1.00  0.00    -0.317 OA
BRANCH  30  31
HETATM   31  C21 UNK     1      27.600  -8.702  29.990  1.00  0.00     0.189 C 
BRANCH  31  32
HETATM   32  C24 UNK     1      28.051  -9.683  28.919  1.00  0.00     0.100 C 
BRANCH  32  33
HETATM   33  S1  UNK     1      29.783  -9.396  28.441  1.00  0.00    -0.167 SA
BRANCH  33  34
HETATM   34  C26 UNK     1      30.518 -10.829  29.260  1.00  0.00     0.069 C 
HETATM   35  C27 UNK     1      31.822 -10.447  29.934  1.00  0.00     0.016 C 
ENDBRANCH  33  34
ENDBRANCH  32  33
ENDBRANCH  31  32
ENDBRANCH  30  31
ENDBRANCH  28  30
ENDBRANCH  12  28
TORSDOF 7
ENDMDL
MODEL 10
REMARK VINA RESULT:      -7.5      2.224      6.140
REMARK  7 active torsions:
REMARK  status: ('A' for Active; 'I' for Inactive)
REMARK    1  A    between atoms: C24_31  and  S1_1 
REMARK    2  A    between atoms: C26_33  and  S1_1 
REMARK    3  A    between atoms: C14_21  and  O3_4 
REMARK    4  A    between atoms: C21_28  and  O3_4 
REMARK    5  A    between atoms: C12_19  and  C6_13 
REMARK    6  A    between atoms: C10_17  and  C14_21 
REMARK    7  A    between atoms: C21_28  and  C24_31 
ROOT
HETATM    1  O1  UNK     1      30.297  -4.017  31.857  1.00  0.00    -0.293 OA
HETATM    2  N1  UNK     1      31.081  -8.685  31.872  1.00  0.00    -0.362 N 
HETATM    3  C1  UNK     1      27.978  -6.706  31.000  1.00  0.00    -0.036 C 
HETATM    4  C2  UNK     1      29.024  -7.829  30.838  1.00  0.00     0.067 C 
HETATM    5  C3  UNK     1      28.654  -5.350  30.752  1.00  0.00     0.092 C 
HETATM    6  C4  UNK     1      30.304  -7.577  31.593  1.00  0.00     0.021 C 
HETATM    7  C5  UNK     1      30.706  -6.349  31.981  1.00  0.00     0.024 C 
HETATM    8  C6  UNK     1      31.988  -6.159  32.783  1.00  0.00     0.104 C 
HETATM    9  C7  UNK     1      29.909  -5.150  31.577  1.00  0.00     0.159 C 
HETATM   10  C8  UNK     1      26.854  -6.910  29.969  1.00  0.00     0.015 C 
HETATM   11  C9  UNK     1      27.347  -6.744  32.408  1.00  0.00     0.015 C 
HETATM   12  C10 UNK     1      32.815  -7.443  32.896  1.00  0.00     0.052 C 
HETATM   13  C11 UNK     1      32.333  -8.631  32.465  1.00  0.00     0.018 C 
HETATM   14  C13 UNK     1      33.041  -9.959  32.531  1.00  0.00     0.069 C 
HETATM   15  H12 UNK     1      30.748  -9.587  31.552  1.00  0.00     0.165 HD
ENDROOT
BRANCH   8  16
HETATM   16  C12 UNK     1      31.667  -5.624  34.154  1.00  0.00     0.029 A 
HETATM   17  C15 UNK     1      30.633  -6.321  34.961  1.00  0.00     0.194 A 
HETATM   18  O5  UNK     1      30.040  -7.309  34.547  1.00  0.00    -0.287 OA
HETATM   19  C17 UNK     1      30.356  -5.757  36.294  1.00  0.00     0.049 A 
HETATM   20  C18 UNK     1      31.063  -4.629  36.715  1.00  0.00     0.089 A 
HETATM   21  C19 UNK     1      29.400  -6.339  37.131  1.00  0.00     0.025 A 
HETATM   22  O2  UNK     1      32.012  -4.017  35.937  1.00  0.00    -0.321 OA
HETATM   23  C20 UNK     1      30.817  -4.080  37.974  1.00  0.00     0.039 A 
HETATM   24  C16 UNK     1      32.260  -4.553  34.697  1.00  0.00     0.154 A 
HETATM   25  C23 UNK     1      29.863  -4.660  38.809  1.00  0.00     0.009 A 
HETATM   26  C22 UNK     1      29.156  -5.787  38.389  1.00  0.00    -0.061 A 
HETATM   27  C25 UNK     1      28.137  -6.403  39.287  1.00  0.00     0.048 C 
ENDBRANCH   8  16
BRANCH  12  28
HETATM   28  C14 UNK     1      34.157  -7.295  33.484  1.00  0.00     0.292 C 
HETATM   29  O4  UNK     1      35.050  -6.656  32.959  1.00  0.00    -0.259 OA
BRANCH  28  30
HETATM   30  O3  UNK     1      34.188  -7.974  34.656  1.00  0.00    -0.317 OA
BRANCH  30  31
HETATM   31  C21 UNK     1      34.643  -7.218  35.783  1.00  0.00     0.189 C 
BRANCH  31  32
HETATM   32  C24 UNK     1      33.662  -7.361  36.936  1.00  0.00     0.100 C 
BRANCH  32  33
HETATM   33  S1  UNK     1      32.540  -8.770  36.684  1.00  0.00    -0.167 SA
BRANCH  33  34
HETATM   34  C26 UNK     1      31.756  -8.772  38.311  1.00  0.00     0.069 C 
HETATM   35  C27 UNK     1      30.617  -9.774  38.353  1.00  0.00     0.016 C 
ENDBRANCH  33  34
ENDBRANCH  32  33
ENDBRANCH  31  32
ENDBRANCH  30  31
ENDBRANCH  28  30
ENDBRANCH  12  28
TORSDOF 7
ENDMDL
