MODEL 1
REMARK VINA RESULT:      -7.6      0.000      0.000
REMARK  7 active torsions:
REMARK  status: ('A' for Active; 'I' for Inactive)
REMARK    1  A    between atoms: C2_6  and  O1_2 
REMARK    2  A    between atoms: C3_7  and  O1_2 
REMARK    3  A    between atoms: C4_8  and  O2_3 
REMARK    4  A    between atoms: C8_12  and  O2_3 
REMARK    5  A    between atoms: C1_5  and  C5_9 
REMARK    6  A    between atoms: C3_7  and  C4_8 
REMARK    7  A    between atoms: C10_14  and  C9_13 
ROOT
HETATM    1  N1  UNK     1      30.176  -3.110  30.093  1.00  0.00    -0.191 NA
HETATM    2  C5  UNK     1      30.555  -5.129  32.863  1.00  0.00     0.038 C 
HETATM    3  C9  UNK     1      29.941  -5.179  31.651  1.00  0.00     0.055 C 
HETATM    4  C24 UNK     1      30.077  -4.029  30.795  1.00  0.00     0.100 C 
ENDROOT
BRANCH   3   5
HETATM    5  C10 UNK     1      29.170  -6.319  31.181  1.00  0.00    -0.015 A 
HETATM    6  C18 UNK     1      27.779  -6.308  31.276  1.00  0.00     0.013 A 
HETATM    7  C21 UNK     1      27.040  -7.402  30.824  1.00  0.00     0.001 A 
HETATM    8  C23 UNK     1      27.692  -8.505  30.277  1.00  0.00     0.000 A 
HETATM    9  C22 UNK     1      29.084  -8.517  30.181  1.00  0.00     0.001 A 
HETATM   10  C19 UNK     1      29.823  -7.423  30.634  1.00  0.00     0.013 A 
ENDBRANCH   3   5
BRANCH   2  11
HETATM   11  C1  UNK     1      30.519  -6.184  33.886  1.00  0.00    -0.000 A 
HETATM   12  C2  UNK     1      31.595  -7.047  34.048  1.00  0.00     0.079 A 
HETATM   13  C7  UNK     1      31.537  -8.041  35.025  1.00  0.00     0.039 A 
HETATM   14  C13 UNK     1      30.405  -8.163  35.830  1.00  0.00     0.022 A 
HETATM   15  C12 UNK     1      29.331  -7.291  35.658  1.00  0.00     0.011 A 
HETATM   16 Br1  UNK     1      27.796  -7.457  36.750  1.00  0.00    -0.051 Br
HETATM   17  C6  UNK     1      29.387  -6.297  34.682  1.00  0.00     0.033 A 
BRANCH  12  18
HETATM   18  O1  UNK     1      32.713  -6.951  33.274  1.00  0.00    -0.348 OA
BRANCH  18  19
HETATM   19  C3  UNK     1      33.962  -6.830  33.953  1.00  0.00     0.202 C 
BRANCH  19  20
HETATM   20  C4  UNK     1      34.177  -5.379  34.338  1.00  0.00     0.202 C 
BRANCH  20  21
HETATM   21  O2  UNK     1      34.375  -5.298  35.745  1.00  0.00    -0.349 OA
BRANCH  21  22
HETATM   22  C8  UNK     1      33.255  -5.126  36.516  1.00  0.00     0.068 A 
HETATM   23  C14 UNK     1      33.023  -5.973  37.593  1.00  0.00     0.037 A 
HETATM   24  C16 UNK     1      31.885  -5.797  38.378  1.00  0.00     0.009 A 
HETATM   25  C11 UNK     1      30.983  -4.774  38.081  1.00  0.00    -0.062 A 
HETATM   26  C17 UNK     1      31.222  -3.928  36.998  1.00  0.00     0.009 A 
HETATM   27  C20 UNK     1      29.765  -4.587  38.920  1.00  0.00     0.048 C 
HETATM   28  C15 UNK     1      32.362  -4.104  36.213  1.00  0.00     0.037 A 
ENDBRANCH  21  22
ENDBRANCH  20  21
ENDBRANCH  19  20
ENDBRANCH  18  19
ENDBRANCH  12  18
ENDBRANCH   2  11
TORSDOF 7
ENDMDL
MODEL 2
REMARK VINA RESULT:      -7.0      2.016      3.252
REMARK  7 active torsions:
REMARK  status: ('A' for Active; 'I' for Inactive)
REMARK    1  A    between atoms: C2_6  and  O1_2 
REMARK    2  A    between atoms: C3_7  and  O1_2 
REMARK    3  A    between atoms: C4_8  and  O2_3 
REMARK    4  A    between atoms: C8_12  and  O2_3 
REMARK    5  A    between atoms: C1_5  and  C5_9 
REMARK    6  A    between atoms: C3_7  and  C4_8 
REMARK    7  A    between atoms: C10_14  and  C9_13 
ROOT
HETATM    1  N1  UNK     1      30.174  -2.489  31.197  1.00  0.00    -0.191 NA
HETATM    2  C5  UNK     1      31.054  -5.225  33.103  1.00  0.00     0.038 C 
HETATM    3  C9  UNK     1      30.212  -4.936  32.074  1.00  0.00     0.055 C 
HETATM    4  C24 UNK     1      30.198  -3.579  31.595  1.00  0.00     0.100 C 
ENDROOT
BRANCH   3   5
HETATM    5  C10 UNK     1      29.343  -5.915  31.441  1.00  0.00    -0.015 A 
HETATM    6  C18 UNK     1      29.791  -6.631  30.330  1.00  0.00     0.013 A 
HETATM    7  C21 UNK     1      28.957  -7.571  29.724  1.00  0.00     0.001 A 
HETATM    8  C23 UNK     1      27.677  -7.796  30.228  1.00  0.00     0.000 A 
HETATM    9  C22 UNK     1      27.229  -7.081  31.339  1.00  0.00     0.001 A 
HETATM   10  C19 UNK     1      28.062  -6.140  31.945  1.00  0.00     0.013 A 
ENDBRANCH   3   5
BRANCH   2  11
HETATM   11  C1  UNK     1      31.201  -6.537  33.747  1.00  0.00    -0.000 A 
HETATM   12  C2  UNK     1      30.455  -6.859  34.872  1.00  0.00     0.079 A 
HETATM   13  C7  UNK     1      30.612  -8.111  35.467  1.00  0.00     0.039 A 
HETATM   14  C13 UNK     1      31.515  -9.029  34.931  1.00  0.00     0.022 A 
HETATM   15  C12 UNK     1      32.259  -8.696  33.800  1.00  0.00     0.011 A 
HETATM   16 Br1  UNK     1      33.483  -9.941  33.074  1.00  0.00    -0.051 Br
HETATM   17  C6  UNK     1      32.102  -7.445  33.205  1.00  0.00     0.033 A 
BRANCH  12  18
HETATM   18  O1  UNK     1      29.567  -5.980  35.419  1.00  0.00    -0.348 OA
BRANCH  18  19
HETATM   19  C3  UNK     1      29.575  -5.851  36.839  1.00  0.00     0.202 C 
BRANCH  19  20
HETATM   20  C4  UNK     1      30.343  -4.599  37.217  1.00  0.00     0.202 C 
BRANCH  20  21
HETATM   21  O2  UNK     1      31.491  -4.970  37.972  1.00  0.00    -0.349 OA
BRANCH  21  22
HETATM   22  C8  UNK     1      32.570  -5.431  37.266  1.00  0.00     0.068 A 
HETATM   23  C14 UNK     1      33.115  -6.672  37.573  1.00  0.00     0.037 A 
HETATM   24  C16 UNK     1      34.213  -7.143  36.853  1.00  0.00     0.009 A 
HETATM   25  C11 UNK     1      34.760  -6.368  35.830  1.00  0.00    -0.062 A 
HETATM   26  C17 UNK     1      34.208  -5.123  35.527  1.00  0.00     0.009 A 
HETATM   27  C20 UNK     1      35.934  -6.871  35.061  1.00  0.00     0.048 C 
HETATM   28  C15 UNK     1      33.109  -4.654  36.247  1.00  0.00     0.037 A 
ENDBRANCH  21  22
ENDBRANCH  20  21
ENDBRANCH  19  20
ENDBRANCH  18  19
ENDBRANCH  12  18
ENDBRANCH   2  11
TORSDOF 7
ENDMDL
MODEL 3
REMARK VINA RESULT:      -7.0      3.047      7.318
REMARK  7 active torsions:
REMARK  status: ('A' for Active; 'I' for Inactive)
REMARK    1  A    between atoms: C2_6  and  O1_2 
REMARK    2  A    between atoms: C3_7  and  O1_2 
REMARK    3  A    between atoms: C4_8  and  O2_3 
REMARK    4  A    between atoms: C8_12  and  O2_3 
REMARK    5  A    between atoms: C1_5  and  C5_9 
REMARK    6  A    between atoms: C3_7  and  C4_8 
REMARK    7  A    between atoms: C10_14  and  C9_13 
ROOT
HETATM    1  N1  UNK     1      29.540  -3.910  39.808  1.00  0.00    -0.191 NA
HETATM    2  C5  UNK     1      30.936  -4.754  36.771  1.00  0.00     0.038 C 
HETATM    3  C9  UNK     1      30.474  -5.386  37.883  1.00  0.00     0.055 C 
HETATM    4  C24 UNK     1      29.959  -4.560  38.943  1.00  0.00     0.100 C 
ENDROOT
BRANCH   3   5
HETATM    5  C10 UNK     1      30.470  -6.831  38.050  1.00  0.00    -0.015 A 
HETATM    6  C18 UNK     1      31.672  -7.516  38.227  1.00  0.00     0.013 A 
HETATM    7  C21 UNK     1      31.667  -8.902  38.388  1.00  0.00     0.001 A 
HETATM    8  C23 UNK     1      30.462  -9.602  38.372  1.00  0.00     0.000 A 
HETATM    9  C22 UNK     1      29.260  -8.916  38.195  1.00  0.00     0.001 A 
HETATM   10  C19 UNK     1      29.264  -7.531  38.033  1.00  0.00     0.013 A 
ENDBRANCH   3   5
BRANCH   2  11
HETATM   11  C1  UNK     1      31.519  -5.411  35.592  1.00  0.00    -0.000 A 
HETATM   12  C2  UNK     1      30.703  -5.987  34.629  1.00  0.00     0.079 A 
HETATM   13  C7  UNK     1      31.279  -6.605  33.519  1.00  0.00     0.039 A 
HETATM   14  C13 UNK     1      32.667  -6.643  33.384  1.00  0.00     0.022 A 
HETATM   15  C12 UNK     1      33.477  -6.061  34.358  1.00  0.00     0.011 A 
HETATM   16 Br1  UNK     1      35.359  -6.113  34.175  1.00  0.00    -0.051 Br
HETATM   17  C6  UNK     1      32.902  -5.442  35.467  1.00  0.00     0.033 A 
BRANCH  12  18
HETATM   18  O1  UNK     1      29.343  -5.966  34.736  1.00  0.00    -0.348 OA
BRANCH  18  19
HETATM   19  C3  UNK     1      28.614  -6.853  33.890  1.00  0.00     0.202 C 
BRANCH  19  20
HETATM   20  C4  UNK     1      27.746  -6.039  32.950  1.00  0.00     0.202 C 
BRANCH  20  21
HETATM   21  O2  UNK     1      28.451  -5.832  31.731  1.00  0.00    -0.349 OA
BRANCH  21  22
HETATM   22  C8  UNK     1      28.495  -6.889  30.859  1.00  0.00     0.068 A 
HETATM   23  C14 UNK     1      29.643  -7.115  30.109  1.00  0.00     0.037 A 
HETATM   24  C16 UNK     1      29.689  -8.190  29.223  1.00  0.00     0.009 A 
HETATM   25  C11 UNK     1      28.585  -9.034  29.092  1.00  0.00    -0.062 A 
HETATM   26  C17 UNK     1      27.437  -8.801  29.849  1.00  0.00     0.009 A 
HETATM   27  C20 UNK     1      28.635 -10.184  28.144  1.00  0.00     0.048 C 
HETATM   28  C15 UNK     1      27.392  -7.726  30.736  1.00  0.00     0.037 A 
ENDBRANCH  21  22
ENDBRANCH  20  21
ENDBRANCH  19  20
ENDBRANCH  18  19
ENDBRANCH  12  18
ENDBRANCH   2  11
TORSDOF 7
ENDMDL
MODEL 4
REMARK VINA RESULT:      -7.0      1.879      2.802
REMARK  7 active torsions:
REMARK  status: ('A' for Active; 'I' for Inactive)
REMARK    1  A    between atoms: C2_6  and  O1_2 
REMARK    2  A    between atoms: C3_7  and  O1_2 
REMARK    3  A    between atoms: C4_8  and  O2_3 
REMARK    4  A    between atoms: C8_12  and  O2_3 
REMARK    5  A    between atoms: C1_5  and  C5_9 
REMARK    6  A    between atoms: C3_7  and  C4_8 
REMARK    7  A    between atoms: C10_14  and  C9_13 
ROOT
HETATM    1  N1  UNK     1      32.890  -7.877  29.323  1.00  0.00    -0.191 NA
HETATM    2  C5  UNK     1      31.605  -7.415  32.490  1.00  0.00     0.038 C 
HETATM    3  C9  UNK     1      31.141  -7.533  31.216  1.00  0.00     0.055 C 
HETATM    4  C24 UNK     1      32.117  -7.724  30.175  1.00  0.00     0.100 C 
ENDROOT
BRANCH   3   5
HETATM    5  C10 UNK     1      29.732  -7.482  30.861  1.00  0.00    -0.015 A 
HETATM    6  C18 UNK     1      29.009  -8.664  30.704  1.00  0.00     0.013 A 
HETATM    7  C21 UNK     1      27.656  -8.615  30.364  1.00  0.00     0.001 A 
HETATM    8  C23 UNK     1      27.028  -7.384  30.181  1.00  0.00     0.000 A 
HETATM    9  C22 UNK     1      27.751  -6.201  30.337  1.00  0.00     0.001 A 
HETATM   10  C19 UNK     1      29.104  -6.251  30.676  1.00  0.00     0.013 A 
ENDBRANCH   3   5
BRANCH   2  11
HETATM   11  C1  UNK     1      30.779  -7.195  33.685  1.00  0.00    -0.000 A 
HETATM   12  C2  UNK     1      30.840  -5.991  34.373  1.00  0.00     0.079 A 
HETATM   13  C7  UNK     1      30.047  -5.805  35.506  1.00  0.00     0.039 A 
HETATM   14  C13 UNK     1      29.201  -6.825  35.940  1.00  0.00     0.022 A 
HETATM   15  C12 UNK     1      29.148  -8.031  35.241  1.00  0.00     0.011 A 
HETATM   16 Br1  UNK     1      28.001  -9.414  35.830  1.00  0.00    -0.051 Br
HETATM   17  C6  UNK     1      29.940  -8.217  34.109  1.00  0.00     0.033 A 
BRANCH  12  18
HETATM   18  O1  UNK     1      31.659  -4.977  33.972  1.00  0.00    -0.348 OA
BRANCH  18  19
HETATM   19  C3  UNK     1      32.561  -4.452  34.944  1.00  0.00     0.202 C 
BRANCH  19  20
HETATM   20  C4  UNK     1      33.836  -5.274  34.931  1.00  0.00     0.202 C 
BRANCH  20  21
HETATM   21  O2  UNK     1      34.127  -5.698  36.258  1.00  0.00    -0.349 OA
BRANCH  21  22
HETATM   22  C8  UNK     1      33.368  -6.725  36.756  1.00  0.00     0.068 A 
HETATM   23  C14 UNK     1      32.674  -6.553  37.948  1.00  0.00     0.037 A 
HETATM   24  C16 UNK     1      31.901  -7.597  38.454  1.00  0.00     0.009 A 
HETATM   25  C11 UNK     1      31.826  -8.808  37.765  1.00  0.00    -0.062 A 
HETATM   26  C17 UNK     1      32.525  -8.973  36.569  1.00  0.00     0.009 A 
HETATM   27  C20 UNK     1      30.999  -9.924  38.307  1.00  0.00     0.048 C 
HETATM   28  C15 UNK     1      33.298  -7.928  36.063  1.00  0.00     0.037 A 
ENDBRANCH  21  22
ENDBRANCH  20  21
ENDBRANCH  19  20
ENDBRANCH  18  19
ENDBRANCH  12  18
ENDBRANCH   2  11
TORSDOF 7
ENDMDL
MODEL 5
REMARK VINA RESULT:      -6.9      3.019      5.785
REMARK  7 active torsions:
REMARK  status: ('A' for Active; 'I' for Inactive)
REMARK    1  A    between atoms: C2_6  and  O1_2 
REMARK    2  A    between atoms: C3_7  and  O1_2 
REMARK    3  A    between atoms: C4_8  and  O2_3 
REMARK    4  A    between atoms: C8_12  and  O2_3 
REMARK    5  A    between atoms: C1_5  and  C5_9 
REMARK    6  A    between atoms: C3_7  and  C4_8 
REMARK    7  A    between atoms: C10_14  and  C9_13 
ROOT
HETATM    1  N1  UNK     1      29.326  -3.636  39.869  1.00  0.00    -0.191 NA
HETATM    2  C5  UNK     1      30.501  -6.099  37.760  1.00  0.00     0.038 C 
HETATM    3  C9  UNK     1      29.447  -5.901  38.597  1.00  0.00     0.055 C 
HETATM    4  C24 UNK     1      29.389  -4.644  39.296  1.00  0.00     0.100 C 
ENDROOT
BRANCH   3   5
HETATM    5  C10 UNK     1      28.390  -6.876  38.813  1.00  0.00    -0.015 A 
HETATM    6  C18 UNK     1      28.684  -8.102  39.411  1.00  0.00     0.013 A 
HETATM    7  C21 UNK     1      27.670  -9.038  39.619  1.00  0.00     0.001 A 
HETATM    8  C23 UNK     1      26.364  -8.747  39.229  1.00  0.00     0.000 A 
HETATM    9  C22 UNK     1      26.070  -7.522  38.631  1.00  0.00     0.001 A 
HETATM   10  C19 UNK     1      27.084  -6.587  38.422  1.00  0.00     0.013 A 
ENDBRANCH   3   5
BRANCH   2  11
HETATM   11  C1  UNK     1      30.754  -7.315  36.975  1.00  0.00    -0.000 A 
HETATM   12  C2  UNK     1      31.901  -8.067  37.189  1.00  0.00     0.079 A 
HETATM   13  C7  UNK     1      32.120  -9.218  36.431  1.00  0.00     0.039 A 
HETATM   14  C13 UNK     1      31.191  -9.604  35.465  1.00  0.00     0.022 A 
HETATM   15  C12 UNK     1      30.042  -8.841  35.259  1.00  0.00     0.011 A 
HETATM   16 Br1  UNK     1      28.783  -9.365  33.950  1.00  0.00    -0.051 Br
HETATM   17  C6  UNK     1      29.822  -7.691  36.016  1.00  0.00     0.033 A 
BRANCH  12  18
HETATM   18  O1  UNK     1      32.827  -7.712  38.125  1.00  0.00    -0.348 OA
BRANCH  18  19
HETATM   19  C3  UNK     1      34.129  -7.375  37.651  1.00  0.00     0.202 C 
BRANCH  19  20
HETATM   20  C4  UNK     1      34.145  -5.914  37.244  1.00  0.00     0.202 C 
BRANCH  20  21
HETATM   21  O2  UNK     1      34.558  -5.816  35.886  1.00  0.00    -0.349 OA
BRANCH  21  22
HETATM   22  C8  UNK     1      33.585  -5.973  34.934  1.00  0.00     0.068 A 
HETATM   23  C14 UNK     1      32.522  -5.079  34.882  1.00  0.00     0.037 A 
HETATM   24  C16 UNK     1      31.532  -5.237  33.912  1.00  0.00     0.009 A 
HETATM   25  C11 UNK     1      31.612  -6.289  32.999  1.00  0.00    -0.062 A 
HETATM   26  C17 UNK     1      32.681  -7.182  33.058  1.00  0.00     0.009 A 
HETATM   27  C20 UNK     1      30.553  -6.458  31.963  1.00  0.00     0.048 C 
HETATM   28  C15 UNK     1      33.671  -7.023  34.028  1.00  0.00     0.037 A 
ENDBRANCH  21  22
ENDBRANCH  20  21
ENDBRANCH  19  20
ENDBRANCH  18  19
ENDBRANCH  12  18
ENDBRANCH   2  11
TORSDOF 7
ENDMDL
MODEL 6
REMARK VINA RESULT:      -6.9      3.279      5.843
REMARK  7 active torsions:
REMARK  status: ('A' for Active; 'I' for Inactive)
REMARK    1  A    between atoms: C2_6  and  O1_2 
REMARK    2  A    between atoms: C3_7  and  O1_2 
REMARK    3  A    between atoms: C4_8  and  O2_3 
REMARK    4  A    between atoms: C8_12  and  O2_3 
REMARK    5  A    between atoms: C1_5  and  C5_9 
REMARK    6  A    between atoms: C3_7  and  C4_8 
REMARK    7  A    between atoms: C10_14  and  C9_13 
ROOT
HETATM    1  N1  UNK     1      26.421  -4.721  38.721  1.00  0.00    -0.191 NA
HETATM    2  C5  UNK     1      29.157  -6.347  37.394  1.00  0.00     0.038 C 
HETATM    3  C9  UNK     1      28.019  -6.665  38.068  1.00  0.00     0.055 C 
HETATM    4  C24 UNK     1      27.141  -5.582  38.424  1.00  0.00     0.100 C 
ENDROOT
BRANCH   3   5
HETATM    5  C10 UNK     1      27.649  -8.023  38.434  1.00  0.00    -0.015 A 
HETATM    6  C18 UNK     1      26.918  -8.811  37.545  1.00  0.00     0.013 A 
HETATM    7  C21 UNK     1      26.564 -10.114  37.897  1.00  0.00     0.001 A 
HETATM    8  C23 UNK     1      26.942 -10.628  39.136  1.00  0.00     0.000 A 
HETATM    9  C22 UNK     1      27.673  -9.841  40.025  1.00  0.00     0.001 A 
HETATM   10  C19 UNK     1      28.026  -8.537  39.674  1.00  0.00     0.013 A 
ENDBRANCH   3   5
BRANCH   2  11
HETATM   11  C1  UNK     1      30.190  -7.298  36.960  1.00  0.00    -0.000 A 
HETATM   12  C2  UNK     1      31.461  -7.265  37.518  1.00  0.00     0.079 A 
HETATM   13  C7  UNK     1      32.425  -8.177  37.090  1.00  0.00     0.039 A 
HETATM   14  C13 UNK     1      32.110  -9.114  36.106  1.00  0.00     0.022 A 
HETATM   15  C12 UNK     1      30.830  -9.138  35.551  1.00  0.00     0.011 A 
HETATM   16 Br1  UNK     1      30.404 -10.409  34.217  1.00  0.00    -0.051 Br
HETATM   17  C6  UNK     1      29.866  -8.227  35.980  1.00  0.00     0.033 A 
BRANCH  12  18
HETATM   18  O1  UNK     1      31.797  -6.359  38.481  1.00  0.00    -0.348 OA
BRANCH  18  19
HETATM   19  C3  UNK     1      32.834  -5.432  38.163  1.00  0.00     0.202 C 
BRANCH  19  20
HETATM   20  C4  UNK     1      32.289  -4.389  37.207  1.00  0.00     0.202 C 
BRANCH  20  21
HETATM   21  O2  UNK     1      33.162  -4.287  36.087  1.00  0.00    -0.349 OA
BRANCH  21  22
HETATM   22  C8  UNK     1      32.945  -5.163  35.056  1.00  0.00     0.068 A 
HETATM   23  C14 UNK     1      33.974  -5.993  34.629  1.00  0.00     0.037 A 
HETATM   24  C16 UNK     1      33.753  -6.885  33.580  1.00  0.00     0.009 A 
HETATM   25  C11 UNK     1      32.503  -6.941  32.964  1.00  0.00    -0.062 A 
HETATM   26  C17 UNK     1      31.474  -6.104  33.397  1.00  0.00     0.009 A 
HETATM   27  C20 UNK     1      32.267  -7.894  31.841  1.00  0.00     0.048 C 
HETATM   28  C15 UNK     1      31.696  -5.213  34.447  1.00  0.00     0.037 A 
ENDBRANCH  21  22
ENDBRANCH  20  21
ENDBRANCH  19  20
ENDBRANCH  18  19
ENDBRANCH  12  18
ENDBRANCH   2  11
TORSDOF 7
ENDMDL
MODEL 7
REMARK VINA RESULT:      -6.9     31.376     34.061
REMARK  7 active torsions:
REMARK  status: ('A' for Active; 'I' for Inactive)
REMARK    1  A    between atoms: C2_6  and  O1_2 
REMARK    2  A    between atoms: C3_7  and  O1_2 
REMARK    3  A    between atoms: C4_8  and  O2_3 
REMARK    4  A    between atoms: C8_12  and  O2_3 
REMARK    5  A    between atoms: C1_5  and  C5_9 
REMARK    6  A    between atoms: C3_7  and  C4_8 
REMARK    7  A    between atoms: C10_14  and  C9_13 
ROOT
HETATM    1  N1  UNK     1       9.575   8.877   9.723  1.00  0.00    -0.191 NA
HETATM    2  C5  UNK     1      12.995   8.925   9.284  1.00  0.00     0.038 C 
HETATM    3  C9  UNK     1      12.077   9.449  10.140  1.00  0.00     0.055 C 
HETATM    4  C24 UNK     1      10.695   9.126   9.901  1.00  0.00     0.100 C 
ENDROOT
BRANCH   3   5
HETATM    5  C10 UNK     1      12.417  10.299  11.269  1.00  0.00    -0.015 A 
HETATM    6  C18 UNK     1      12.410  11.687  11.124  1.00  0.00     0.013 A 
HETATM    7  C21 UNK     1      12.735  12.503  12.209  1.00  0.00     0.001 A 
HETATM    8  C23 UNK     1      13.066  11.931  13.436  1.00  0.00     0.000 A 
HETATM    9  C22 UNK     1      13.073  10.544  13.581  1.00  0.00     0.001 A 
HETATM   10  C19 UNK     1      12.749   9.728  12.497  1.00  0.00     0.013 A 
ENDBRANCH   3   5
BRANCH   2  11
HETATM   11  C1  UNK     1      14.446   9.150   9.341  1.00  0.00    -0.000 A 
HETATM   12  C2  UNK     1      15.273   8.257  10.009  1.00  0.00     0.079 A 
HETATM   13  C7  UNK     1      16.648   8.492  10.051  1.00  0.00     0.039 A 
HETATM   14  C13 UNK     1      17.182   9.618   9.426  1.00  0.00     0.022 A 
HETATM   15  C12 UNK     1      16.342  10.508   8.757  1.00  0.00     0.011 A 
HETATM   16 Br1  UNK     1      17.067  12.035   7.909  1.00  0.00    -0.051 Br
HETATM   17  C6  UNK     1      14.968  10.274   8.715  1.00  0.00     0.033 A 
BRANCH  12  18
HETATM   18  O1  UNK     1      14.778   7.149  10.631  1.00  0.00    -0.348 OA
BRANCH  18  19
HETATM   19  C3  UNK     1      15.372   5.898  10.293  1.00  0.00     0.202 C 
BRANCH  19  20
HETATM   20  C4  UNK     1      14.334   5.026   9.611  1.00  0.00     0.202 C 
BRANCH  20  21
HETATM   21  O2  UNK     1      14.123   5.507   8.289  1.00  0.00    -0.349 OA
BRANCH  21  22
HETATM   22  C8  UNK     1      12.825   5.746   7.921  1.00  0.00     0.068 A 
HETATM   23  C14 UNK     1      12.555   6.349   6.698  1.00  0.00     0.037 A 
HETATM   24  C16 UNK     1      11.235   6.591   6.323  1.00  0.00     0.009 A 
HETATM   25  C11 UNK     1      10.190   6.229   7.173  1.00  0.00    -0.062 A 
HETATM   26  C17 UNK     1      10.468   5.624   8.399  1.00  0.00     0.009 A 
HETATM   27  C20 UNK     1       8.777   6.489   6.772  1.00  0.00     0.048 C 
HETATM   28  C15 UNK     1      11.790   5.381   8.774  1.00  0.00     0.037 A 
ENDBRANCH  21  22
ENDBRANCH  20  21
ENDBRANCH  19  20
ENDBRANCH  18  19
ENDBRANCH  12  18
ENDBRANCH   2  11
TORSDOF 7
ENDMDL
MODEL 8
REMARK VINA RESULT:      -6.8      5.311      8.067
REMARK  7 active torsions:
REMARK  status: ('A' for Active; 'I' for Inactive)
REMARK    1  A    between atoms: C2_6  and  O1_2 
REMARK    2  A    between atoms: C3_7  and  O1_2 
REMARK    3  A    between atoms: C4_8  and  O2_3 
REMARK    4  A    between atoms: C8_12  and  O2_3 
REMARK    5  A    between atoms: C1_5  and  C5_9 
REMARK    6  A    between atoms: C3_7  and  C4_8 
REMARK    7  A    between atoms: C10_14  and  C9_13 
ROOT
HETATM    1  N1  UNK     1      29.496  -3.632  39.955  1.00  0.00    -0.191 NA
HETATM    2  C5  UNK     1      28.635  -5.962  37.563  1.00  0.00     0.038 C 
HETATM    3  C9  UNK     1      29.763  -5.506  38.172  1.00  0.00     0.055 C 
HETATM    4  C24 UNK     1      29.605  -4.469  39.158  1.00  0.00     0.100 C 
ENDROOT
BRANCH   3   5
HETATM    5  C10 UNK     1      31.096  -6.009  37.886  1.00  0.00    -0.015 A 
HETATM    6  C18 UNK     1      31.499  -7.245  38.393  1.00  0.00     0.013 A 
HETATM    7  C21 UNK     1      32.779  -7.728  38.118  1.00  0.00     0.001 A 
HETATM    8  C23 UNK     1      33.654  -6.977  37.336  1.00  0.00     0.000 A 
HETATM    9  C22 UNK     1      33.252  -5.741  36.828  1.00  0.00     0.001 A 
HETATM   10  C19 UNK     1      31.973  -5.257  37.105  1.00  0.00     0.013 A 
ENDBRANCH   3   5
BRANCH   2  11
HETATM   11  C1  UNK     1      28.583  -6.996  36.520  1.00  0.00    -0.000 A 
HETATM   12  C2  UNK     1      28.356  -8.325  36.853  1.00  0.00     0.079 A 
HETATM   13  C7  UNK     1      28.312  -9.288  35.846  1.00  0.00     0.039 A 
HETATM   14  C13 UNK     1      28.497  -8.915  34.515  1.00  0.00     0.022 A 
HETATM   15  C12 UNK     1      28.724  -7.578  34.192  1.00  0.00     0.011 A 
HETATM   16 Br1  UNK     1      28.974  -7.072  32.387  1.00  0.00    -0.051 Br
HETATM   17  C6  UNK     1      28.768  -6.614  35.198  1.00  0.00     0.033 A 
BRANCH  12  18
HETATM   18  O1  UNK     1      28.174  -8.718  38.146  1.00  0.00    -0.348 OA
BRANCH  18  19
HETATM   19  C3  UNK     1      26.983  -9.445  38.440  1.00  0.00     0.202 C 
BRANCH  19  20
HETATM   20  C4  UNK     1      25.927  -8.480  38.944  1.00  0.00     0.202 C 
BRANCH  20  21
HETATM   21  O2  UNK     1      25.039  -8.167  37.878  1.00  0.00    -0.349 OA
BRANCH  21  22
HETATM   22  C8  UNK     1      23.698  -8.253  38.148  1.00  0.00     0.068 A 
HETATM   23  C14 UNK     1      23.221  -7.873  39.396  1.00  0.00     0.037 A 
HETATM   24  C16 UNK     1      21.857  -7.958  39.671  1.00  0.00     0.009 A 
HETATM   25  C11 UNK     1      20.976  -8.424  38.693  1.00  0.00    -0.062 A 
HETATM   26  C17 UNK     1      21.462  -8.803  37.442  1.00  0.00     0.009 A 
HETATM   27  C20 UNK     1      19.517  -8.516  38.987  1.00  0.00     0.048 C 
HETATM   28  C15 UNK     1      22.827  -8.717  37.168  1.00  0.00     0.037 A 
ENDBRANCH  21  22
ENDBRANCH  20  21
ENDBRANCH  19  20
ENDBRANCH  18  19
ENDBRANCH  12  18
ENDBRANCH   2  11
TORSDOF 7
ENDMDL
MODEL 9
REMARK VINA RESULT:      -6.8      3.237      7.144
REMARK  7 active torsions:
REMARK  status: ('A' for Active; 'I' for Inactive)
REMARK    1  A    between atoms: C2_6  and  O1_2 
REMARK    2  A    between atoms: C3_7  and  O1_2 
REMARK    3  A    between atoms: C4_8  and  O2_3 
REMARK    4  A    between atoms: C8_12  and  O2_3 
REMARK    5  A    between atoms: C1_5  and  C5_9 
REMARK    6  A    between atoms: C3_7  and  C4_8 
REMARK    7  A    between atoms: C10_14  and  C9_13 
ROOT
HETATM    1  N1  UNK     1      26.259  -7.526  37.576  1.00  0.00    -0.191 NA
HETATM    2  C5  UNK     1      28.188  -8.437  34.867  1.00  0.00     0.038 C 
HETATM    3  C9  UNK     1      28.358  -8.195  36.195  1.00  0.00     0.055 C 
HETATM    4  C24 UNK     1      27.190  -7.826  36.951  1.00  0.00     0.100 C 
ENDROOT
BRANCH   3   5
HETATM    5  C10 UNK     1      29.637  -8.296  36.879  1.00  0.00    -0.015 A 
HETATM    6  C18 UNK     1      30.342  -7.139  37.214  1.00  0.00     0.013 A 
HETATM    7  C21 UNK     1      31.569  -7.236  37.871  1.00  0.00     0.001 A 
HETATM    8  C23 UNK     1      32.090  -8.488  38.193  1.00  0.00     0.000 A 
HETATM    9  C22 UNK     1      31.386  -9.645  37.858  1.00  0.00     0.001 A 
HETATM   10  C19 UNK     1      30.159  -9.548  37.200  1.00  0.00     0.013 A 
ENDBRANCH   3   5
BRANCH   2  11
HETATM   11  C1  UNK     1      29.252  -8.803  33.921  1.00  0.00    -0.000 A 
HETATM   12  C2  UNK     1      30.162  -7.853  33.479  1.00  0.00     0.079 A 
HETATM   13  C7  UNK     1      31.162  -8.225  32.580  1.00  0.00     0.039 A 
HETATM   14  C13 UNK     1      31.242  -9.543  32.131  1.00  0.00     0.022 A 
HETATM   15  C12 UNK     1      30.322 -10.489  32.582  1.00  0.00     0.011 A 
HETATM   16 Br1  UNK     1      30.431 -12.276  31.973  1.00  0.00    -0.051 Br
HETATM   17  C6  UNK     1      29.322 -10.119  33.480  1.00  0.00     0.033 A 
BRANCH  12  18
HETATM   18  O1  UNK     1      30.107  -6.557  33.899  1.00  0.00    -0.348 OA
BRANCH  18  19
HETATM   19  C3  UNK     1      30.095  -5.549  32.891  1.00  0.00     0.202 C 
BRANCH  19  20
HETATM   20  C4  UNK     1      28.699  -5.454  32.303  1.00  0.00     0.202 C 
BRANCH  20  21
HETATM   21  O2  UNK     1      28.790  -5.506  30.884  1.00  0.00    -0.349 OA
BRANCH  21  22
HETATM   22  C8  UNK     1      28.779  -6.751  30.311  1.00  0.00     0.068 A 
HETATM   23  C14 UNK     1      29.783  -7.108  29.420  1.00  0.00     0.037 A 
HETATM   24  C16 UNK     1      29.773  -8.375  28.839  1.00  0.00     0.009 A 
HETATM   25  C11 UNK     1      28.756  -9.278  29.151  1.00  0.00    -0.062 A 
HETATM   26  C17 UNK     1      27.751  -8.912  30.046  1.00  0.00     0.009 A 
HETATM   27  C20 UNK     1      28.744 -10.633  28.528  1.00  0.00     0.048 C 
HETATM   28  C15 UNK     1      27.762  -7.644  30.629  1.00  0.00     0.037 A 
ENDBRANCH  21  22
ENDBRANCH  20  21
ENDBRANCH  19  20
ENDBRANCH  18  19
ENDBRANCH  12  18
ENDBRANCH   2  11
TORSDOF 7
ENDMDL
MODEL 10
REMARK VINA RESULT:      -6.7      1.368      1.933
REMARK  7 active torsions:
REMARK  status: ('A' for Active; 'I' for Inactive)
REMARK    1  A    between atoms: C2_6  and  O1_2 
REMARK    2  A    between atoms: C3_7  and  O1_2 
REMARK    3  A    between atoms: C4_8  and  O2_3 
REMARK    4  A    between atoms: C8_12  and  O2_3 
REMARK    5  A    between atoms: C1_5  and  C5_9 
REMARK    6  A    between atoms: C3_7  and  C4_8 
REMARK    7  A    between atoms: C10_14  and  C9_13 
ROOT
HETATM    1  N1  UNK     1      29.900  -4.548  30.708  1.00  0.00    -0.191 NA
HETATM    2  C5  UNK     1      30.974  -6.164  33.559  1.00  0.00     0.038 C 
HETATM    3  C9  UNK     1      30.569  -6.490  32.301  1.00  0.00     0.055 C 
HETATM    4  C24 UNK     1      30.201  -5.408  31.427  1.00  0.00     0.100 C 
ENDROOT
BRANCH   3   5
HETATM    5  C10 UNK     1      30.497  -7.855  31.803  1.00  0.00    -0.015 A 
HETATM    6  C18 UNK     1      31.557  -8.385  31.067  1.00  0.00     0.013 A 
HETATM    7  C21 UNK     1      31.488  -9.695  30.590  1.00  0.00     0.001 A 
HETATM    8  C23 UNK     1      30.361 -10.473  30.850  1.00  0.00     0.000 A 
HETATM    9  C22 UNK     1      29.301  -9.942  31.586  1.00  0.00     0.001 A 
HETATM   10  C19 UNK     1      29.370  -8.633  32.062  1.00  0.00     0.013 A 
ENDBRANCH   3   5
BRANCH   2  11
HETATM   11  C1  UNK     1      31.369  -7.117  34.605  1.00  0.00    -0.000 A 
HETATM   12  C2  UNK     1      32.663  -7.617  34.653  1.00  0.00     0.079 A 
HETATM   13  C7  UNK     1      33.014  -8.521  35.656  1.00  0.00     0.039 A 
HETATM   14  C13 UNK     1      32.068  -8.917  36.601  1.00  0.00     0.022 A 
HETATM   15  C12 UNK     1      30.771  -8.409  36.543  1.00  0.00     0.011 A 
HETATM   16 Br1  UNK     1      29.488  -8.946  37.825  1.00  0.00    -0.051 Br
HETATM   17  C6  UNK     1      30.419  -7.505  35.542  1.00  0.00     0.033 A 
BRANCH  12  18
HETATM   18  O1  UNK     1      33.607  -7.249  33.742  1.00  0.00    -0.348 OA
BRANCH  18  19
HETATM   19  C3  UNK     1      34.819  -6.698  34.253  1.00  0.00     0.202 C 
BRANCH  19  20
HETATM   20  C4  UNK     1      34.668  -5.193  34.368  1.00  0.00     0.202 C 
BRANCH  20  21
HETATM   21  O2  UNK     1      34.791  -4.819  35.735  1.00  0.00    -0.349 OA
BRANCH  21  22
HETATM   22  C8  UNK     1      33.639  -4.806  36.477  1.00  0.00     0.068 A 
HETATM   23  C14 UNK     1      33.532  -5.619  37.599  1.00  0.00     0.037 A 
HETATM   24  C16 UNK     1      32.360  -5.605  38.354  1.00  0.00     0.009 A 
HETATM   25  C11 UNK     1      31.300  -4.777  37.981  1.00  0.00    -0.062 A 
HETATM   26  C17 UNK     1      31.414  -3.964  36.854  1.00  0.00     0.009 A 
HETATM   27  C20 UNK     1      30.046  -4.764  38.789  1.00  0.00     0.048 C 
HETATM   28  C15 UNK     1      32.588  -3.978  36.099  1.00  0.00     0.037 A 
ENDBRANCH  21  22
ENDBRANCH  20  21
ENDBRANCH  19  20
ENDBRANCH  18  19
ENDBRANCH  12  18
ENDBRANCH   2  11
TORSDOF 7
ENDMDL
