MODEL 1
REMARK VINA RESULT:      -9.5      0.000      0.000
REMARK  6 active torsions:
REMARK  status: ('A' for Active; 'I' for Inactive)
REMARK    1  A    between atoms: C1_7  and  O1_2 
REMARK    2  A    between atoms: C7_13  and  O1_2 
REMARK    3  A    between atoms: C8_14  and  O2_3 
REMARK    4  A    between atoms: C9_15  and  O2_3 
REMARK    5  A    between atoms: C7_13  and  C8_14 
REMARK    6  A    between atoms: C13_19  and  C17_23 
ROOT
HETATM    1  O4  UNK     1      15.820   6.832  32.552  1.00  0.00    -0.321 OA
HETATM    2  O5  UNK     1      18.700   9.284  34.082  1.00  0.00    -0.286 OA
HETATM    3  C9  UNK     1      18.780   4.972  31.523  1.00  0.00     0.072 A 
HETATM    4  C10 UNK     1      18.172   7.326  32.887  1.00  0.00     0.049 A 
HETATM    5  C11 UNK     1      17.146   6.520  32.396  1.00  0.00     0.091 A 
HETATM    6  C12 UNK     1      17.449   5.341  31.713  1.00  0.00     0.075 A 
HETATM    7  C13 UNK     1      16.380   8.876  33.738  1.00  0.00     0.048 A 
HETATM    8  C14 UNK     1      17.830   8.564  33.609  1.00  0.00     0.197 A 
HETATM    9  C15 UNK     1      19.807   5.778  32.014  1.00  0.00     0.038 A 
HETATM   10  C16 UNK     1      19.507   6.957  32.698  1.00  0.00     0.021 A 
HETATM   11  C18 UNK     1      15.513   7.999  33.208  1.00  0.00     0.159 A 
ENDROOT
BRANCH   3  12
HETATM   12  O2  UNK     1      19.079   3.819  30.854  1.00  0.00    -0.341 OA
BRANCH  12  13
HETATM   13  C8  UNK     1      17.993   3.050  30.380  1.00  0.00     0.286 C 
BRANCH  13  14
HETATM   14  C7  UNK     1      18.446   2.251  29.187  1.00  0.00     0.283 C 
HETATM   15  O3  UNK     1      17.865   2.207  28.111  1.00  0.00    -0.263 OA
BRANCH  14  16
HETATM   16  O1  UNK     1      19.602   1.588  29.499  1.00  0.00    -0.314 OA
BRANCH  16  17
HETATM   17  C1  UNK     1      19.451   0.223  29.876  1.00  0.00     0.132 C 
HETATM   18  C2  UNK     1      20.574  -0.607  29.256  1.00  0.00     0.032 C 
HETATM   19  C4  UNK     1      20.513  -2.062  29.709  1.00  0.00     0.002 C 
HETATM   20  C6  UNK     1      20.501  -2.176  31.232  1.00  0.00     0.000 C 
HETATM   21  C5  UNK     1      19.379  -1.346  31.853  1.00  0.00     0.002 C 
HETATM   22  C3  UNK     1      19.442   0.110  31.399  1.00  0.00     0.032 C 
ENDBRANCH  16  17
ENDBRANCH  14  16
ENDBRANCH  13  14
ENDBRANCH  12  13
ENDBRANCH   3  12
BRANCH   7  23
HETATM   23  C17 UNK     1      15.902  10.100  34.402  1.00  0.00    -0.020 A 
HETATM   24  C19 UNK     1      16.544  11.318  34.172  1.00  0.00     0.014 A 
HETATM   25  C21 UNK     1      16.091  12.478  34.801  1.00  0.00     0.024 A 
HETATM   26  C23 UNK     1      14.995  12.422  35.661  1.00  0.00     0.034 A 
HETATM   27  C22 UNK     1      14.352  11.207  35.893  1.00  0.00     0.024 A 
HETATM   28 Cl1  UNK     1      14.436  13.853  36.437  1.00  0.00    -0.084 Cl
HETATM   29  C20 UNK     1      14.805  10.047  35.264  1.00  0.00     0.014 A 
ENDBRANCH   7  23
TORSDOF 6
ENDMDL
MODEL 2
REMARK VINA RESULT:      -9.5      6.180     11.530
REMARK  6 active torsions:
REMARK  status: ('A' for Active; 'I' for Inactive)
REMARK    1  A    between atoms: C1_7  and  O1_2 
REMARK    2  A    between atoms: C7_13  and  O1_2 
REMARK    3  A    between atoms: C8_14  and  O2_3 
REMARK    4  A    between atoms: C9_15  and  O2_3 
REMARK    5  A    between atoms: C7_13  and  C8_14 
REMARK    6  A    between atoms: C13_19  and  C17_23 
ROOT
HETATM    1  O4  UNK     1      19.760  -1.891  33.893  1.00  0.00    -0.321 OA
HETATM    2  O5  UNK     1      18.538  -1.939  37.785  1.00  0.00    -0.286 OA
HETATM    3  C9  UNK     1      18.003   1.299  33.994  1.00  0.00     0.072 A 
HETATM    4  C10 UNK     1      18.575  -0.816  35.717  1.00  0.00     0.049 A 
HETATM    5  C11 UNK     1      19.029  -0.848  34.399  1.00  0.00     0.091 A 
HETATM    6  C12 UNK     1      18.743   0.210  33.535  1.00  0.00     0.075 A 
HETATM    7  C13 UNK     1      19.670  -3.063  36.018  1.00  0.00     0.048 A 
HETATM    8  C14 UNK     1      18.892  -1.942  36.613  1.00  0.00     0.197 A 
HETATM    9  C15 UNK     1      17.549   1.332  35.312  1.00  0.00     0.038 A 
HETATM   10  C16 UNK     1      17.833   0.275  36.178  1.00  0.00     0.021 A 
HETATM   11  C18 UNK     1      20.032  -2.945  34.731  1.00  0.00     0.159 A 
ENDROOT
BRANCH   3  12
HETATM   12  O2  UNK     1      17.721   2.336  33.150  1.00  0.00    -0.341 OA
BRANCH  12  13
HETATM   13  C8  UNK     1      18.309   2.298  31.865  1.00  0.00     0.286 C 
BRANCH  13  14
HETATM   14  C7  UNK     1      18.309   3.689  31.289  1.00  0.00     0.283 C 
HETATM   15  O3  UNK     1      18.846   4.012  30.238  1.00  0.00    -0.263 OA
BRANCH  14  16
HETATM   16  O1  UNK     1      17.618   4.525  32.123  1.00  0.00    -0.314 OA
BRANCH  16  17
HETATM   17  C1  UNK     1      18.149   5.839  32.263  1.00  0.00     0.132 C 
HETATM   18  C2  UNK     1      17.041   6.796  32.702  1.00  0.00     0.032 C 
HETATM   19  C4  UNK     1      17.581   8.199  32.960  1.00  0.00     0.002 C 
HETATM   20  C6  UNK     1      18.739   8.181  33.954  1.00  0.00     0.000 C 
HETATM   21  C5  UNK     1      19.847   7.224  33.518  1.00  0.00     0.002 C 
HETATM   22  C3  UNK     1      19.305   5.821  33.260  1.00  0.00     0.032 C 
ENDBRANCH  16  17
ENDBRANCH  14  16
ENDBRANCH  13  14
ENDBRANCH  12  13
ENDBRANCH   3  12
BRANCH   7  23
HETATM   23  C17 UNK     1      20.021  -4.266  36.791  1.00  0.00    -0.020 A 
HETATM   24  C19 UNK     1      21.209  -4.307  37.524  1.00  0.00     0.014 A 
HETATM   25  C21 UNK     1      21.541  -5.447  38.257  1.00  0.00     0.024 A 
HETATM   26  C23 UNK     1      20.685  -6.549  38.258  1.00  0.00     0.034 A 
HETATM   27  C22 UNK     1      19.498  -6.510  37.526  1.00  0.00     0.024 A 
HETATM   28 Cl1  UNK     1      21.095  -7.955  39.162  1.00  0.00    -0.084 Cl
HETATM   29  C20 UNK     1      19.166  -5.370  36.794  1.00  0.00     0.014 A 
ENDBRANCH   7  23
TORSDOF 6
ENDMDL
MODEL 3
REMARK VINA RESULT:      -9.4      1.424      2.099
REMARK  6 active torsions:
REMARK  status: ('A' for Active; 'I' for Inactive)
REMARK    1  A    between atoms: C1_7  and  O1_2 
REMARK    2  A    between atoms: C7_13  and  O1_2 
REMARK    3  A    between atoms: C8_14  and  O2_3 
REMARK    4  A    between atoms: C9_15  and  O2_3 
REMARK    5  A    between atoms: C7_13  and  C8_14 
REMARK    6  A    between atoms: C13_19  and  C17_23 
ROOT
HETATM    1  O4  UNK     1      15.033   7.075  33.558  1.00  0.00    -0.321 OA
HETATM    2  O5  UNK     1      17.053  10.530  34.353  1.00  0.00    -0.286 OA
HETATM    3  C9  UNK     1      18.401   6.001  32.670  1.00  0.00     0.072 A 
HETATM    4  C10 UNK     1      17.128   8.300  33.602  1.00  0.00     0.049 A 
HETATM    5  C11 UNK     1      16.388   7.143  33.358  1.00  0.00     0.091 A 
HETATM    6  C12 UNK     1      17.024   5.992  32.892  1.00  0.00     0.075 A 
HETATM    7  C13 UNK     1      14.963   9.392  34.282  1.00  0.00     0.048 A 
HETATM    8  C14 UNK     1      16.436   9.503  34.098  1.00  0.00     0.197 A 
HETATM    9  C15 UNK     1      19.140   7.158  32.914  1.00  0.00     0.038 A 
HETATM   10  C16 UNK     1      18.508   8.311  33.380  1.00  0.00     0.021 A 
HETATM   11  C18 UNK     1      14.396   8.209  34.000  1.00  0.00     0.159 A 
ENDROOT
BRANCH   3  12
HETATM   12  O2  UNK     1      19.025   4.875  32.213  1.00  0.00    -0.341 OA
BRANCH  12  13
HETATM   13  C8  UNK     1      18.224   3.727  32.025  1.00  0.00     0.286 C 
BRANCH  13  14
HETATM   14  C7  UNK     1      18.470   3.184  30.642  1.00  0.00     0.283 C 
HETATM   15  O3  UNK     1      18.847   3.847  29.685  1.00  0.00    -0.263 OA
BRANCH  14  16
HETATM   16  O1  UNK     1      18.206   1.841  30.629  1.00  0.00    -0.314 OA
BRANCH  16  17
HETATM   17  C1  UNK     1      19.333   0.989  30.460  1.00  0.00     0.132 C 
HETATM   18  C2  UNK     1      19.272  -0.151  31.476  1.00  0.00     0.032 C 
HETATM   19  C4  UNK     1      20.408  -1.148  31.272  1.00  0.00     0.002 C 
HETATM   20  C6  UNK     1      20.446  -1.670  29.838  1.00  0.00     0.000 C 
HETATM   21  C5  UNK     1      20.506  -0.532  28.821  1.00  0.00     0.002 C 
HETATM   22  C3  UNK     1      19.368   0.464  29.027  1.00  0.00     0.032 C 
ENDBRANCH  16  17
ENDBRANCH  14  16
ENDBRANCH  13  14
ENDBRANCH  12  13
ENDBRANCH   3  12
BRANCH   7  23
HETATM   23  C17 UNK     1      14.146  10.530  34.734  1.00  0.00    -0.020 A 
HETATM   24  C19 UNK     1      14.135  10.893  36.083  1.00  0.00     0.014 A 
HETATM   25  C21 UNK     1      13.361  11.971  36.512  1.00  0.00     0.024 A 
HETATM   26  C23 UNK     1      12.595  12.689  35.593  1.00  0.00     0.034 A 
HETATM   27  C22 UNK     1      12.603  12.327  34.246  1.00  0.00     0.024 A 
HETATM   28 Cl1  UNK     1      11.639  14.019  36.122  1.00  0.00    -0.084 Cl
HETATM   29  C20 UNK     1      13.377  11.249  33.817  1.00  0.00     0.014 A 
ENDBRANCH   7  23
TORSDOF 6
ENDMDL
MODEL 4
REMARK VINA RESULT:      -9.2     23.266     25.626
REMARK  6 active torsions:
REMARK  status: ('A' for Active; 'I' for Inactive)
REMARK    1  A    between atoms: C1_7  and  O1_2 
REMARK    2  A    between atoms: C7_13  and  O1_2 
REMARK    3  A    between atoms: C8_14  and  O2_3 
REMARK    4  A    between atoms: C9_15  and  O2_3 
REMARK    5  A    between atoms: C7_13  and  C8_14 
REMARK    6  A    between atoms: C13_19  and  C17_23 
ROOT
HETATM    1  O4  UNK     1      15.116  11.180   7.803  1.00  0.00    -0.321 OA
HETATM    2  O5  UNK     1      19.082  11.045   8.749  1.00  0.00    -0.286 OA
HETATM    3  C9  UNK     1      15.037   8.503  10.274  1.00  0.00     0.072 A 
HETATM    4  C10 UNK     1      16.918  10.180   9.083  1.00  0.00     0.049 A 
HETATM    5  C11 UNK     1      15.573  10.279   8.729  1.00  0.00     0.091 A 
HETATM    6  C12 UNK     1      14.630   9.440   9.324  1.00  0.00     0.075 A 
HETATM    7  C13 UNK     1      17.361  12.028   7.430  1.00  0.00     0.048 A 
HETATM    8  C14 UNK     1      17.897  11.079   8.445  1.00  0.00     0.197 A 
HETATM    9  C15 UNK     1      16.382   8.404  10.628  1.00  0.00     0.038 A 
HETATM   10  C16 UNK     1      17.328   9.242  10.035  1.00  0.00     0.021 A 
HETATM   11  C18 UNK     1      16.039  11.998   7.199  1.00  0.00     0.159 A 
ENDROOT
BRANCH   3  12
HETATM   12  O2  UNK     1      14.116   7.680  10.858  1.00  0.00    -0.341 OA
BRANCH  12  13
HETATM   13  C8  UNK     1      12.956   7.379  10.109  1.00  0.00     0.286 C 
BRANCH  13  14
HETATM   14  C7  UNK     1      12.925   5.898   9.836  1.00  0.00     0.283 C 
HETATM   15  O3  UNK     1      13.902   5.162   9.851  1.00  0.00    -0.263 OA
BRANCH  14  16
HETATM   16  O1  UNK     1      11.638   5.514   9.570  1.00  0.00    -0.314 OA
BRANCH  16  17
HETATM   17  C1  UNK     1      10.999   6.190   8.492  1.00  0.00     0.132 C 
HETATM   18  C2  UNK     1      11.572   5.694   7.165  1.00  0.00     0.032 C 
HETATM   19  C4  UNK     1      10.851   6.318   5.974  1.00  0.00     0.002 C 
HETATM   20  C6  UNK     1       9.342   6.101   6.055  1.00  0.00     0.000 C 
HETATM   21  C5  UNK     1       8.768   6.595   7.382  1.00  0.00     0.002 C 
HETATM   22  C3  UNK     1       9.491   5.970   8.572  1.00  0.00     0.032 C 
ENDBRANCH  16  17
ENDBRANCH  14  16
ENDBRANCH  13  14
ENDBRANCH  12  13
ENDBRANCH   3  12
BRANCH   7  23
HETATM   23  C17 UNK     1      18.235  12.953   6.690  1.00  0.00    -0.020 A 
HETATM   24  C19 UNK     1      18.425  14.257   7.152  1.00  0.00     0.014 A 
HETATM   25  C21 UNK     1      19.253  15.134   6.450  1.00  0.00     0.024 A 
HETATM   26  C23 UNK     1      19.892  14.709   5.285  1.00  0.00     0.034 A 
HETATM   27  C22 UNK     1      19.702  13.407   4.822  1.00  0.00     0.024 A 
HETATM   28 Cl1  UNK     1      20.913  15.791   4.420  1.00  0.00    -0.084 Cl
HETATM   29  C20 UNK     1      18.875  12.530   5.524  1.00  0.00     0.014 A 
ENDBRANCH   7  23
TORSDOF 6
ENDMDL
MODEL 5
REMARK VINA RESULT:      -9.0     22.945     25.316
REMARK  6 active torsions:
REMARK  status: ('A' for Active; 'I' for Inactive)
REMARK    1  A    between atoms: C1_7  and  O1_2 
REMARK    2  A    between atoms: C7_13  and  O1_2 
REMARK    3  A    between atoms: C8_14  and  O2_3 
REMARK    4  A    between atoms: C9_15  and  O2_3 
REMARK    5  A    between atoms: C7_13  and  C8_14 
REMARK    6  A    between atoms: C13_19  and  C17_23 
ROOT
HETATM    1  O4  UNK     1      14.964  10.660   7.880  1.00  0.00    -0.321 OA
HETATM    2  O5  UNK     1      18.775  10.719   9.336  1.00  0.00    -0.286 OA
HETATM    3  C9  UNK     1      14.791   7.767  10.089  1.00  0.00     0.072 A 
HETATM    4  C10 UNK     1      16.665   9.676   9.304  1.00  0.00     0.049 A 
HETATM    5  C11 UNK     1      15.372   9.711   8.782  1.00  0.00     0.091 A 
HETATM    6  C12 UNK     1      14.433   8.756   9.174  1.00  0.00     0.075 A 
HETATM    7  C13 UNK     1      17.160  11.696   7.884  1.00  0.00     0.048 A 
HETATM    8  C14 UNK     1      17.639  10.697   8.879  1.00  0.00     0.197 A 
HETATM    9  C15 UNK     1      16.084   7.731  10.611  1.00  0.00     0.038 A 
HETATM   10  C16 UNK     1      17.025   8.685  10.221  1.00  0.00     0.021 A 
HETATM   11  C18 UNK     1      15.886  11.594   7.475  1.00  0.00     0.159 A 
ENDROOT
BRANCH   3  12
HETATM   12  O2  UNK     1      13.874   6.830  10.474  1.00  0.00    -0.341 OA
BRANCH  12  13
HETATM   13  C8  UNK     1      14.147   5.486  10.137  1.00  0.00     0.286 C 
BRANCH  13  14
HETATM   14  C7  UNK     1      13.952   5.306   8.655  1.00  0.00     0.283 C 
HETATM   15  O3  UNK     1      14.803   5.531   7.804  1.00  0.00    -0.263 OA
BRANCH  14  16
HETATM   16  O1  UNK     1      12.683   4.854   8.416  1.00  0.00    -0.314 OA
BRANCH  16  17
HETATM   17  C1  UNK     1      11.741   5.840   8.008  1.00  0.00     0.132 C 
HETATM   18  C2  UNK     1      11.498   5.725   6.503  1.00  0.00     0.032 C 
HETATM   19  C4  UNK     1      10.422   6.698   6.032  1.00  0.00     0.002 C 
HETATM   20  C6  UNK     1       9.129   6.533   6.828  1.00  0.00     0.000 C 
HETATM   21  C5  UNK     1       9.370   6.647   8.331  1.00  0.00     0.002 C 
HETATM   22  C3  UNK     1      10.447   5.673   8.801  1.00  0.00     0.032 C 
ENDBRANCH  16  17
ENDBRANCH  14  16
ENDBRANCH  13  14
ENDBRANCH  12  13
ENDBRANCH   3  12
BRANCH   7  23
HETATM   23  C17 UNK     1      18.042  12.745   7.346  1.00  0.00    -0.020 A 
HETATM   24  C19 UNK     1      18.773  12.516   6.179  1.00  0.00     0.014 A 
HETATM   25  C21 UNK     1      19.609  13.511   5.670  1.00  0.00     0.024 A 
HETATM   26  C23 UNK     1      19.716  14.736   6.328  1.00  0.00     0.034 A 
HETATM   27  C22 UNK     1      18.987  14.967   7.495  1.00  0.00     0.024 A 
HETATM   28 Cl1  UNK     1      20.747  15.963   5.700  1.00  0.00    -0.084 Cl
HETATM   29  C20 UNK     1      18.151  13.972   8.003  1.00  0.00     0.014 A 
ENDBRANCH   7  23
TORSDOF 6
ENDMDL
MODEL 6
REMARK VINA RESULT:      -8.8      2.436      3.168
REMARK  6 active torsions:
REMARK  status: ('A' for Active; 'I' for Inactive)
REMARK    1  A    between atoms: C1_7  and  O1_2 
REMARK    2  A    between atoms: C7_13  and  O1_2 
REMARK    3  A    between atoms: C8_14  and  O2_3 
REMARK    4  A    between atoms: C9_15  and  O2_3 
REMARK    5  A    between atoms: C7_13  and  C8_14 
REMARK    6  A    between atoms: C13_19  and  C17_23 
ROOT
HETATM    1  O4  UNK     1      15.241   6.782  32.612  1.00  0.00    -0.321 OA
HETATM    2  O5  UNK     1      17.423   9.853  34.179  1.00  0.00    -0.286 OA
HETATM    3  C9  UNK     1      18.591   5.450  32.081  1.00  0.00     0.072 A 
HETATM    4  C10 UNK     1      17.407   7.742  33.136  1.00  0.00     0.049 A 
HETATM    5  C11 UNK     1      16.610   6.719  32.624  1.00  0.00     0.091 A 
HETATM    6  C12 UNK     1      17.202   5.571  32.095  1.00  0.00     0.075 A 
HETATM    7  C13 UNK     1      15.273   8.981  33.642  1.00  0.00     0.048 A 
HETATM    8  C14 UNK     1      16.761   8.945  33.693  1.00  0.00     0.197 A 
HETATM    9  C15 UNK     1      19.387   6.474  32.592  1.00  0.00     0.038 A 
HETATM   10  C16 UNK     1      18.799   7.624  33.121  1.00  0.00     0.021 A 
HETATM   11  C18 UNK     1      14.650   7.916  33.115  1.00  0.00     0.159 A 
ENDROOT
BRANCH   3  12
HETATM   12  O2  UNK     1      19.172   4.327  31.563  1.00  0.00    -0.341 OA
BRANCH  12  13
HETATM   13  C8  UNK     1      18.328   3.422  30.881  1.00  0.00     0.286 C 
BRANCH  13  14
HETATM   14  C7  UNK     1      18.361   2.095  31.592  1.00  0.00     0.283 C 
HETATM   15  O3  UNK     1      19.004   1.121  31.227  1.00  0.00    -0.263 OA
BRANCH  14  16
HETATM   16  O1  UNK     1      17.562   2.156  32.701  1.00  0.00    -0.314 OA
BRANCH  16  17
HETATM   17  C1  UNK     1      18.114   1.609  33.894  1.00  0.00     0.132 C 
HETATM   18  C2  UNK     1      18.580   2.740  34.809  1.00  0.00     0.032 C 
HETATM   19  C4  UNK     1      19.092   2.207  36.144  1.00  0.00     0.002 C 
HETATM   20  C6  UNK     1      18.056   1.317  36.827  1.00  0.00     0.000 C 
HETATM   21  C5  UNK     1      17.589   0.187  35.913  1.00  0.00     0.002 C 
HETATM   22  C3  UNK     1      17.077   0.721  34.578  1.00  0.00     0.032 C 
ENDBRANCH  16  17
ENDBRANCH  14  16
ENDBRANCH  13  14
ENDBRANCH  12  13
ENDBRANCH   3  12
BRANCH   7  23
HETATM   23  C17 UNK     1      14.505  10.139  34.128  1.00  0.00    -0.020 A 
HETATM   24  C19 UNK     1      13.789  10.933  33.230  1.00  0.00     0.014 A 
HETATM   25  C21 UNK     1      13.061  12.030  33.691  1.00  0.00     0.024 A 
HETATM   26  C23 UNK     1      13.048  12.335  35.052  1.00  0.00     0.034 A 
HETATM   27  C22 UNK     1      13.762  11.544  35.951  1.00  0.00     0.024 A 
HETATM   28 Cl1  UNK     1      12.150  13.689  35.621  1.00  0.00    -0.084 Cl
HETATM   29  C20 UNK     1      14.490  10.447  35.490  1.00  0.00     0.014 A 
ENDBRANCH   7  23
TORSDOF 6
ENDMDL
MODEL 7
REMARK VINA RESULT:      -8.8      1.334      2.602
REMARK  6 active torsions:
REMARK  status: ('A' for Active; 'I' for Inactive)
REMARK    1  A    between atoms: C1_7  and  O1_2 
REMARK    2  A    between atoms: C7_13  and  O1_2 
REMARK    3  A    between atoms: C8_14  and  O2_3 
REMARK    4  A    between atoms: C9_15  and  O2_3 
REMARK    5  A    between atoms: C7_13  and  C8_14 
REMARK    6  A    between atoms: C13_19  and  C17_23 
ROOT
HETATM    1  O4  UNK     1      19.203   9.072  33.828  1.00  0.00    -0.321 OA
HETATM    2  O5  UNK     1      15.189   9.529  33.259  1.00  0.00    -0.286 OA
HETATM    3  C9  UNK     1      18.436   5.798  32.424  1.00  0.00     0.072 A 
HETATM    4  C10 UNK     1      17.085   8.143  33.094  1.00  0.00     0.049 A 
HETATM    5  C11 UNK     1      18.461   8.048  33.300  1.00  0.00     0.091 A 
HETATM    6  C12 UNK     1      19.138   6.875  32.965  1.00  0.00     0.075 A 
HETATM    7  C13 UNK     1      17.231  10.472  34.040  1.00  0.00     0.048 A 
HETATM    8  C14 UNK     1      16.391   9.393  33.451  1.00  0.00     0.197 A 
HETATM    9  C15 UNK     1      17.060   5.894  32.218  1.00  0.00     0.038 A 
HETATM   10  C16 UNK     1      16.379   7.066  32.552  1.00  0.00     0.021 A 
HETATM   11  C18 UNK     1      18.542  10.225  34.177  1.00  0.00     0.159 A 
ENDROOT
BRANCH   3  12
HETATM   12  O2  UNK     1      19.097   4.649  32.096  1.00  0.00    -0.341 OA
BRANCH  12  13
HETATM   13  C8  UNK     1      18.560   3.876  31.042  1.00  0.00     0.286 C 
BRANCH  13  14
HETATM   14  C7  UNK     1      18.156   2.530  31.583  1.00  0.00     0.283 C 
HETATM   15  O3  UNK     1      17.870   2.300  32.750  1.00  0.00    -0.263 OA
BRANCH  14  16
HETATM   16  O1  UNK     1      18.162   1.614  30.566  1.00  0.00    -0.314 OA
BRANCH  16  17
HETATM   17  C1  UNK     1      19.329   0.803  30.468  1.00  0.00     0.132 C 
HETATM   18  C2  UNK     1      19.213  -0.380  31.428  1.00  0.00     0.032 C 
HETATM   19  C4  UNK     1      20.397  -1.332  31.291  1.00  0.00     0.002 C 
HETATM   20  C6  UNK     1      20.583  -1.792  29.847  1.00  0.00     0.000 C 
HETATM   21  C5  UNK     1      20.697  -0.611  28.886  1.00  0.00     0.002 C 
HETATM   22  C3  UNK     1      19.512   0.341  29.025  1.00  0.00     0.032 C 
ENDBRANCH  16  17
ENDBRANCH  14  16
ENDBRANCH  13  14
ENDBRANCH  12  13
ENDBRANCH   3  12
BRANCH   7  23
HETATM   23  C17 UNK     1      16.657  11.756  34.476  1.00  0.00    -0.020 A 
HETATM   24  C19 UNK     1      15.564  11.776  35.346  1.00  0.00     0.014 A 
HETATM   25  C21 UNK     1      15.020  12.993  35.759  1.00  0.00     0.024 A 
HETATM   26  C23 UNK     1      15.568  14.192  35.303  1.00  0.00     0.034 A 
HETATM   27  C22 UNK     1      16.659  14.175  34.435  1.00  0.00     0.024 A 
HETATM   28 Cl1  UNK     1      14.897  15.693  35.813  1.00  0.00    -0.084 Cl
HETATM   29  C20 UNK     1      17.203  12.958  34.021  1.00  0.00     0.014 A 
ENDBRANCH   7  23
TORSDOF 6
ENDMDL
MODEL 8
REMARK VINA RESULT:      -8.8     23.150     25.425
REMARK  6 active torsions:
REMARK  status: ('A' for Active; 'I' for Inactive)
REMARK    1  A    between atoms: C1_7  and  O1_2 
REMARK    2  A    between atoms: C7_13  and  O1_2 
REMARK    3  A    between atoms: C8_14  and  O2_3 
REMARK    4  A    between atoms: C9_15  and  O2_3 
REMARK    5  A    between atoms: C7_13  and  C8_14 
REMARK    6  A    between atoms: C13_19  and  C17_23 
ROOT
HETATM    1  O4  UNK     1      18.621  10.487   9.031  1.00  0.00    -0.321 OA
HETATM    2  O5  UNK     1      15.547  12.396   7.145  1.00  0.00    -0.286 OA
HETATM    3  C9  UNK     1      15.875   8.315  10.041  1.00  0.00     0.072 A 
HETATM    4  C10 UNK     1      16.251  10.623   8.525  1.00  0.00     0.049 A 
HETATM    5  C11 UNK     1      17.341  10.006   9.137  1.00  0.00     0.091 A 
HETATM    6  C12 UNK     1      17.154   8.851   9.897  1.00  0.00     0.075 A 
HETATM    7  C13 UNK     1      17.873  12.340   7.651  1.00  0.00     0.048 A 
HETATM    8  C14 UNK     1      16.472  11.841   7.724  1.00  0.00     0.197 A 
HETATM    9  C15 UNK     1      14.785   8.932   9.429  1.00  0.00     0.038 A 
HETATM   10  C16 UNK     1      14.968  10.088   8.669  1.00  0.00     0.021 A 
HETATM   11  C18 UNK     1      18.812  11.634   8.299  1.00  0.00     0.159 A 
ENDROOT
BRANCH   3  12
HETATM   12  O2  UNK     1      15.690   7.184  10.785  1.00  0.00    -0.341 OA
BRANCH  12  13
HETATM   13  C8  UNK     1      14.742   6.250  10.311  1.00  0.00     0.286 C 
BRANCH  13  14
HETATM   14  C7  UNK     1      15.404   5.356   9.296  1.00  0.00     0.283 C 
HETATM   15  O3  UNK     1      16.436   4.727   9.484  1.00  0.00    -0.263 OA
BRANCH  14  16
HETATM   16  O1  UNK     1      14.672   5.363   8.140  1.00  0.00    -0.314 OA
BRANCH  16  17
HETATM   17  C1  UNK     1      13.344   5.864   8.251  1.00  0.00     0.132 C 
HETATM   18  C2  UNK     1      13.045   6.788   7.071  1.00  0.00     0.032 C 
HETATM   19  C4  UNK     1      11.600   7.275   7.091  1.00  0.00     0.002 C 
HETATM   20  C6  UNK     1      10.615   6.111   7.161  1.00  0.00     0.000 C 
HETATM   21  C5  UNK     1      10.913   5.186   8.339  1.00  0.00     0.002 C 
HETATM   22  C3  UNK     1      12.359   4.699   8.318  1.00  0.00     0.032 C 
ENDBRANCH  16  17
ENDBRANCH  14  16
ENDBRANCH  13  14
ENDBRANCH  12  13
ENDBRANCH   3  12
BRANCH   7  23
HETATM   23  C17 UNK     1      18.225  13.567   6.917  1.00  0.00    -0.020 A 
HETATM   24  C19 UNK     1      18.707  13.487   5.608  1.00  0.00     0.014 A 
HETATM   25  C21 UNK     1      19.041  14.649   4.913  1.00  0.00     0.024 A 
HETATM   26  C23 UNK     1      18.896  15.894   5.525  1.00  0.00     0.034 A 
HETATM   27  C22 UNK     1      18.416  15.977   6.832  1.00  0.00     0.024 A 
HETATM   28 Cl1  UNK     1      19.308  17.328   4.667  1.00  0.00    -0.084 Cl
HETATM   29  C20 UNK     1      18.081  14.814   7.527  1.00  0.00     0.014 A 
ENDBRANCH   7  23
TORSDOF 6
ENDMDL
MODEL 9
REMARK VINA RESULT:      -8.7     16.340     17.759
REMARK  6 active torsions:
REMARK  status: ('A' for Active; 'I' for Inactive)
REMARK    1  A    between atoms: C1_7  and  O1_2 
REMARK    2  A    between atoms: C7_13  and  O1_2 
REMARK    3  A    between atoms: C8_14  and  O2_3 
REMARK    4  A    between atoms: C9_15  and  O2_3 
REMARK    5  A    between atoms: C7_13  and  C8_14 
REMARK    6  A    between atoms: C13_19  and  C17_23 
ROOT
HETATM    1  O4  UNK     1      27.640  -8.620  38.691  1.00  0.00    -0.321 OA
HETATM    2  O5  UNK     1      25.149  -5.389  38.655  1.00  0.00    -0.286 OA
HETATM    3  C9  UNK     1      30.131  -5.962  38.597  1.00  0.00     0.072 A 
HETATM    4  C10 UNK     1      27.354  -6.212  38.626  1.00  0.00     0.049 A 
HETATM    5  C11 UNK     1      28.157  -7.351  38.651  1.00  0.00     0.091 A 
HETATM    6  C12 UNK     1      29.547  -7.228  38.637  1.00  0.00     0.075 A 
HETATM    7  C13 UNK     1      25.369  -7.760  38.668  1.00  0.00     0.048 A 
HETATM    8  C14 UNK     1      25.888  -6.365  38.646  1.00  0.00     0.197 A 
HETATM    9  C15 UNK     1      29.328  -4.822  38.572  1.00  0.00     0.038 A 
HETATM   10  C16 UNK     1      27.937  -4.942  38.586  1.00  0.00     0.021 A 
HETATM   11  C18 UNK     1      26.272  -8.752  38.688  1.00  0.00     0.159 A 
ENDROOT
BRANCH   3  12
HETATM   12  O2  UNK     1      31.491  -5.839  38.583  1.00  0.00    -0.341 OA
BRANCH  12  13
HETATM   13  C8  UNK     1      32.185  -6.492  37.540  1.00  0.00     0.286 C 
BRANCH  13  14
HETATM   14  C7  UNK     1      32.084  -5.657  36.291  1.00  0.00     0.283 C 
HETATM   15  O3  UNK     1      32.382  -4.473  36.213  1.00  0.00    -0.263 OA
BRANCH  14  16
HETATM   16  O1  UNK     1      31.610  -6.431  35.266  1.00  0.00    -0.314 OA
BRANCH  16  17
HETATM   17  C1  UNK     1      30.371  -6.017  34.699  1.00  0.00     0.132 C 
HETATM   18  C2  UNK     1      30.525  -5.863  33.187  1.00  0.00     0.032 C 
HETATM   19  C4  UNK     1      29.198  -5.515  32.520  1.00  0.00     0.002 C 
HETATM   20  C6  UNK     1      28.108  -6.522  32.878  1.00  0.00     0.000 C 
HETATM   21  C5  UNK     1      27.954  -6.677  34.389  1.00  0.00     0.002 C 
HETATM   22  C3  UNK     1      29.282  -7.026  35.055  1.00  0.00     0.032 C 
ENDBRANCH  16  17
ENDBRANCH  14  16
ENDBRANCH  13  14
ENDBRANCH  12  13
ENDBRANCH   3  12
BRANCH   7  23
HETATM   23  C17 UNK     1      23.927  -8.055  38.651  1.00  0.00    -0.020 A 
HETATM   24  C19 UNK     1      23.311  -8.475  37.470  1.00  0.00     0.014 A 
HETATM   25  C21 UNK     1      21.944  -8.754  37.453  1.00  0.00     0.024 A 
HETATM   26  C23 UNK     1      21.190  -8.613  38.618  1.00  0.00     0.034 A 
HETATM   27  C22 UNK     1      21.802  -8.194  39.799  1.00  0.00     0.024 A 
HETATM   28 Cl1  UNK     1      19.504  -8.958  38.597  1.00  0.00    -0.084 Cl
HETATM   29  C20 UNK     1      23.169  -7.915  39.815  1.00  0.00     0.014 A 
ENDBRANCH   7  23
TORSDOF 6
ENDMDL
MODEL 10
REMARK VINA RESULT:      -8.7     15.126     19.530
REMARK  6 active torsions:
REMARK  status: ('A' for Active; 'I' for Inactive)
REMARK    1  A    between atoms: C1_7  and  O1_2 
REMARK    2  A    between atoms: C7_13  and  O1_2 
REMARK    3  A    between atoms: C8_14  and  O2_3 
REMARK    4  A    between atoms: C9_15  and  O2_3 
REMARK    5  A    between atoms: C7_13  and  C8_14 
REMARK    6  A    between atoms: C13_19  and  C17_23 
ROOT
HETATM    1  O4  UNK     1      28.777  -6.337  37.260  1.00  0.00    -0.321 OA
HETATM    2  O5  UNK     1      31.258  -9.441  38.187  1.00  0.00    -0.286 OA
HETATM    3  C9  UNK     1      26.417  -8.459  39.051  1.00  0.00     0.072 A 
HETATM    4  C10 UNK     1      29.099  -8.509  38.294  1.00  0.00     0.049 A 
HETATM    5  C11 UNK     1      28.301  -7.416  37.959  1.00  0.00     0.091 A 
HETATM    6  C12 UNK     1      26.958  -7.390  38.337  1.00  0.00     0.075 A 
HETATM    7  C13 UNK     1      30.987  -7.333  37.113  1.00  0.00     0.048 A 
HETATM    8  C14 UNK     1      30.516  -8.514  37.887  1.00  0.00     0.197 A 
HETATM    9  C15 UNK     1      27.215  -9.552  39.385  1.00  0.00     0.038 A 
HETATM   10  C16 UNK     1      28.559  -9.582  39.008  1.00  0.00     0.021 A 
HETATM   11  C18 UNK     1      30.094  -6.362  36.869  1.00  0.00     0.159 A 
ENDROOT
BRANCH   3  12
HETATM   12  O2  UNK     1      25.102  -8.435  39.422  1.00  0.00    -0.341 OA
BRANCH  12  13
HETATM   13  C8  UNK     1      24.184  -7.882  38.501  1.00  0.00     0.286 C 
BRANCH  13  14
HETATM   14  C7  UNK     1      23.547  -6.666  39.120  1.00  0.00     0.283 C 
HETATM   15  O3  UNK     1      24.052  -5.552  39.154  1.00  0.00    -0.263 OA
BRANCH  14  16
HETATM   16  O1  UNK     1      22.326  -7.006  39.634  1.00  0.00    -0.314 OA
BRANCH  16  17
HETATM   17  C1  UNK     1      21.336  -7.383  38.683  1.00  0.00     0.132 C 
HETATM   18  C2  UNK     1      20.193  -8.109  39.392  1.00  0.00     0.032 C 
HETATM   19  C4  UNK     1      19.060  -8.448  38.428  1.00  0.00     0.002 C 
HETATM   20  C6  UNK     1      18.567  -7.210  37.683  1.00  0.00     0.000 C 
HETATM   21  C5  UNK     1      19.708  -6.483  36.975  1.00  0.00     0.002 C 
HETATM   22  C3  UNK     1      20.841  -6.144  37.940  1.00  0.00     0.032 C 
ENDBRANCH  16  17
ENDBRANCH  14  16
ENDBRANCH  13  14
ENDBRANCH  12  13
ENDBRANCH   3  12
BRANCH   7  23
HETATM   23  C17 UNK     1      32.368  -7.229  36.613  1.00  0.00    -0.020 A 
HETATM   24  C19 UNK     1      32.746  -7.908  35.452  1.00  0.00     0.014 A 
HETATM   25  C21 UNK     1      34.055  -7.810  34.979  1.00  0.00     0.024 A 
HETATM   26  C23 UNK     1      34.988  -7.033  35.665  1.00  0.00     0.034 A 
HETATM   27  C22 UNK     1      34.613  -6.354  36.824  1.00  0.00     0.024 A 
HETATM   28 Cl1  UNK     1      36.602  -6.912  35.081  1.00  0.00    -0.084 Cl
HETATM   29  C20 UNK     1      33.305  -6.453  37.298  1.00  0.00     0.014 A 
ENDBRANCH   7  23
TORSDOF 6
ENDMDL
