MODEL 1
REMARK VINA RESULT:     -10.2      0.000      0.000
REMARK  3 active torsions:
REMARK  status: ('A' for Active; 'I' for Inactive)
REMARK    1  A    between atoms: C5_11  and  O2_2 
REMARK    2  A    between atoms: C11_17  and  N1_5 
REMARK       I    between atoms: C8_14  and  N1_5 
REMARK    3  A    between atoms: C3_9  and  C8_14 
ROOT
HETATM    1  N2  UNK     1      19.125   2.778  15.673  1.00  0.00    -0.191 NA
HETATM    2  C11 UNK     1      19.180   0.265  18.146  1.00  0.00     0.055 A 
HETATM    3  C12 UNK     1      19.170   1.654  18.010  1.00  0.00     0.071 A 
HETATM    4  C13 UNK     1      19.204  -0.310  19.415  1.00  0.00     0.031 A 
HETATM    5  C14 UNK     1      19.185   2.465  19.144  1.00  0.00     0.025 A 
HETATM    6  C15 UNK     1      19.220   0.502  20.549  1.00  0.00     0.002 A 
HETATM    7  C16 UNK     1      19.210   1.890  20.413  1.00  0.00     0.002 A 
HETATM    8  C18 UNK     1      19.146   2.275  16.718  1.00  0.00     0.102 C 
ENDROOT
BRANCH   2   9
HETATM    9  N1  UNK     1      19.165  -0.585  17.013  1.00  0.00    -0.321 N 
HETATM   10  C8  UNK     1      18.133  -1.413  16.590  1.00  0.00     0.262 C 
HETATM   11  O4  UNK     1      17.029  -1.574  17.107  1.00  0.00    -0.267 OA
HETATM   12  H5  UNK     1      20.014  -0.586  16.455  1.00  0.00     0.169 HD
BRANCH  10  13
HETATM   13  C3  UNK     1      18.480  -2.150  15.369  1.00  0.00     0.108 A 
HETATM   14  C4  UNK     1      18.164  -3.450  15.353  1.00  0.00     0.037 A 
HETATM   15  C1  UNK     1      18.468  -4.264  14.186  1.00  0.00     0.002 A 
HETATM   16  C2  UNK     1      19.091  -3.669  13.094  1.00  0.00     0.123 A 
HETATM   17  C6  UNK     1      18.156  -5.625  14.125  1.00  0.00     0.014 A 
HETATM   18  O1  UNK     1      19.421  -2.300  13.117  1.00  0.00    -0.271 OA
HETATM   19  C5  UNK     1      19.409  -4.393  11.946  1.00  0.00     0.102 A 
HETATM   20  C7  UNK     1      19.142  -1.496  14.218  1.00  0.00     0.304 A 
HETATM   21  O3  UNK     1      19.433  -0.304  14.229  1.00  0.00    -0.259 OA
HETATM   22  C9  UNK     1      19.094  -5.749  11.895  1.00  0.00     0.040 A 
HETATM   23  C10 UNK     1      18.469  -6.364  12.981  1.00  0.00     0.004 A 
BRANCH  19  24
HETATM   24  O2  UNK     1      20.018  -3.798  10.886  1.00  0.00    -0.353 OA
HETATM   25  C17 UNK     1      19.331  -3.838   9.636  1.00  0.00     0.210 C 
ENDBRANCH  19  24
ENDBRANCH  10  13
ENDBRANCH   2   9
TORSDOF 3
ENDMDL
MODEL 2
REMARK VINA RESULT:      -9.7     19.150     21.731
REMARK  3 active torsions:
REMARK  status: ('A' for Active; 'I' for Inactive)
REMARK    1  A    between atoms: C5_11  and  O2_2 
REMARK    2  A    between atoms: C11_17  and  N1_5 
REMARK       I    between atoms: C8_14  and  N1_5 
REMARK    3  A    between atoms: C3_9  and  C8_14 
ROOT
HETATM    1  N2  UNK     1      20.867  -6.840  33.539  1.00  0.00    -0.191 NA
HETATM    2  C11 UNK     1      19.351  -6.760  36.721  1.00  0.00     0.055 A 
HETATM    3  C12 UNK     1      19.936  -7.650  35.819  1.00  0.00     0.071 A 
HETATM    4  C13 UNK     1      18.859  -7.225  37.939  1.00  0.00     0.031 A 
HETATM    5  C14 UNK     1      20.027  -9.005  36.137  1.00  0.00     0.025 A 
HETATM    6  C15 UNK     1      18.950  -8.581  38.256  1.00  0.00     0.002 A 
HETATM    7  C16 UNK     1      19.534  -9.470  37.355  1.00  0.00     0.002 A 
HETATM    8  C18 UNK     1      20.449  -7.202  34.559  1.00  0.00     0.102 C 
ENDROOT
BRANCH   2   9
HETATM    9  N1  UNK     1      19.244  -5.379  36.427  1.00  0.00    -0.321 N 
HETATM   10  C8  UNK     1      20.189  -4.388  36.658  1.00  0.00     0.262 C 
HETATM   11  O4  UNK     1      21.305  -4.507  37.161  1.00  0.00    -0.267 OA
HETATM   12  H5  UNK     1      18.367  -5.088  36.001  1.00  0.00     0.169 HD
BRANCH  10  13
HETATM   13  C3  UNK     1      19.725  -3.067  36.220  1.00  0.00     0.108 A 
HETATM   14  C4  UNK     1      19.017  -2.363  37.112  1.00  0.00     0.037 A 
HETATM   15  C1  UNK     1      18.514  -1.041  36.770  1.00  0.00     0.002 A 
HETATM   16  C2  UNK     1      18.780  -0.527  35.505  1.00  0.00     0.123 A 
HETATM   17  C6  UNK     1      17.771  -0.272  37.669  1.00  0.00     0.014 A 
HETATM   18  O1  UNK     1      19.525  -1.272  34.571  1.00  0.00    -0.271 OA
HETATM   19  C5  UNK     1      18.326   0.732  35.115  1.00  0.00     0.102 A 
HETATM   20  C7  UNK     1      20.020  -2.538  34.869  1.00  0.00     0.304 A 
HETATM   21  O3  UNK     1      20.669  -3.180  34.050  1.00  0.00    -0.259 OA
HETATM   22  C9  UNK     1      17.587   1.493  36.018  1.00  0.00     0.040 A 
HETATM   23  C10 UNK     1      17.310   0.993  37.292  1.00  0.00     0.004 A 
BRANCH  19  24
HETATM   24  O2  UNK     1      18.593   1.223  33.875  1.00  0.00    -0.353 OA
HETATM   25  C17 UNK     1      18.226   2.579  33.620  1.00  0.00     0.210 C 
ENDBRANCH  19  24
ENDBRANCH  10  13
ENDBRANCH   2   9
TORSDOF 3
ENDMDL
MODEL 3
REMARK VINA RESULT:      -9.6      1.323      2.286
REMARK  3 active torsions:
REMARK  status: ('A' for Active; 'I' for Inactive)
REMARK    1  A    between atoms: C5_11  and  O2_2 
REMARK    2  A    between atoms: C11_17  and  N1_5 
REMARK       I    between atoms: C8_14  and  N1_5 
REMARK    3  A    between atoms: C3_9  and  C8_14 
ROOT
HETATM    1  N2  UNK     1      19.314   2.720  15.538  1.00  0.00    -0.191 NA
HETATM    2  C11 UNK     1      19.077   0.201  17.993  1.00  0.00     0.055 A 
HETATM    3  C12 UNK     1      19.128   1.589  17.864  1.00  0.00     0.071 A 
HETATM    4  C13 UNK     1      18.977  -0.379  19.257  1.00  0.00     0.031 A 
HETATM    5  C14 UNK     1      19.079   2.396  19.000  1.00  0.00     0.025 A 
HETATM    6  C15 UNK     1      18.929   0.429  20.393  1.00  0.00     0.002 A 
HETATM    7  C16 UNK     1      18.980   1.817  20.264  1.00  0.00     0.002 A 
HETATM    8  C18 UNK     1      19.231   2.214  16.579  1.00  0.00     0.102 C 
ENDROOT
BRANCH   2   9
HETATM    9  N1  UNK     1      19.124  -0.646  16.858  1.00  0.00    -0.321 N 
HETATM   10  C8  UNK     1      18.173  -1.574  16.454  1.00  0.00     0.262 C 
HETATM   11  O4  UNK     1      17.104  -1.847  16.994  1.00  0.00    -0.267 OA
HETATM   12  H5  UNK     1      19.958  -0.559  16.281  1.00  0.00     0.169 HD
BRANCH  10  13
HETATM   13  C3  UNK     1      18.567  -2.270  15.224  1.00  0.00     0.108 A 
HETATM   14  C4  UNK     1      19.278  -1.557  14.342  1.00  0.00     0.037 A 
HETATM   15  C1  UNK     1      19.715  -2.161  13.093  1.00  0.00     0.002 A 
HETATM   16  C2  UNK     1      19.380  -3.486  12.833  1.00  0.00     0.123 A 
HETATM   17  C6  UNK     1      20.459  -1.455  12.144  1.00  0.00     0.014 A 
HETATM   18  O1  UNK     1      18.631  -4.231  13.764  1.00  0.00    -0.271 OA
HETATM   19  C5  UNK     1      19.767  -4.124  11.655  1.00  0.00     0.102 A 
HETATM   20  C7  UNK     1      18.200  -3.681  14.968  1.00  0.00     0.304 A 
HETATM   21  O3  UNK     1      17.548  -4.338  15.773  1.00  0.00    -0.259 OA
HETATM   22  C9  UNK     1      20.509  -3.412  10.715  1.00  0.00     0.040 A 
HETATM   23  C10 UNK     1      20.855  -2.081  10.959  1.00  0.00     0.004 A 
BRANCH  19  24
HETATM   24  O2  UNK     1      19.432  -5.419  11.413  1.00  0.00    -0.353 OA
HETATM   25  C17 UNK     1      20.484  -6.382  11.464  1.00  0.00     0.210 C 
ENDBRANCH  19  24
ENDBRANCH  10  13
ENDBRANCH   2   9
TORSDOF 3
ENDMDL
MODEL 4
REMARK VINA RESULT:      -9.2     15.091     17.487
REMARK  3 active torsions:
REMARK  status: ('A' for Active; 'I' for Inactive)
REMARK    1  A    between atoms: C5_11  and  O2_2 
REMARK    2  A    between atoms: C11_17  and  N1_5 
REMARK       I    between atoms: C8_14  and  N1_5 
REMARK    3  A    between atoms: C3_9  and  C8_14 
ROOT
HETATM    1  N2  UNK     1      20.601   6.701  33.092  1.00  0.00    -0.191 NA
HETATM    2  C11 UNK     1      17.187   6.122  32.432  1.00  0.00     0.055 A 
HETATM    3  C12 UNK     1      18.067   7.149  32.780  1.00  0.00     0.071 A 
HETATM    4  C13 UNK     1      15.829   6.394  32.271  1.00  0.00     0.031 A 
HETATM    5  C14 UNK     1      17.587   8.445  32.966  1.00  0.00     0.025 A 
HETATM    6  C15 UNK     1      15.349   7.690  32.459  1.00  0.00     0.002 A 
HETATM    7  C16 UNK     1      16.229   8.715  32.806  1.00  0.00     0.002 A 
HETATM    8  C18 UNK     1      19.467   6.901  32.952  1.00  0.00     0.102 C 
ENDROOT
BRANCH   2   9
HETATM    9  N1  UNK     1      17.644   4.796  32.236  1.00  0.00    -0.321 N 
HETATM   10  C8  UNK     1      18.305   4.284  31.127  1.00  0.00     0.262 C 
HETATM   11  O4  UNK     1      18.627   4.873  30.098  1.00  0.00    -0.267 OA
HETATM   12  H5  UNK     1      17.457   4.151  33.000  1.00  0.00     0.169 HD
BRANCH  10  13
HETATM   13  C3  UNK     1      18.624   2.860  31.282  1.00  0.00     0.108 A 
HETATM   14  C4  UNK     1      19.124   2.245  30.204  1.00  0.00     0.037 A 
HETATM   15  C1  UNK     1      19.472   0.833  30.260  1.00  0.00     0.002 A 
HETATM   16  C2  UNK     1      19.274   0.139  31.449  1.00  0.00     0.123 A 
HETATM   17  C6  UNK     1      19.997   0.151  29.160  1.00  0.00     0.014 A 
HETATM   18  O1  UNK     1      18.747   0.791  32.581  1.00  0.00    -0.271 OA
HETATM   19  C5  UNK     1      19.586  -1.215  31.569  1.00  0.00     0.102 A 
HETATM   20  C7  UNK     1      18.406   2.140  32.558  1.00  0.00     0.304 A 
HETATM   21  O3  UNK     1      17.948   2.701  33.548  1.00  0.00    -0.259 OA
HETATM   22  C9  UNK     1      20.109  -1.887  30.467  1.00  0.00     0.040 A 
HETATM   23  C10 UNK     1      20.314  -1.206  29.264  1.00  0.00     0.004 A 
BRANCH  19  24
HETATM   24  O2  UNK     1      19.387  -1.882  32.737  1.00  0.00    -0.353 OA
HETATM   25  C17 UNK     1      20.526  -2.504  33.331  1.00  0.00     0.210 C 
ENDBRANCH  19  24
ENDBRANCH  10  13
ENDBRANCH   2   9
TORSDOF 3
ENDMDL
MODEL 5
REMARK VINA RESULT:      -9.0     19.428     22.439
REMARK  3 active torsions:
REMARK  status: ('A' for Active; 'I' for Inactive)
REMARK    1  A    between atoms: C5_11  and  O2_2 
REMARK    2  A    between atoms: C11_17  and  N1_5 
REMARK       I    between atoms: C8_14  and  N1_5 
REMARK    3  A    between atoms: C3_9  and  C8_14 
ROOT
HETATM    1  N2  UNK     1      17.355  -6.875  37.159  1.00  0.00    -0.191 NA
HETATM    2  C11 UNK     1      20.579  -6.005  38.290  1.00  0.00     0.055 A 
HETATM    3  C12 UNK     1      19.697  -7.086  38.252  1.00  0.00     0.071 A 
HETATM    4  C13 UNK     1      21.832  -6.149  38.884  1.00  0.00     0.031 A 
HETATM    5  C14 UNK     1      20.069  -8.309  38.810  1.00  0.00     0.025 A 
HETATM    6  C15 UNK     1      22.203  -7.372  39.443  1.00  0.00     0.002 A 
HETATM    7  C16 UNK     1      21.321  -8.452  39.405  1.00  0.00     0.002 A 
HETATM    8  C18 UNK     1      18.403  -6.969  37.649  1.00  0.00     0.102 C 
ENDROOT
BRANCH   2   9
HETATM    9  N1  UNK     1      20.230  -4.751  37.732  1.00  0.00    -0.321 N 
HETATM   10  C8  UNK     1      20.076  -4.435  36.389  1.00  0.00     0.262 C 
HETATM   11  O4  UNK     1      20.208  -5.175  35.416  1.00  0.00    -0.267 OA
HETATM   12  H5  UNK     1      20.082  -4.000  38.402  1.00  0.00     0.169 HD
BRANCH  10  13
HETATM   13  C3  UNK     1      19.709  -3.028  36.189  1.00  0.00     0.108 A 
HETATM   14  C4  UNK     1      18.947  -2.475  37.140  1.00  0.00     0.037 A 
HETATM   15  C1  UNK     1      18.532  -1.085  37.032  1.00  0.00     0.002 A 
HETATM   16  C2  UNK     1      18.938  -0.346  35.925  1.00  0.00     0.123 A 
HETATM   17  C6  UNK     1      17.737  -0.467  38.000  1.00  0.00     0.014 A 
HETATM   18  O1  UNK     1      19.740  -0.934  34.927  1.00  0.00    -0.271 OA
HETATM   19  C5  UNK     1      18.574   0.989  35.760  1.00  0.00     0.102 A 
HETATM   20  C7  UNK     1      20.153  -2.261  35.004  1.00  0.00     0.304 A 
HETATM   21  O3  UNK     1      20.851  -2.764  34.130  1.00  0.00    -0.259 OA
HETATM   22  C9  UNK     1      17.782   1.598  36.731  1.00  0.00     0.040 A 
HETATM   23  C10 UNK     1      17.364   0.872  37.849  1.00  0.00     0.004 A 
BRANCH  19  24
HETATM   24  O2  UNK     1      18.979   1.700  34.673  1.00  0.00    -0.353 OA
HETATM   25  C17 UNK     1      18.054   1.816  33.593  1.00  0.00     0.210 C 
ENDBRANCH  19  24
ENDBRANCH  10  13
ENDBRANCH   2   9
TORSDOF 3
ENDMDL
MODEL 6
REMARK VINA RESULT:      -8.9     19.358     21.897
REMARK  3 active torsions:
REMARK  status: ('A' for Active; 'I' for Inactive)
REMARK    1  A    between atoms: C5_11  and  O2_2 
REMARK    2  A    between atoms: C11_17  and  N1_5 
REMARK       I    between atoms: C8_14  and  N1_5 
REMARK    3  A    between atoms: C3_9  and  C8_14 
ROOT
HETATM    1  N2  UNK     1      20.151  -2.129  33.367  1.00  0.00    -0.191 NA
HETATM    2  C11 UNK     1      18.453  -1.915  36.449  1.00  0.00     0.055 A 
HETATM    3  C12 UNK     1      18.774  -1.144  35.330  1.00  0.00     0.071 A 
HETATM    4  C13 UNK     1      17.711  -1.357  37.489  1.00  0.00     0.031 A 
HETATM    5  C14 UNK     1      18.351   0.182  35.254  1.00  0.00     0.025 A 
HETATM    6  C15 UNK     1      17.289  -0.030  37.412  1.00  0.00     0.002 A 
HETATM    7  C16 UNK     1      17.610   0.740  36.294  1.00  0.00     0.002 A 
HETATM    8  C18 UNK     1      19.535  -1.689  34.246  1.00  0.00     0.102 C 
ENDROOT
BRANCH   2   9
HETATM    9  N1  UNK     1      18.867  -3.264  36.556  1.00  0.00    -0.321 N 
HETATM   10  C8  UNK     1      19.977  -3.758  37.231  1.00  0.00     0.262 C 
HETATM   11  O4  UNK     1      20.819  -3.129  37.868  1.00  0.00    -0.267 OA
HETATM   12  H5  UNK     1      18.280  -3.942  36.077  1.00  0.00     0.169 HD
BRANCH  10  13
HETATM   13  C3  UNK     1      20.086  -5.218  37.122  1.00  0.00     0.108 A 
HETATM   14  C4  UNK     1      20.021  -5.903  38.270  1.00  0.00     0.037 A 
HETATM   15  C1  UNK     1      20.119  -7.354  38.264  1.00  0.00     0.002 A 
HETATM   16  C2  UNK     1      20.282  -8.013  37.050  1.00  0.00     0.123 A 
HETATM   17  C6  UNK     1      20.056  -8.110  39.438  1.00  0.00     0.014 A 
HETATM   18  O1  UNK     1      20.349  -7.287  35.845  1.00  0.00    -0.271 OA
HETATM   19  C5  UNK     1      20.383  -9.402  36.976  1.00  0.00     0.102 A 
HETATM   20  C7  UNK     1      20.258  -5.898  35.819  1.00  0.00     0.304 A 
HETATM   21  O3  UNK     1      20.317  -5.274  34.765  1.00  0.00    -0.259 OA
HETATM   22  C9  UNK     1      20.319 -10.147  38.151  1.00  0.00     0.040 A 
HETATM   23  C10 UNK     1      20.156  -9.503  39.380  1.00  0.00     0.004 A 
BRANCH  19  24
HETATM   24  O2  UNK     1      20.541 -10.032  35.781  1.00  0.00    -0.353 OA
HETATM   25  C17 UNK     1      21.827 -10.588  35.506  1.00  0.00     0.210 C 
ENDBRANCH  19  24
ENDBRANCH  10  13
ENDBRANCH   2   9
TORSDOF 3
ENDMDL
MODEL 7
REMARK VINA RESULT:      -8.6      2.214      7.502
REMARK  3 active torsions:
REMARK  status: ('A' for Active; 'I' for Inactive)
REMARK    1  A    between atoms: C5_11  and  O2_2 
REMARK    2  A    between atoms: C11_17  and  N1_5 
REMARK       I    between atoms: C8_14  and  N1_5 
REMARK    3  A    between atoms: C3_9  and  C8_14 
ROOT
HETATM    1  N2  UNK     1      19.040  -1.348  11.796  1.00  0.00    -0.191 NA
HETATM    2  C11 UNK     1      20.033  -3.630  14.292  1.00  0.00     0.055 A 
HETATM    3  C12 UNK     1      19.807  -3.556  12.917  1.00  0.00     0.071 A 
HETATM    4  C13 UNK     1      20.445  -4.832  14.867  1.00  0.00     0.031 A 
HETATM    5  C14 UNK     1      19.993  -4.684  12.119  1.00  0.00     0.025 A 
HETATM    6  C15 UNK     1      20.630  -5.960  14.068  1.00  0.00     0.002 A 
HETATM    7  C16 UNK     1      20.404  -5.886  12.694  1.00  0.00     0.002 A 
HETATM    8  C18 UNK     1      19.383  -2.336  12.298  1.00  0.00     0.102 C 
ENDROOT
BRANCH   2   9
HETATM    9  N1  UNK     1      19.853  -2.502  15.130  1.00  0.00    -0.321 N 
HETATM   10  C8  UNK     1      18.707  -2.137  15.823  1.00  0.00     0.262 C 
HETATM   11  O4  UNK     1      17.622  -2.715  15.853  1.00  0.00    -0.267 OA
HETATM   12  H5  UNK     1      20.662  -1.893  15.224  1.00  0.00     0.169 HD
BRANCH  10  13
HETATM   13  C3  UNK     1      18.895  -0.901  16.592  1.00  0.00     0.108 A 
HETATM   14  C4  UNK     1      18.844  -1.019  17.924  1.00  0.00     0.037 A 
HETATM   15  C1  UNK     1      19.020   0.151  18.771  1.00  0.00     0.002 A 
HETATM   16  C2  UNK     1      19.239   1.388  18.173  1.00  0.00     0.123 A 
HETATM   17  C6  UNK     1      18.976   0.074  20.165  1.00  0.00     0.014 A 
HETATM   18  O1  UNK     1      19.290   1.506  16.770  1.00  0.00    -0.271 OA
HETATM   19  C5  UNK     1      19.414   2.547  18.927  1.00  0.00     0.102 A 
HETATM   20  C7  UNK     1      19.127   0.405  15.934  1.00  0.00     0.304 A 
HETATM   21  O3  UNK     1      19.174   0.517  14.714  1.00  0.00    -0.259 OA
HETATM   22  C9  UNK     1      19.369   2.461  20.317  1.00  0.00     0.040 A 
HETATM   23  C10 UNK     1      19.150   1.228  20.935  1.00  0.00     0.004 A 
BRANCH  19  24
HETATM   24  O2  UNK     1      19.627   3.750  18.329  1.00  0.00    -0.353 OA
HETATM   25  C17 UNK     1      20.918   4.335  18.490  1.00  0.00     0.210 C 
ENDBRANCH  19  24
ENDBRANCH  10  13
ENDBRANCH   2   9
TORSDOF 3
ENDMDL
MODEL 8
REMARK VINA RESULT:      -8.5     17.242     19.368
REMARK  3 active torsions:
REMARK  status: ('A' for Active; 'I' for Inactive)
REMARK    1  A    between atoms: C5_11  and  O2_2 
REMARK    2  A    between atoms: C11_17  and  N1_5 
REMARK       I    between atoms: C8_14  and  N1_5 
REMARK    3  A    between atoms: C3_9  and  C8_14 
ROOT
HETATM    1  N2  UNK     1      14.034   6.570  31.929  1.00  0.00    -0.191 NA
HETATM    2  C11 UNK     1      16.988   7.614  33.546  1.00  0.00     0.055 A 
HETATM    3  C12 UNK     1      15.799   8.124  33.022  1.00  0.00     0.071 A 
HETATM    4  C13 UNK     1      17.918   8.474  34.128  1.00  0.00     0.031 A 
HETATM    5  C14 UNK     1      15.542   9.493  33.081  1.00  0.00     0.025 A 
HETATM    6  C15 UNK     1      17.661   9.844  34.185  1.00  0.00     0.002 A 
HETATM    7  C16 UNK     1      16.473  10.353  33.662  1.00  0.00     0.002 A 
HETATM    8  C18 UNK     1      14.824   7.265  32.418  1.00  0.00     0.102 C 
ENDROOT
BRANCH   2   9
HETATM    9  N1  UNK     1      17.277   6.229  33.502  1.00  0.00    -0.321 N 
HETATM   10  C8  UNK     1      18.219   5.586  32.709  1.00  0.00     0.262 C 
HETATM   11  O4  UNK     1      18.988   6.084  31.890  1.00  0.00    -0.267 OA
HETATM   12  H5  UNK     1      16.723   5.645  34.124  1.00  0.00     0.169 HD
BRANCH  10  13
HETATM   13  C3  UNK     1      18.237   4.136  32.936  1.00  0.00     0.108 A 
HETATM   14  C4  UNK     1      18.343   3.738  34.209  1.00  0.00     0.037 A 
HETATM   15  C1  UNK     1      18.368   2.320  34.535  1.00  0.00     0.002 A 
HETATM   16  C2  UNK     1      18.283   1.391  33.503  1.00  0.00     0.123 A 
HETATM   17  C6  UNK     1      18.477   1.859  35.850  1.00  0.00     0.014 A 
HETATM   18  O1  UNK     1      18.171   1.816  32.165  1.00  0.00    -0.271 OA
HETATM   19  C5  UNK     1      18.302   0.019  33.747  1.00  0.00     0.102 A 
HETATM   20  C7  UNK     1      18.144   3.165  31.823  1.00  0.00     0.304 A 
HETATM   21  O3  UNK     1      18.047   3.525  30.654  1.00  0.00    -0.259 OA
HETATM   22  C9  UNK     1      18.410  -0.431  35.061  1.00  0.00     0.040 A 
HETATM   23  C10 UNK     1      18.497   0.486  36.111  1.00  0.00     0.004 A 
BRANCH  19  24
HETATM   24  O2  UNK     1      18.218  -0.878  32.729  1.00  0.00    -0.353 OA
HETATM   25  C17 UNK     1      19.406  -1.594  32.394  1.00  0.00     0.210 C 
ENDBRANCH  19  24
ENDBRANCH  10  13
ENDBRANCH   2   9
TORSDOF 3
ENDMDL
MODEL 9
REMARK VINA RESULT:      -8.3     22.607     24.846
REMARK  3 active torsions:
REMARK  status: ('A' for Active; 'I' for Inactive)
REMARK    1  A    between atoms: C5_11  and  O2_2 
REMARK    2  A    between atoms: C11_17  and  N1_5 
REMARK       I    between atoms: C8_14  and  N1_5 
REMARK    3  A    between atoms: C3_9  and  C8_14 
ROOT
HETATM    1  N2  UNK     1      20.540  -5.412  36.412  1.00  0.00    -0.191 NA
HETATM    2  C11 UNK     1      21.176  -8.711  37.478  1.00  0.00     0.055 A 
HETATM    3  C12 UNK     1      20.162  -7.924  36.931  1.00  0.00     0.071 A 
HETATM    4  C13 UNK     1      20.943 -10.060  37.747  1.00  0.00     0.031 A 
HETATM    5  C14 UNK     1      18.917  -8.486  36.652  1.00  0.00     0.025 A 
HETATM    6  C15 UNK     1      19.697 -10.621  37.469  1.00  0.00     0.002 A 
HETATM    7  C16 UNK     1      18.684  -9.834  36.922  1.00  0.00     0.002 A 
HETATM    8  C18 UNK     1      20.371  -6.536  36.645  1.00  0.00     0.102 C 
ENDROOT
BRANCH   2   9
HETATM    9  N1  UNK     1      22.451  -8.170  37.772  1.00  0.00    -0.321 N 
HETATM   10  C8  UNK     1      23.069  -8.086  39.013  1.00  0.00     0.262 C 
HETATM   11  O4  UNK     1      22.640  -8.462  40.101  1.00  0.00    -0.267 OA
HETATM   12  H5  UNK     1      22.963  -7.798  36.976  1.00  0.00     0.169 HD
BRANCH  10  13
HETATM   13  C3  UNK     1      24.394  -7.460  38.929  1.00  0.00     0.108 A 
HETATM   14  C4  UNK     1      25.440  -8.294  38.876  1.00  0.00     0.037 A 
HETATM   15  C1  UNK     1      26.794  -7.768  38.791  1.00  0.00     0.002 A 
HETATM   16  C2  UNK     1      26.980  -6.389  38.768  1.00  0.00     0.123 A 
HETATM   17  C6  UNK     1      27.914  -8.600  38.733  1.00  0.00     0.014 A 
HETATM   18  O1  UNK     1      25.875  -5.517  38.825  1.00  0.00    -0.271 OA
HETATM   19  C5  UNK     1      28.250  -5.821  38.689  1.00  0.00     0.102 A 
HETATM   20  C7  UNK     1      24.569  -5.990  38.906  1.00  0.00     0.304 A 
HETATM   21  O3  UNK     1      23.614  -5.223  38.954  1.00  0.00    -0.259 OA
HETATM   22  C9  UNK     1      29.362  -6.659  38.631  1.00  0.00     0.040 A 
HETATM   23  C10 UNK     1      29.195  -8.046  38.653  1.00  0.00     0.004 A 
BRANCH  19  24
HETATM   24  O2  UNK     1      28.418  -4.472  38.667  1.00  0.00    -0.353 OA
HETATM   25  C17 UNK     1      29.735  -3.985  38.415  1.00  0.00     0.210 C 
ENDBRANCH  19  24
ENDBRANCH  10  13
ENDBRANCH   2   9
TORSDOF 3
ENDMDL
MODEL 10
REMARK VINA RESULT:      -8.2     11.776     13.584
REMARK  3 active torsions:
REMARK  status: ('A' for Active; 'I' for Inactive)
REMARK    1  A    between atoms: C5_11  and  O2_2 
REMARK    2  A    between atoms: C11_17  and  N1_5 
REMARK       I    between atoms: C8_14  and  N1_5 
REMARK    3  A    between atoms: C3_9  and  C8_14 
ROOT
HETATM    1  N2  UNK     1      15.619   4.278   9.818  1.00  0.00    -0.191 NA
HETATM    2  C11 UNK     1      14.927   7.735   9.765  1.00  0.00     0.055 A 
HETATM    3  C12 UNK     1      15.995   6.843   9.874  1.00  0.00     0.071 A 
HETATM    4  C13 UNK     1      15.160   9.109   9.799  1.00  0.00     0.031 A 
HETATM    5  C14 UNK     1      17.295   7.327  10.018  1.00  0.00     0.025 A 
HETATM    6  C15 UNK     1      16.461   9.592   9.943  1.00  0.00     0.002 A 
HETATM    7  C16 UNK     1      17.528   8.701  10.052  1.00  0.00     0.002 A 
HETATM    8  C18 UNK     1      15.787   5.426   9.843  1.00  0.00     0.102 C 
ENDROOT
BRANCH   2   9
HETATM    9  N1  UNK     1      13.596   7.274   9.618  1.00  0.00    -0.321 N 
HETATM   10  C8  UNK     1      12.878   7.123   8.438  1.00  0.00     0.262 C 
HETATM   11  O4  UNK     1      13.249   7.354   7.290  1.00  0.00    -0.267 OA
HETATM   12  H5  UNK     1      13.118   7.033  10.482  1.00  0.00     0.169 HD
BRANCH  10  13
HETATM   13  C3  UNK     1      11.521   6.619   8.678  1.00  0.00     0.108 A 
HETATM   14  C4  UNK     1      10.592   7.537   8.970  1.00  0.00     0.037 A 
HETATM   15  C1  UNK     1       9.217   7.134   9.223  1.00  0.00     0.002 A 
HETATM   16  C2  UNK     1       8.888   5.784   9.157  1.00  0.00     0.123 A 
HETATM   17  C6  UNK     1       8.215   8.057   9.531  1.00  0.00     0.014 A 
HETATM   18  O1  UNK     1       9.870   4.822   8.849  1.00  0.00    -0.271 OA
HETATM   19  C5  UNK     1       7.590   5.332   9.389  1.00  0.00     0.102 A 
HETATM   20  C7  UNK     1      11.193   5.177   8.602  1.00  0.00     0.304 A 
HETATM   21  O3  UNK     1      12.041   4.333   8.334  1.00  0.00    -0.259 OA
HETATM   22  C9  UNK     1       6.597   6.260   9.695  1.00  0.00     0.040 A 
HETATM   23  C10 UNK     1       6.908   7.620   9.766  1.00  0.00     0.004 A 
BRANCH  19  24
HETATM   24  O2  UNK     1       7.283   4.009   9.322  1.00  0.00    -0.353 OA
HETATM   25  C17 UNK     1       6.261   3.534  10.198  1.00  0.00     0.210 C 
ENDBRANCH  19  24
ENDBRANCH  10  13
ENDBRANCH   2   9
TORSDOF 3
ENDMDL
