MODEL 1
REMARK VINA RESULT:      -9.4      0.000      0.000
REMARK  3 active torsions:
REMARK  status: ('A' for Active; 'I' for Inactive)
REMARK    1  A    between atoms: C1_7  and  C3_9 
REMARK    2  A    between atoms: C3_9  and  C9_15 
REMARK    3  A    between atoms: C11_17  and  C7_13 
ROOT
HETATM    1 Br1  UNK     1      29.359  -4.332  39.082  1.00  0.00    -0.048 Br
HETATM    2  O1  UNK     1      26.647  -5.755  38.833  1.00  0.00    -0.273 OA
HETATM    3  O2  UNK     1      24.403  -5.342  38.872  1.00  0.00    -0.259 OA
HETATM    4  C1  UNK     1      29.846  -8.401  38.391  1.00  0.00    -0.052 A 
HETATM    5  C2  UNK     1      27.458  -8.014  38.452  1.00  0.00     0.001 A 
HETATM    6  C4  UNK     1      28.539  -8.886  38.305  1.00  0.00     0.021 A 
HETATM    7  C5  UNK     1      27.710  -6.666  38.682  1.00  0.00     0.107 A 
HETATM    8  C6  UNK     1      26.079  -8.467  38.373  1.00  0.00     0.035 A 
HETATM    9  C7  UNK     1      25.063  -7.601  38.515  1.00  0.00     0.076 A 
HETATM   10  C8  UNK     1      30.081  -7.043  38.622  1.00  0.00     0.029 A 
HETATM   11  C10 UNK     1      29.008  -6.166  38.769  1.00  0.00     0.046 A 
HETATM   12  C12 UNK     1      25.315  -6.155  38.754  1.00  0.00     0.301 A 
ENDROOT
BRANCH   9  13
HETATM   13  C11 UNK     1      23.719  -8.082  38.439  1.00  0.00     0.115 A 
HETATM   14  S1  UNK     1      22.782  -8.101  39.875  1.00  0.00    -0.067 SA
HETATM   15  C13 UNK     1      21.448  -8.748  38.994  1.00  0.00     0.035 A 
HETATM   16  C14 UNK     1      21.818  -8.904  37.655  1.00  0.00     0.075 A 
HETATM   17  C17 UNK     1      20.167  -9.092  39.455  1.00  0.00     0.021 A 
HETATM   18  N1  UNK     1      23.117  -8.520  37.352  1.00  0.00    -0.239 NA
HETATM   19  C18 UNK     1      20.871  -9.424  36.747  1.00  0.00     0.033 A 
HETATM   20  C23 UNK     1      19.593  -9.769  37.199  1.00  0.00     0.002 A 
HETATM   21  C22 UNK     1      19.248  -9.604  38.536  1.00  0.00     0.002 A 
ENDBRANCH   9  13
BRANCH   4  22
HETATM   22  C3  UNK     1      30.998  -9.337  38.234  1.00  0.00     0.078 C 
BRANCH  22  23
HETATM   23  C9  UNK     1      31.642  -9.294  36.863  1.00  0.00    -0.032 A 
HETATM   24  C15 UNK     1      32.733  -8.479  36.615  1.00  0.00     0.040 A 
HETATM   25 Cl1  UNK     1      33.421  -7.473  37.837  1.00  0.00    -0.084 Cl
HETATM   26  C19 UNK     1      33.299  -8.466  35.340  1.00  0.00     0.024 A 
HETATM   27  C21 UNK     1      32.765  -9.268  34.332  1.00  0.00     0.002 A 
HETATM   28  C20 UNK     1      31.665 -10.083  34.599  1.00  0.00     0.001 A 
HETATM   29  C16 UNK     1      31.100 -10.098  35.874  1.00  0.00     0.009 A 
ENDBRANCH  22  23
ENDBRANCH   4  22
TORSDOF 3
ENDMDL
MODEL 2
REMARK VINA RESULT:      -9.3     13.958     16.573
REMARK  3 active torsions:
REMARK  status: ('A' for Active; 'I' for Inactive)
REMARK    1  A    between atoms: C1_7  and  C3_9 
REMARK    2  A    between atoms: C3_9  and  C9_15 
REMARK    3  A    between atoms: C11_17  and  C7_13 
ROOT
HETATM    1 Br1  UNK     1      19.791   0.401  29.034  1.00  0.00    -0.048 Br
HETATM    2  O1  UNK     1      19.027   3.078  30.333  1.00  0.00    -0.273 OA
HETATM    3  O2  UNK     1      18.843   5.304  29.862  1.00  0.00    -0.259 OA
HETATM    4  C1  UNK     1      18.639  -0.115  32.993  1.00  0.00    -0.052 A 
HETATM    5  C2  UNK     1      18.456   2.257  32.547  1.00  0.00     0.001 A 
HETATM    6  C4  UNK     1      18.330   1.177  33.425  1.00  0.00     0.021 A 
HETATM    7  C5  UNK     1      18.890   2.017  31.248  1.00  0.00     0.107 A 
HETATM    8  C6  UNK     1      18.149   3.620  32.945  1.00  0.00     0.035 A 
HETATM    9  C7  UNK     1      18.277   4.634  32.075  1.00  0.00     0.076 A 
HETATM   10  C8  UNK     1      19.073  -0.337  31.684  1.00  0.00     0.029 A 
HETATM   11  C10 UNK     1      19.200   0.734  30.802  1.00  0.00     0.046 A 
HETATM   12  C12 UNK     1      18.732   4.396  30.679  1.00  0.00     0.301 A 
ENDROOT
BRANCH   9  13
HETATM   13  C11 UNK     1      17.973   5.965  32.502  1.00  0.00     0.115 A 
HETATM   14  S1  UNK     1      19.250   6.928  33.120  1.00  0.00    -0.067 SA
HETATM   15  C13 UNK     1      18.145   8.229  33.369  1.00  0.00     0.035 A 
HETATM   16  C14 UNK     1      16.870   7.828  32.959  1.00  0.00     0.075 A 
HETATM   17  C17 UNK     1      18.389   9.509  33.890  1.00  0.00     0.021 A 
HETATM   18  N1  UNK     1      16.786   6.534  32.467  1.00  0.00    -0.239 NA
HETATM   19  C18 UNK     1      15.802   8.745  33.077  1.00  0.00     0.033 A 
HETATM   20  C23 UNK     1      16.038  10.022  33.595  1.00  0.00     0.002 A 
HETATM   21  C22 UNK     1      17.315  10.397  33.995  1.00  0.00     0.002 A 
ENDBRANCH   9  13
BRANCH   4  22
HETATM   22  C3  UNK     1      18.504  -1.265  33.935  1.00  0.00     0.078 C 
BRANCH  22  23
HETATM   23  C9  UNK     1      18.035  -0.871  35.321  1.00  0.00    -0.032 A 
HETATM   24  C15 UNK     1      18.716  -1.294  36.449  1.00  0.00     0.040 A 
HETATM   25 Cl1  UNK     1      20.125  -2.286  36.351  1.00  0.00    -0.084 Cl
HETATM   26  C19 UNK     1      18.255  -0.911  37.709  1.00  0.00     0.024 A 
HETATM   27  C21 UNK     1      17.118  -0.110  37.820  1.00  0.00     0.002 A 
HETATM   28  C20 UNK     1      16.444   0.308  36.674  1.00  0.00     0.001 A 
HETATM   29  C16 UNK     1      16.906  -0.074  35.414  1.00  0.00     0.009 A 
ENDBRANCH  22  23
ENDBRANCH   4  22
TORSDOF 3
ENDMDL
MODEL 3
REMARK VINA RESULT:      -8.8      9.420     12.150
REMARK  3 active torsions:
REMARK  status: ('A' for Active; 'I' for Inactive)
REMARK    1  A    between atoms: C1_7  and  C3_9 
REMARK    2  A    between atoms: C3_9  and  C9_15 
REMARK    3  A    between atoms: C11_17  and  C7_13 
ROOT
HETATM    1 Br1  UNK     1      17.464   1.301  35.186  1.00  0.00    -0.048 Br
HETATM    2  O1  UNK     1      18.687  -1.283  36.311  1.00  0.00    -0.273 OA
HETATM    3  O2  UNK     1      18.843  -2.492  38.241  1.00  0.00    -0.259 OA
HETATM    4  C1  UNK     1      19.518  -0.801  32.249  1.00  0.00    -0.052 A 
HETATM    5  C2  UNK     1      19.734  -2.103  34.278  1.00  0.00     0.001 A 
HETATM    6  C4  UNK     1      20.003  -1.928  32.918  1.00  0.00     0.021 A 
HETATM    7  C5  UNK     1      18.981  -1.141  34.942  1.00  0.00     0.107 A 
HETATM    8  C6  UNK     1      20.214  -3.255  35.022  1.00  0.00     0.035 A 
HETATM    9  C7  UNK     1      19.935  -3.395  36.327  1.00  0.00     0.076 A 
HETATM   10  C8  UNK     1      18.763   0.155  32.932  1.00  0.00     0.029 A 
HETATM   11  C10 UNK     1      18.489  -0.013  34.288  1.00  0.00     0.046 A 
HETATM   12  C12 UNK     1      19.124  -2.379  37.052  1.00  0.00     0.301 A 
ENDROOT
BRANCH   9  13
HETATM   13  C11 UNK     1      20.429  -4.538  37.030  1.00  0.00     0.115 A 
HETATM   14  S1  UNK     1      19.457  -5.950  37.065  1.00  0.00    -0.067 SA
HETATM   15  C13 UNK     1      20.659  -6.751  38.008  1.00  0.00     0.035 A 
HETATM   16  C14 UNK     1      21.724  -5.874  38.229  1.00  0.00     0.075 A 
HETATM   17  C17 UNK     1      20.658  -8.061  38.514  1.00  0.00     0.021 A 
HETATM   18  N1  UNK     1      21.580  -4.614  37.666  1.00  0.00    -0.239 NA
HETATM   19  C18 UNK     1      22.828  -6.326  38.986  1.00  0.00     0.033 A 
HETATM   20  C23 UNK     1      22.834  -7.629  39.493  1.00  0.00     0.002 A 
HETATM   21  C22 UNK     1      21.762  -8.483  39.258  1.00  0.00     0.002 A 
ENDBRANCH   9  13
BRANCH   4  22
HETATM   22  C3  UNK     1      19.809  -0.619  30.796  1.00  0.00     0.078 C 
BRANCH  22  23
HETATM   23  C9  UNK     1      19.187   0.626  30.197  1.00  0.00    -0.032 A 
HETATM   24  C15 UNK     1      18.782   0.651  28.874  1.00  0.00     0.040 A 
HETATM   25 Cl1  UNK     1      18.958  -0.715  27.835  1.00  0.00    -0.084 Cl
HETATM   26  C19 UNK     1      18.213   1.816  28.357  1.00  0.00     0.024 A 
HETATM   27  C21 UNK     1      18.059   2.937  29.172  1.00  0.00     0.002 A 
HETATM   28  C20 UNK     1      18.472   2.893  30.503  1.00  0.00     0.001 A 
HETATM   29  C16 UNK     1      19.039   1.729  31.021  1.00  0.00     0.009 A 
ENDBRANCH  22  23
ENDBRANCH   4  22
TORSDOF 3
ENDMDL
MODEL 4
REMARK VINA RESULT:      -8.6     14.987     17.710
REMARK  3 active torsions:
REMARK  status: ('A' for Active; 'I' for Inactive)
REMARK    1  A    between atoms: C1_7  and  C3_9 
REMARK    2  A    between atoms: C3_9  and  C9_15 
REMARK    3  A    between atoms: C11_17  and  C7_13 
ROOT
HETATM    1 Br1  UNK     1      18.297   5.819  29.492  1.00  0.00    -0.048 Br
HETATM    2  O1  UNK     1      18.358   3.664  31.681  1.00  0.00    -0.273 OA
HETATM    3  O2  UNK     1      18.436   1.400  31.956  1.00  0.00    -0.259 OA
HETATM    4  C1  UNK     1      18.279   7.518  33.284  1.00  0.00    -0.052 A 
HETATM    5  C2  UNK     1      18.334   5.122  33.625  1.00  0.00     0.001 A 
HETATM    6  C4  UNK     1      18.309   6.418  34.146  1.00  0.00     0.021 A 
HETATM    7  C5  UNK     1      18.330   4.954  32.245  1.00  0.00     0.107 A 
HETATM    8  C6  UNK     1      18.364   3.944  34.475  1.00  0.00     0.035 A 
HETATM    9  C7  UNK     1      18.392   2.713  33.942  1.00  0.00     0.076 A 
HETATM   10  C8  UNK     1      18.276   7.330  31.900  1.00  0.00     0.029 A 
HETATM   11  C10 UNK     1      18.302   6.041  31.372  1.00  0.00     0.046 A 
HETATM   12  C12 UNK     1      18.396   2.515  32.468  1.00  0.00     0.301 A 
ENDROOT
BRANCH   9  13
HETATM   13  C11 UNK     1      18.414   1.575  34.808  1.00  0.00     0.115 A 
HETATM   14  S1  UNK     1      17.633   1.701  36.330  1.00  0.00    -0.067 SA
HETATM   15  C13 UNK     1      18.084   0.076  36.693  1.00  0.00     0.035 A 
HETATM   16  C14 UNK     1      18.806  -0.448  35.616  1.00  0.00     0.075 A 
HETATM   17  C17 UNK     1      17.820  -0.678  37.847  1.00  0.00     0.021 A 
HETATM   18  N1  UNK     1      18.986   0.418  34.548  1.00  0.00    -0.239 NA
HETATM   19  C18 UNK     1      19.278  -1.776  35.700  1.00  0.00     0.033 A 
HETATM   20  C23 UNK     1      19.018  -2.533  36.847  1.00  0.00     0.002 A 
HETATM   21  C22 UNK     1      18.298  -1.990  37.904  1.00  0.00     0.002 A 
ENDBRANCH   9  13
BRANCH   4  22
HETATM   22  C3  UNK     1      18.251   8.900  33.847  1.00  0.00     0.078 C 
BRANCH  22  23
HETATM   23  C9  UNK     1      16.855   9.456  34.040  1.00  0.00    -0.032 A 
HETATM   24  C15 UNK     1      16.643  10.818  34.157  1.00  0.00     0.040 A 
HETATM   25 Cl1  UNK     1      17.938  11.957  34.092  1.00  0.00    -0.084 Cl
HETATM   26  C19 UNK     1      15.343  11.294  34.335  1.00  0.00     0.024 A 
HETATM   27  C21 UNK     1      14.276  10.398  34.393  1.00  0.00     0.002 A 
HETATM   28  C20 UNK     1      14.508   9.028  34.273  1.00  0.00     0.001 A 
HETATM   29  C16 UNK     1      15.807   8.553  34.094  1.00  0.00     0.009 A 
ENDBRANCH  22  23
ENDBRANCH   4  22
TORSDOF 3
ENDMDL
MODEL 5
REMARK VINA RESULT:      -8.6     20.622     23.019
REMARK  3 active torsions:
REMARK  status: ('A' for Active; 'I' for Inactive)
REMARK    1  A    between atoms: C1_7  and  C3_9 
REMARK    2  A    between atoms: C3_9  and  C9_15 
REMARK    3  A    between atoms: C11_17  and  C7_13 
ROOT
HETATM    1 Br1  UNK     1      14.132  10.100  34.936  1.00  0.00    -0.048 Br
HETATM    2  O1  UNK     1      16.087  12.340  34.158  1.00  0.00    -0.273 OA
HETATM    3  O2  UNK     1      16.173  14.593  33.805  1.00  0.00    -0.259 OA
HETATM    4  C1  UNK     1      17.970   8.619  34.351  1.00  0.00    -0.052 A 
HETATM    5  C2  UNK     1      18.103  11.001  33.939  1.00  0.00     0.001 A 
HETATM    6  C4  UNK     1      18.718   9.748  34.009  1.00  0.00     0.021 A 
HETATM    7  C5  UNK     1      16.743  11.095  34.215  1.00  0.00     0.107 A 
HETATM    8  C6  UNK     1      18.833  12.206  33.588  1.00  0.00     0.035 A 
HETATM    9  C7  UNK     1      18.212  13.394  33.533  1.00  0.00     0.076 A 
HETATM   10  C8  UNK     1      16.606   8.733  34.626  1.00  0.00     0.029 A 
HETATM   11  C10 UNK     1      15.984   9.978  34.559  1.00  0.00     0.046 A 
HETATM   12  C12 UNK     1      16.760  13.516  33.833  1.00  0.00     0.301 A 
ENDROOT
BRANCH   9  13
HETATM   13  C11 UNK     1      18.960  14.560  33.177  1.00  0.00     0.115 A 
HETATM   14  S1  UNK     1      18.979  15.039  31.531  1.00  0.00    -0.067 SA
HETATM   15  C13 UNK     1      19.992  16.375  31.934  1.00  0.00     0.035 A 
HETATM   16  C14 UNK     1      20.245  16.358  33.308  1.00  0.00     0.075 A 
HETATM   17  C17 UNK     1      20.523  17.366  31.093  1.00  0.00     0.021 A 
HETATM   18  N1  UNK     1      19.650  15.316  34.006  1.00  0.00    -0.239 NA
HETATM   19  C18 UNK     1      21.061  17.370  33.859  1.00  0.00     0.033 A 
HETATM   20  C23 UNK     1      21.594  18.360  33.028  1.00  0.00     0.002 A 
HETATM   21  C22 UNK     1      21.327  18.357  31.664  1.00  0.00     0.002 A 
ENDBRANCH   9  13
BRANCH   4  22
HETATM   22  C3  UNK     1      18.633   7.284  34.423  1.00  0.00     0.078 C 
BRANCH  22  23
HETATM   23  C9  UNK     1      19.125   6.769  33.086  1.00  0.00    -0.032 A 
HETATM   24  C15 UNK     1      18.233   6.417  32.088  1.00  0.00     0.040 A 
HETATM   25 Cl1  UNK     1      16.525   6.540  32.300  1.00  0.00    -0.084 Cl
HETATM   26  C19 UNK     1      18.724   5.947  30.869  1.00  0.00     0.024 A 
HETATM   27  C21 UNK     1      20.099   5.836  30.668  1.00  0.00     0.002 A 
HETATM   28  C20 UNK     1      20.984   6.195  31.684  1.00  0.00     0.001 A 
HETATM   29  C16 UNK     1      20.494   6.666  32.902  1.00  0.00     0.009 A 
ENDBRANCH  22  23
ENDBRANCH   4  22
TORSDOF 3
ENDMDL
MODEL 6
REMARK VINA RESULT:      -8.5     15.226     17.826
REMARK  3 active torsions:
REMARK  status: ('A' for Active; 'I' for Inactive)
REMARK    1  A    between atoms: C1_7  and  C3_9 
REMARK    2  A    between atoms: C3_9  and  C9_15 
REMARK    3  A    between atoms: C11_17  and  C7_13 
ROOT
HETATM    1 Br1  UNK     1      18.663   2.010  29.004  1.00  0.00    -0.048 Br
HETATM    2  O1  UNK     1      18.258   4.666  30.494  1.00  0.00    -0.273 OA
HETATM    3  O2  UNK     1      18.005   6.904  30.119  1.00  0.00    -0.259 OA
HETATM    4  C1  UNK     1      18.442   1.420  33.111  1.00  0.00    -0.052 A 
HETATM    5  C2  UNK     1      18.198   3.802  32.764  1.00  0.00     0.001 A 
HETATM    6  C4  UNK     1      18.261   2.705  33.627  1.00  0.00     0.021 A 
HETATM    7  C5  UNK     1      18.318   3.587  31.396  1.00  0.00     0.107 A 
HETATM    8  C6  UNK     1      18.012   5.160  33.247  1.00  0.00     0.035 A 
HETATM    9  C7  UNK     1      17.952   6.192  32.391  1.00  0.00     0.076 A 
HETATM   10  C8  UNK     1      18.561   1.222  31.733  1.00  0.00     0.029 A 
HETATM   11  C10 UNK     1      18.498   2.310  30.866  1.00  0.00     0.046 A 
HETATM   12  C12 UNK     1      18.071   5.979  30.923  1.00  0.00     0.301 A 
ENDROOT
BRANCH   9  13
HETATM   13  C11 UNK     1      17.774   7.516  32.901  1.00  0.00     0.115 A 
HETATM   14  S1  UNK     1      16.175   8.100  33.100  1.00  0.00    -0.067 SA
HETATM   15  C13 UNK     1      16.796   9.595  33.692  1.00  0.00     0.035 A 
HETATM   16  C14 UNK     1      18.193   9.540  33.694  1.00  0.00     0.075 A 
HETATM   17  C17 UNK     1      16.098  10.735  34.122  1.00  0.00     0.021 A 
HETATM   18  N1  UNK     1      18.738   8.347  33.240  1.00  0.00    -0.239 NA
HETATM   19  C18 UNK     1      18.915  10.667  34.144  1.00  0.00     0.033 A 
HETATM   20  C23 UNK     1      18.226  11.805  34.574  1.00  0.00     0.002 A 
HETATM   21  C22 UNK     1      16.836  11.836  34.562  1.00  0.00     0.002 A 
ENDBRANCH   9  13
BRANCH   4  22
HETATM   22  C3  UNK     1      18.509   0.251  34.038  1.00  0.00     0.078 C 
BRANCH  22  23
HETATM   23  C9  UNK     1      18.016   0.550  35.439  1.00  0.00    -0.032 A 
HETATM   24  C15 UNK     1      16.861  -0.038  35.926  1.00  0.00     0.040 A 
HETATM   25 Cl1  UNK     1      15.921  -1.134  34.980  1.00  0.00    -0.084 Cl
HETATM   26  C19 UNK     1      16.438   0.261  37.221  1.00  0.00     0.024 A 
HETATM   27  C21 UNK     1      17.176   1.144  38.009  1.00  0.00     0.002 A 
HETATM   28  C20 UNK     1      18.337   1.726  37.503  1.00  0.00     0.001 A 
HETATM   29  C16 UNK     1      18.761   1.427  36.208  1.00  0.00     0.009 A 
ENDBRANCH  22  23
ENDBRANCH   4  22
TORSDOF 3
ENDMDL
MODEL 7
REMARK VINA RESULT:      -8.4      2.837      3.503
REMARK  3 active torsions:
REMARK  status: ('A' for Active; 'I' for Inactive)
REMARK    1  A    between atoms: C1_7  and  C3_9 
REMARK    2  A    between atoms: C3_9  and  C9_15 
REMARK    3  A    between atoms: C11_17  and  C7_13 
ROOT
HETATM    1 Br1  UNK     1      30.887 -10.427  35.667  1.00  0.00    -0.048 Br
HETATM    2  O1  UNK     1      27.975  -9.831  36.445  1.00  0.00    -0.273 OA
HETATM    3  O2  UNK     1      25.862 -10.665  36.226  1.00  0.00    -0.259 OA
HETATM    4  C1  UNK     1      30.610  -6.958  37.937  1.00  0.00    -0.052 A 
HETATM    5  C2  UNK     1      28.348  -7.789  37.707  1.00  0.00     0.001 A 
HETATM    6  C4  UNK     1      29.243  -6.836  38.200  1.00  0.00     0.021 A 
HETATM    7  C5  UNK     1      28.844  -8.849  36.957  1.00  0.00     0.107 A 
HETATM    8  C6  UNK     1      26.918  -7.710  37.950  1.00  0.00     0.035 A 
HETATM    9  C7  UNK     1      26.086  -8.644  37.465  1.00  0.00     0.076 A 
HETATM   10  C8  UNK     1      31.090  -8.030  37.182  1.00  0.00     0.029 A 
HETATM   11  C10 UNK     1      30.205  -8.985  36.687  1.00  0.00     0.046 A 
HETATM   12  C12 UNK     1      26.600  -9.790  36.667  1.00  0.00     0.301 A 
ENDROOT
BRANCH   9  13
HETATM   13  C11 UNK     1      24.683  -8.532  37.718  1.00  0.00     0.115 A 
HETATM   14  S1  UNK     1      24.181  -7.849  39.208  1.00  0.00    -0.067 SA
HETATM   15  C13 UNK     1      22.533  -8.063  38.748  1.00  0.00     0.035 A 
HETATM   16  C14 UNK     1      22.485  -8.646  37.479  1.00  0.00     0.075 A 
HETATM   17  C17 UNK     1      21.367  -7.739  39.460  1.00  0.00     0.021 A 
HETATM   18  N1  UNK     1      23.720  -8.908  36.903  1.00  0.00    -0.239 NA
HETATM   19  C18 UNK     1      21.224  -8.913  36.903  1.00  0.00     0.033 A 
HETATM   20  C23 UNK     1      20.059  -8.593  37.606  1.00  0.00     0.002 A 
HETATM   21  C22 UNK     1      20.132  -8.013  38.868  1.00  0.00     0.002 A 
ENDBRANCH   9  13
BRANCH   4  22
HETATM   22  C3  UNK     1      31.561  -5.936  38.466  1.00  0.00     0.078 C 
BRANCH  22  23
HETATM   23  C9  UNK     1      32.356  -5.223  37.392  1.00  0.00    -0.032 A 
HETATM   24  C15 UNK     1      33.613  -5.669  37.024  1.00  0.00     0.040 A 
HETATM   25 Cl1  UNK     1      34.348  -7.048  37.757  1.00  0.00    -0.084 Cl
HETATM   26  C19 UNK     1      34.316  -4.986  36.031  1.00  0.00     0.024 A 
HETATM   27  C21 UNK     1      33.749  -3.867  35.420  1.00  0.00     0.002 A 
HETATM   28  C20 UNK     1      32.481  -3.432  35.803  1.00  0.00     0.001 A 
HETATM   29  C16 UNK     1      31.778  -4.115  36.795  1.00  0.00     0.009 A 
ENDBRANCH  22  23
ENDBRANCH   4  22
TORSDOF 3
ENDMDL
MODEL 8
REMARK VINA RESULT:      -8.3      5.947      7.564
REMARK  3 active torsions:
REMARK  status: ('A' for Active; 'I' for Inactive)
REMARK    1  A    between atoms: C1_7  and  C3_9 
REMARK    2  A    between atoms: C3_9  and  C9_15 
REMARK    3  A    between atoms: C11_17  and  C7_13 
ROOT
HETATM    1 Br1  UNK     1      20.151 -10.034  37.329  1.00  0.00    -0.048 Br
HETATM    2  O1  UNK     1      19.577  -7.029  37.045  1.00  0.00    -0.273 OA
HETATM    3  O2  UNK     1      17.948  -5.577  36.379  1.00  0.00    -0.259 OA
HETATM    4  C1  UNK     1      23.375  -7.752  38.621  1.00  0.00    -0.052 A 
HETATM    5  C2  UNK     1      21.686  -6.176  37.899  1.00  0.00     0.001 A 
HETATM    6  C4  UNK     1      22.954  -6.434  38.426  1.00  0.00     0.021 A 
HETATM    7  C5  UNK     1      20.862  -7.248  37.577  1.00  0.00     0.107 A 
HETATM    8  C6  UNK     1      21.199  -4.825  37.676  1.00  0.00     0.035 A 
HETATM    9  C7  UNK     1      19.975  -4.611  37.171  1.00  0.00     0.076 A 
HETATM   10  C8  UNK     1      22.534  -8.818  38.292  1.00  0.00     0.029 A 
HETATM   11  C10 UNK     1      21.267  -8.569  37.766  1.00  0.00     0.046 A 
HETATM   12  C12 UNK     1      19.077  -5.747  36.827  1.00  0.00     0.301 A 
ENDROOT
BRANCH   9  13
HETATM   13  C11 UNK     1      19.530  -3.269  36.958  1.00  0.00     0.115 A 
HETATM   14  S1  UNK     1      19.949  -2.501  35.483  1.00  0.00    -0.067 SA
HETATM   15  C13 UNK     1      19.114  -1.080  35.987  1.00  0.00     0.035 A 
HETATM   16  C14 UNK     1      18.571  -1.296  37.257  1.00  0.00     0.075 A 
HETATM   17  C17 UNK     1      18.951   0.138  35.308  1.00  0.00     0.021 A 
HETATM   18  N1  UNK     1      18.816  -2.550  37.799  1.00  0.00    -0.239 NA
HETATM   19  C18 UNK     1      17.839  -0.254  37.867  1.00  0.00     0.033 A 
HETATM   20  C23 UNK     1      17.673   0.962  37.197  1.00  0.00     0.002 A 
HETATM   21  C22 UNK     1      18.223   1.153  35.934  1.00  0.00     0.002 A 
ENDBRANCH   9  13
BRANCH   4  22
HETATM   22  C3  UNK     1      24.730  -8.023  39.184  1.00  0.00     0.078 C 
BRANCH  22  23
HETATM   23  C9  UNK     1      25.806  -8.210  38.133  1.00  0.00    -0.032 A 
HETATM   24  C15 UNK     1      26.739  -7.218  37.887  1.00  0.00     0.040 A 
HETATM   25 Cl1  UNK     1      26.738  -5.723  38.751  1.00  0.00    -0.084 Cl
HETATM   26  C19 UNK     1      27.715  -7.426  36.912  1.00  0.00     0.024 A 
HETATM   27  C21 UNK     1      27.741  -8.623  36.197  1.00  0.00     0.002 A 
HETATM   28  C20 UNK     1      26.793  -9.612  36.458  1.00  0.00     0.001 A 
HETATM   29  C16 UNK     1      25.819  -9.405  37.433  1.00  0.00     0.009 A 
ENDBRANCH  22  23
ENDBRANCH   4  22
TORSDOF 3
ENDMDL
MODEL 9
REMARK VINA RESULT:      -8.3     19.680     21.865
REMARK  3 active torsions:
REMARK  status: ('A' for Active; 'I' for Inactive)
REMARK    1  A    between atoms: C1_7  and  C3_9 
REMARK    2  A    between atoms: C3_9  and  C9_15 
REMARK    3  A    between atoms: C11_17  and  C7_13 
ROOT
HETATM    1 Br1  UNK     1      13.855   7.139  31.952  1.00  0.00    -0.048 Br
HETATM    2  O1  UNK     1      14.343   9.702  33.575  1.00  0.00    -0.273 OA
HETATM    3  O2  UNK     1      13.229  11.456  34.520  1.00  0.00    -0.259 OA
HETATM    4  C1  UNK     1      17.891   7.642  32.806  1.00  0.00    -0.052 A 
HETATM    5  C2  UNK     1      16.756   9.535  33.800  1.00  0.00     0.001 A 
HETATM    6  C4  UNK     1      17.935   8.833  33.535  1.00  0.00     0.021 A 
HETATM    7  C5  UNK     1      15.552   9.026  33.327  1.00  0.00     0.107 A 
HETATM    8  C6  UNK     1      16.745  10.778  34.552  1.00  0.00     0.035 A 
HETATM    9  C7  UNK     1      15.594  11.425  34.792  1.00  0.00     0.076 A 
HETATM   10  C8  UNK     1      16.672   7.145  32.339  1.00  0.00     0.029 A 
HETATM   11  C10 UNK     1      15.492   7.838  32.599  1.00  0.00     0.046 A 
HETATM   12  C12 UNK     1      14.296  10.891  34.300  1.00  0.00     0.301 A 
ENDROOT
BRANCH   9  13
HETATM   13  C11 UNK     1      15.621  12.650  35.530  1.00  0.00     0.115 A 
HETATM   14  S1  UNK     1      15.651  14.123  34.653  1.00  0.00    -0.067 SA
HETATM   15  C13 UNK     1      15.670  15.003  36.136  1.00  0.00     0.035 A 
HETATM   16  C14 UNK     1      15.652  14.099  37.203  1.00  0.00     0.075 A 
HETATM   17  C17 UNK     1      15.699  16.392  36.340  1.00  0.00     0.021 A 
HETATM   18  N1  UNK     1      15.624  12.760  36.842  1.00  0.00    -0.239 NA
HETATM   19  C18 UNK     1      15.664  14.607  38.521  1.00  0.00     0.033 A 
HETATM   20  C23 UNK     1      15.693  15.989  38.731  1.00  0.00     0.002 A 
HETATM   21  C22 UNK     1      15.710  16.868  37.654  1.00  0.00     0.002 A 
ENDBRANCH   9  13
BRANCH   4  22
HETATM   22  C3  UNK     1      19.154   6.897  32.526  1.00  0.00     0.078 C 
BRANCH  22  23
HETATM   23  C9  UNK     1      18.960   5.661  31.671  1.00  0.00    -0.032 A 
HETATM   24  C15 UNK     1      18.566   4.461  32.236  1.00  0.00     0.040 A 
HETATM   25 Cl1  UNK     1      18.274   4.297  33.930  1.00  0.00    -0.084 Cl
HETATM   26  C19 UNK     1      18.398   3.343  31.418  1.00  0.00     0.024 A 
HETATM   27  C21 UNK     1      18.628   3.445  30.046  1.00  0.00     0.002 A 
HETATM   28  C20 UNK     1      19.023   4.662  29.493  1.00  0.00     0.001 A 
HETATM   29  C16 UNK     1      19.190   5.779  30.311  1.00  0.00     0.009 A 
ENDBRANCH  22  23
ENDBRANCH   4  22
TORSDOF 3
ENDMDL
MODEL 10
REMARK VINA RESULT:      -8.2      6.794      9.133
REMARK  3 active torsions:
REMARK  status: ('A' for Active; 'I' for Inactive)
REMARK    1  A    between atoms: C1_7  and  C3_9 
REMARK    2  A    between atoms: C3_9  and  C9_15 
REMARK    3  A    between atoms: C11_17  and  C7_13 
ROOT
HETATM    1 Br1  UNK     1      37.269  -7.315  34.383  1.00  0.00    -0.048 Br
HETATM    2  O1  UNK     1      34.775  -8.021  32.733  1.00  0.00    -0.273 OA
HETATM    3  O2  UNK     1      34.152  -9.000  30.768  1.00  0.00    -0.259 OA
HETATM    4  C1  UNK     1      33.788  -6.171  36.344  1.00  0.00    -0.052 A 
HETATM    5  C2  UNK     1      33.082  -7.178  34.259  1.00  0.00     0.001 A 
HETATM    6  C4  UNK     1      32.768  -6.558  35.471  1.00  0.00     0.021 A 
HETATM    7  C5  UNK     1      34.418  -7.398  33.944  1.00  0.00     0.107 A 
HETATM    8  C6  UNK     1      32.060  -7.598  33.315  1.00  0.00     0.035 A 
HETATM    9  C7  UNK     1      32.396  -8.194  32.160  1.00  0.00     0.076 A 
HETATM   10  C8  UNK     1      35.126  -6.401  36.012  1.00  0.00     0.029 A 
HETATM   11  C10 UNK     1      35.448  -7.019  34.805  1.00  0.00     0.046 A 
HETATM   12  C12 UNK     1      33.820  -8.445  31.811  1.00  0.00     0.301 A 
ENDROOT
BRANCH   9  13
HETATM   13  C11 UNK     1      31.365  -8.590  31.251  1.00  0.00     0.115 A 
HETATM   14  S1  UNK     1      29.736  -8.285  31.692  1.00  0.00    -0.067 SA
HETATM   15  C13 UNK     1      29.206  -8.990  30.210  1.00  0.00     0.035 A 
HETATM   16  C14 UNK     1      30.322  -9.410  29.480  1.00  0.00     0.075 A 
HETATM   17  C17 UNK     1      27.898  -9.158  29.729  1.00  0.00     0.021 A 
HETATM   18  N1  UNK     1      31.547  -9.176  30.086  1.00  0.00    -0.239 NA
HETATM   19  C18 UNK     1      30.118 -10.022  28.224  1.00  0.00     0.033 A 
HETATM   20  C23 UNK     1      28.818 -10.193  27.738  1.00  0.00     0.002 A 
HETATM   21  C22 UNK     1      27.724  -9.765  28.483  1.00  0.00     0.002 A 
ENDBRANCH   9  13
BRANCH   4  22
HETATM   22  C3  UNK     1      33.447  -5.510  37.637  1.00  0.00     0.078 C 
BRANCH  22  23
HETATM   23  C9  UNK     1      31.960  -5.433  37.914  1.00  0.00    -0.032 A 
HETATM   24  C15 UNK     1      31.264  -6.538  38.374  1.00  0.00     0.040 A 
HETATM   25 Cl1  UNK     1      32.037  -8.056  38.656  1.00  0.00    -0.084 Cl
HETATM   26  C19 UNK     1      29.895  -6.430  38.618  1.00  0.00     0.024 A 
HETATM   27  C21 UNK     1      29.243  -5.217  38.398  1.00  0.00     0.002 A 
HETATM   28  C20 UNK     1      29.958  -4.113  37.936  1.00  0.00     0.001 A 
HETATM   29  C16 UNK     1      31.327  -4.221  37.693  1.00  0.00     0.009 A 
ENDBRANCH  22  23
ENDBRANCH   4  22
TORSDOF 3
ENDMDL
