MODEL 1
REMARK VINA RESULT:      -8.7      0.000      0.000
REMARK  5 active torsions:
REMARK  status: ('A' for Active; 'I' for Inactive)
REMARK    1  A    between atoms: C7_13  and  O2_2 
REMARK    2  A    between atoms: C10_16  and  O3_3 
REMARK    3  A    between atoms: C1_7  and  N1_6 
REMARK       I    between atoms: C6_12  and  N1_6 
REMARK    4  A    between atoms: C1_7  and  C2_8 
REMARK    5  A    between atoms: C6_12  and  C8_14 
ROOT
HETATM    1  O4  UNK     1      18.506   2.137  35.559  1.00  0.00    -0.267 OA
HETATM    2  N1  UNK     1      17.313   0.605  34.270  1.00  0.00    -0.348 N 
HETATM    3  C6  UNK     1      18.060   1.749  34.481  1.00  0.00     0.258 C 
HETATM    4  H2  UNK     1      16.943   0.416  33.344  1.00  0.00     0.163 HD
ENDROOT
BRANCH   2   5
HETATM    5  C1  UNK     1      16.954  -0.309  35.332  1.00  0.00     0.114 C 
HETATM    6  C3  UNK     1      15.717  -1.110  34.918  1.00  0.00     0.037 C 
BRANCH   5   7
HETATM    7  C2  UNK     1      18.112  -1.213  35.703  1.00  0.00    -0.033 A 
HETATM    8  C4  UNK     1      19.094  -1.467  34.763  1.00  0.00     0.049 A 
HETATM    9  C7  UNK     1      20.161  -2.298  35.104  1.00  0.00     0.102 A 
HETATM   10  C10 UNK     1      20.227  -2.862  36.379  1.00  0.00     0.101 A 
HETATM   11  C9  UNK     1      19.225  -2.593  37.312  1.00  0.00     0.040 A 
HETATM   12  C5  UNK     1      18.159  -1.761  36.972  1.00  0.00     0.012 A 
BRANCH   9  13
HETATM   13  O2  UNK     1      21.134  -2.552  34.185  1.00  0.00    -0.353 OA
HETATM   14  C19 UNK     1      20.760  -2.483  32.811  1.00  0.00     0.210 C 
ENDBRANCH   9  13
BRANCH  10  15
HETATM   15  O3  UNK     1      21.264  -3.674  36.724  1.00  0.00    -0.353 OA
HETATM   16  C20 UNK     1      20.964  -4.789  37.562  1.00  0.00     0.210 C 
ENDBRANCH  10  15
ENDBRANCH   5   7
ENDBRANCH   2   5
BRANCH   3  17
HETATM   17  C8  UNK     1      18.296   2.512  33.250  1.00  0.00     0.108 A 
HETATM   18  C12 UNK     1      18.166   3.841  33.343  1.00  0.00     0.037 A 
HETATM   19  C11 UNK     1      18.380   4.682  32.175  1.00  0.00    -0.001 A 
HETATM   20  C13 UNK     1      18.719   4.083  30.967  1.00  0.00     0.089 A 
HETATM   21  C15 UNK     1      18.258   6.072  32.226  1.00  0.00     0.014 A 
HETATM   22  O1  UNK     1      18.853   2.684  30.875  1.00  0.00    -0.274 OA
HETATM   23  C16 UNK     1      18.937   4.830  29.812  1.00  0.00     0.038 A 
HETATM   24  C14 UNK     1      18.656   1.852  31.975  1.00  0.00     0.304 A 
HETATM   25  O5  UNK     1      18.775   0.635  31.885  1.00  0.00    -0.259 OA
HETATM   26  C18 UNK     1      18.813   6.217  29.872  1.00  0.00     0.003 A 
HETATM   27  C17 UNK     1      18.473   6.837  31.077  1.00  0.00     0.001 A 
ENDBRANCH   3  17
TORSDOF 5
ENDMDL
MODEL 2
REMARK VINA RESULT:      -8.5      4.767      7.918
REMARK  5 active torsions:
REMARK  status: ('A' for Active; 'I' for Inactive)
REMARK    1  A    between atoms: C7_13  and  O2_2 
REMARK    2  A    between atoms: C10_16  and  O3_3 
REMARK    3  A    between atoms: C1_7  and  N1_6 
REMARK       I    between atoms: C6_12  and  N1_6 
REMARK    4  A    between atoms: C1_7  and  C2_8 
REMARK    5  A    between atoms: C6_12  and  C8_14 
ROOT
HETATM    1  O4  UNK     1      17.138   6.631  34.561  1.00  0.00    -0.267 OA
HETATM    2  N1  UNK     1      18.187   7.597  32.717  1.00  0.00    -0.348 N 
HETATM    3  C6  UNK     1      17.197   7.482  33.676  1.00  0.00     0.258 C 
HETATM    4  H2  UNK     1      18.100   8.304  31.994  1.00  0.00     0.163 HD
ENDROOT
BRANCH   2   5
HETATM    5  C1  UNK     1      19.315   6.695  32.637  1.00  0.00     0.114 C 
HETATM    6  C3  UNK     1      19.876   6.454  34.041  1.00  0.00     0.037 C 
BRANCH   5   7
HETATM    7  C2  UNK     1      18.941   5.397  31.950  1.00  0.00    -0.033 A 
HETATM    8  C4  UNK     1      18.407   4.367  32.703  1.00  0.00     0.049 A 
HETATM    9  C7  UNK     1      18.063   3.172  32.071  1.00  0.00     0.102 A 
HETATM   10  C10 UNK     1      18.258   3.028  30.697  1.00  0.00     0.101 A 
HETATM   11  C9  UNK     1      18.798   4.079  29.956  1.00  0.00     0.040 A 
HETATM   12  C5  UNK     1      19.142   5.274  30.587  1.00  0.00     0.012 A 
BRANCH   9  13
HETATM   13  O2  UNK     1      17.535   2.153  32.806  1.00  0.00    -0.353 OA
HETATM   14  C19 UNK     1      18.165   1.859  34.051  1.00  0.00     0.210 C 
ENDBRANCH   9  13
BRANCH  10  15
HETATM   15  O3  UNK     1      17.924   1.867  30.069  1.00  0.00    -0.353 OA
HETATM   16  C20 UNK     1      17.940   1.873  28.643  1.00  0.00     0.210 C 
ENDBRANCH  10  15
ENDBRANCH   5   7
ENDBRANCH   2   5
BRANCH   3  17
HETATM   17  C8  UNK     1      16.161   8.515  33.553  1.00  0.00     0.108 A 
HETATM   18  C12 UNK     1      15.766   9.095  34.693  1.00  0.00     0.037 A 
HETATM   19  C11 UNK     1      14.744  10.129  34.673  1.00  0.00    -0.001 A 
HETATM   20  C13 UNK     1      14.187  10.502  33.454  1.00  0.00     0.089 A 
HETATM   21  C15 UNK     1      14.302  10.763  35.836  1.00  0.00     0.014 A 
HETATM   22  O1  UNK     1      14.606   9.887  32.258  1.00  0.00    -0.274 OA
HETATM   23  C16 UNK     1      13.203  11.485  33.365  1.00  0.00     0.038 A 
HETATM   24  C14 UNK     1      15.583   8.895  32.245  1.00  0.00     0.304 A 
HETATM   25  O5  UNK     1      15.941   8.365  31.199  1.00  0.00    -0.259 OA
HETATM   26  C18 UNK     1      12.769  12.112  34.531  1.00  0.00     0.003 A 
HETATM   27  C17 UNK     1      13.316  11.751  35.765  1.00  0.00     0.001 A 
ENDBRANCH   3  17
TORSDOF 5
ENDMDL
MODEL 3
REMARK VINA RESULT:      -8.5      9.145     12.491
REMARK  5 active torsions:
REMARK  status: ('A' for Active; 'I' for Inactive)
REMARK    1  A    between atoms: C7_13  and  O2_2 
REMARK    2  A    between atoms: C10_16  and  O3_3 
REMARK    3  A    between atoms: C1_7  and  N1_6 
REMARK       I    between atoms: C6_12  and  N1_6 
REMARK    4  A    between atoms: C1_7  and  C2_8 
REMARK    5  A    between atoms: C6_12  and  C8_14 
ROOT
HETATM    1  O4  UNK     1      25.831  -9.000  37.524  1.00  0.00    -0.267 OA
HETATM    2  N1  UNK     1      24.658  -7.644  39.014  1.00  0.00    -0.348 N 
HETATM    3  C6  UNK     1      25.751  -8.011  38.251  1.00  0.00     0.258 C 
HETATM    4  H2  UNK     1      24.727  -6.837  39.627  1.00  0.00     0.163 HD
ENDROOT
BRANCH   2   5
HETATM    5  C1  UNK     1      23.431  -8.408  39.052  1.00  0.00     0.114 C 
HETATM    6  C3  UNK     1      22.782  -8.262  40.431  1.00  0.00     0.037 C 
BRANCH   5   7
HETATM    7  C2  UNK     1      22.487  -7.999  37.940  1.00  0.00    -0.033 A 
HETATM    8  C4  UNK     1      22.358  -8.818  36.833  1.00  0.00     0.049 A 
HETATM    9  C7  UNK     1      21.489  -8.443  35.808  1.00  0.00     0.102 A 
HETATM   10  C10 UNK     1      20.764  -7.255  35.908  1.00  0.00     0.101 A 
HETATM   11  C9  UNK     1      20.909  -6.443  37.033  1.00  0.00     0.040 A 
HETATM   12  C5  UNK     1      21.777  -6.818  38.058  1.00  0.00     0.012 A 
BRANCH   9  13
HETATM   13  O2  UNK     1      21.356  -9.244  34.715  1.00  0.00    -0.353 OA
HETATM   14  C19 UNK     1      21.776 -10.600  34.850  1.00  0.00     0.210 C 
ENDBRANCH   9  13
BRANCH  10  15
HETATM   15  O3  UNK     1      19.912  -6.878  34.915  1.00  0.00    -0.353 OA
HETATM   16  C20 UNK     1      18.525  -7.141  35.116  1.00  0.00     0.210 C 
ENDBRANCH  10  15
ENDBRANCH   5   7
ENDBRANCH   2   5
BRANCH   3  17
HETATM   17  C8  UNK     1      26.875  -7.076  38.376  1.00  0.00     0.108 A 
HETATM   18  C12 UNK     1      28.099  -7.602  38.254  1.00  0.00     0.037 A 
HETATM   19  C11 UNK     1      29.276  -6.755  38.365  1.00  0.00    -0.001 A 
HETATM   20  C13 UNK     1      29.107  -5.394  38.599  1.00  0.00     0.089 A 
HETATM   21  C15 UNK     1      30.573  -7.261  38.242  1.00  0.00     0.014 A 
HETATM   22  O1  UNK     1      27.816  -4.846  38.727  1.00  0.00    -0.274 OA
HETATM   23  C16 UNK     1      30.192  -4.528  38.715  1.00  0.00     0.038 A 
HETATM   24  C14 UNK     1      26.670  -5.631  38.626  1.00  0.00     0.304 A 
HETATM   25  O5  UNK     1      25.551  -5.145  38.739  1.00  0.00    -0.259 OA
HETATM   26  C18 UNK     1      31.481  -5.041  38.592  1.00  0.00     0.003 A 
HETATM   27  C17 UNK     1      31.672  -6.405  38.357  1.00  0.00     0.001 A 
ENDBRANCH   3  17
TORSDOF 5
ENDMDL
MODEL 4
REMARK VINA RESULT:      -8.4      3.300      9.934
REMARK  5 active torsions:
REMARK  status: ('A' for Active; 'I' for Inactive)
REMARK    1  A    between atoms: C7_13  and  O2_2 
REMARK    2  A    between atoms: C10_16  and  O3_3 
REMARK    3  A    between atoms: C1_7  and  N1_6 
REMARK       I    between atoms: C6_12  and  N1_6 
REMARK    4  A    between atoms: C1_7  and  C2_8 
REMARK    5  A    between atoms: C6_12  and  C8_14 
ROOT
HETATM    1  O4  UNK     1      21.306  -4.178  37.293  1.00  0.00    -0.267 OA
HETATM    2  N1  UNK     1      19.870  -4.028  35.464  1.00  0.00    -0.348 N 
HETATM    3  C6  UNK     1      20.472  -4.666  36.533  1.00  0.00     0.258 C 
HETATM    4  H2  UNK     1      19.238  -4.550  34.864  1.00  0.00     0.163 HD
ENDROOT
BRANCH   2   5
HETATM    5  C1  UNK     1      20.159  -2.659  35.098  1.00  0.00     0.114 C 
HETATM    6  C3  UNK     1      20.448  -2.583  33.597  1.00  0.00     0.037 C 
BRANCH   5   7
HETATM    7  C2  UNK     1      19.035  -1.726  35.503  1.00  0.00    -0.033 A 
HETATM    8  C4  UNK     1      18.587  -0.781  34.598  1.00  0.00     0.049 A 
HETATM    9  C7  UNK     1      17.552   0.078  34.970  1.00  0.00     0.102 A 
HETATM   10  C10 UNK     1      16.984  -0.023  36.240  1.00  0.00     0.101 A 
HETATM   11  C9  UNK     1      17.451  -0.984  37.138  1.00  0.00     0.040 A 
HETATM   12  C5  UNK     1      18.484  -1.843  36.766  1.00  0.00     0.012 A 
BRANCH   9  13
HETATM   13  O2  UNK     1      17.105   1.011  34.084  1.00  0.00    -0.353 OA
HETATM   14  C19 UNK     1      18.017   2.042  33.713  1.00  0.00     0.210 C 
ENDBRANCH   9  13
BRANCH  10  15
HETATM   15  O3  UNK     1      15.973   0.808  36.614  1.00  0.00    -0.353 OA
HETATM   16  C20 UNK     1      16.318   1.918  37.441  1.00  0.00     0.210 C 
ENDBRANCH  10  15
ENDBRANCH   5   7
ENDBRANCH   2   5
BRANCH   3  17
HETATM   17  C8  UNK     1      20.014  -6.049  36.704  1.00  0.00     0.108 A 
HETATM   18  C12 UNK     1      20.969  -6.984  36.774  1.00  0.00     0.037 A 
HETATM   19  C11 UNK     1      20.613  -8.385  36.943  1.00  0.00    -0.001 A 
HETATM   20  C13 UNK     1      19.269  -8.732  37.029  1.00  0.00     0.089 A 
HETATM   21  C15 UNK     1      21.575  -9.394  37.022  1.00  0.00     0.014 A 
HETATM   22  O1  UNK     1      18.268  -7.743  36.955  1.00  0.00    -0.274 OA
HETATM   23  C16 UNK     1      18.860 -10.054  37.191  1.00  0.00     0.038 A 
HETATM   24  C14 UNK     1      18.578  -6.395  36.794  1.00  0.00     0.304 A 
HETATM   25  O5  UNK     1      17.700  -5.542  36.730  1.00  0.00    -0.259 OA
HETATM   26  C18 UNK     1      19.827 -11.054  37.269  1.00  0.00     0.003 A 
HETATM   27  C17 UNK     1      21.183 -10.725  37.184  1.00  0.00     0.001 A 
ENDBRANCH   3  17
TORSDOF 5
ENDMDL
MODEL 5
REMARK VINA RESULT:      -8.4      2.056      3.940
REMARK  5 active torsions:
REMARK  status: ('A' for Active; 'I' for Inactive)
REMARK    1  A    between atoms: C7_13  and  O2_2 
REMARK    2  A    between atoms: C10_16  and  O3_3 
REMARK    3  A    between atoms: C1_7  and  N1_6 
REMARK       I    between atoms: C6_12  and  N1_6 
REMARK    4  A    between atoms: C1_7  and  C2_8 
REMARK    5  A    between atoms: C6_12  and  C8_14 
ROOT
HETATM    1  O4  UNK     1      17.457   1.739  29.493  1.00  0.00    -0.267 OA
HETATM    2  N1  UNK     1      19.410   1.348  30.703  1.00  0.00    -0.348 N 
HETATM    3  C6  UNK     1      18.365   2.120  30.229  1.00  0.00     0.258 C 
HETATM    4  H2  UNK     1      20.140   1.786  31.256  1.00  0.00     0.163 HD
ENDROOT
BRANCH   2   5
HETATM    5  C1  UNK     1      19.568  -0.052  30.377  1.00  0.00     0.114 C 
HETATM    6  C3  UNK     1      20.734  -0.220  29.399  1.00  0.00     0.037 C 
BRANCH   5   7
HETATM    7  C2  UNK     1      19.751  -0.895  31.623  1.00  0.00    -0.033 A 
HETATM    8  C4  UNK     1      18.894  -0.710  32.691  1.00  0.00     0.049 A 
HETATM    9  C7  UNK     1      19.062  -1.486  33.839  1.00  0.00     0.102 A 
HETATM   10  C10 UNK     1      20.085  -2.433  33.897  1.00  0.00     0.101 A 
HETATM   11  C9  UNK     1      20.939  -2.604  32.807  1.00  0.00     0.040 A 
HETATM   12  C5  UNK     1      20.771  -1.829  31.660  1.00  0.00     0.012 A 
BRANCH   9  13
HETATM   13  O2  UNK     1      18.221  -1.311  34.896  1.00  0.00    -0.353 OA
HETATM   14  C19 UNK     1      17.206  -0.318  34.759  1.00  0.00     0.210 C 
ENDBRANCH   9  13
BRANCH  10  15
HETATM   15  O3  UNK     1      20.258  -3.197  35.010  1.00  0.00    -0.353 OA
HETATM   16  C20 UNK     1      20.811  -2.556  36.158  1.00  0.00     0.210 C 
ENDBRANCH  10  15
ENDBRANCH   5   7
ENDBRANCH   2   5
BRANCH   3  17
HETATM   17  C8  UNK     1      18.421   3.508  30.700  1.00  0.00     0.108 A 
HETATM   18  C12 UNK     1      18.185   3.701  32.003  1.00  0.00     0.037 A 
HETATM   19  C11 UNK     1      18.218   5.043  32.563  1.00  0.00    -0.001 A 
HETATM   20  C13 UNK     1      18.497   6.116  31.724  1.00  0.00     0.089 A 
HETATM   21  C15 UNK     1      17.979   5.291  33.917  1.00  0.00     0.014 A 
HETATM   22  O1  UNK     1      18.744   5.907  30.353  1.00  0.00    -0.274 OA
HETATM   23  C16 UNK     1      18.543   7.426  32.197  1.00  0.00     0.038 A 
HETATM   24  C14 UNK     1      18.720   4.635  29.788  1.00  0.00     0.304 A 
HETATM   25  O5  UNK     1      18.936   4.463  28.593  1.00  0.00    -0.259 OA
HETATM   26  C18 UNK     1      18.304   7.665  33.548  1.00  0.00     0.003 A 
HETATM   27  C17 UNK     1      18.022   6.599  34.407  1.00  0.00     0.001 A 
ENDBRANCH   3  17
TORSDOF 5
ENDMDL
MODEL 6
REMARK VINA RESULT:      -8.3      4.063      6.780
REMARK  5 active torsions:
REMARK  status: ('A' for Active; 'I' for Inactive)
REMARK    1  A    between atoms: C7_13  and  O2_2 
REMARK    2  A    between atoms: C10_16  and  O3_3 
REMARK    3  A    between atoms: C1_7  and  N1_6 
REMARK       I    between atoms: C6_12  and  N1_6 
REMARK    4  A    between atoms: C1_7  and  C2_8 
REMARK    5  A    between atoms: C6_12  and  C8_14 
ROOT
HETATM    1  O4  UNK     1      20.505  -5.054  35.733  1.00  0.00    -0.267 OA
HETATM    2  N1  UNK     1      18.414  -5.098  36.762  1.00  0.00    -0.348 N 
HETATM    3  C6  UNK     1      19.495  -4.490  36.149  1.00  0.00     0.258 C 
HETATM    4  H2  UNK     1      17.659  -4.524  37.122  1.00  0.00     0.163 HD
ENDROOT
BRANCH   2   5
HETATM    5  C1  UNK     1      18.339  -6.524  36.996  1.00  0.00     0.114 C 
HETATM    6  C3  UNK     1      18.037  -7.241  35.678  1.00  0.00     0.037 C 
BRANCH   5   7
HETATM    7  C2  UNK     1      19.604  -7.047  37.645  1.00  0.00    -0.033 A 
HETATM    8  C4  UNK     1      20.280  -8.096  37.050  1.00  0.00     0.049 A 
HETATM    9  C7  UNK     1      21.446  -8.579  37.647  1.00  0.00     0.102 A 
HETATM   10  C10 UNK     1      21.913  -8.005  38.829  1.00  0.00     0.101 A 
HETATM   11  C9  UNK     1      21.215  -6.947  39.414  1.00  0.00     0.040 A 
HETATM   12  C5  UNK     1      20.051  -6.464  38.817  1.00  0.00     0.012 A 
BRANCH   9  13
HETATM   13  O2  UNK     1      22.119  -9.611  37.066  1.00  0.00    -0.353 OA
HETATM   14  C19 UNK     1      21.373 -10.793  36.784  1.00  0.00     0.210 C 
ENDBRANCH   9  13
BRANCH  10  15
HETATM   15  O3  UNK     1      23.049  -8.466  39.420  1.00  0.00    -0.353 OA
HETATM   16  C20 UNK     1      24.281  -7.876  39.009  1.00  0.00     0.210 C 
ENDBRANCH  10  15
ENDBRANCH   5   7
ENDBRANCH   2   5
BRANCH   3  17
HETATM   17  C8  UNK     1      19.337  -3.037  36.023  1.00  0.00     0.108 A 
HETATM   18  C12 UNK     1      18.623  -2.434  36.981  1.00  0.00     0.037 A 
HETATM   19  C11 UNK     1      18.411  -0.996  36.942  1.00  0.00    -0.001 A 
HETATM   20  C13 UNK     1      18.959  -0.263  35.895  1.00  0.00     0.089 A 
HETATM   21  C15 UNK     1      17.675  -0.324  37.921  1.00  0.00     0.014 A 
HETATM   22  O1  UNK     1      19.708  -0.903  34.889  1.00  0.00    -0.274 OA
HETATM   23  C16 UNK     1      18.793   1.117  35.798  1.00  0.00     0.038 A 
HETATM   24  C14 UNK     1      19.930  -2.278  34.900  1.00  0.00     0.304 A 
HETATM   25  O5  UNK     1      20.583  -2.826  34.019  1.00  0.00    -0.259 OA
HETATM   26  C18 UNK     1      18.057   1.779  36.779  1.00  0.00     0.003 A 
HETATM   27  C17 UNK     1      17.498   1.060  37.839  1.00  0.00     0.001 A 
ENDBRANCH   3  17
TORSDOF 5
ENDMDL
MODEL 7
REMARK VINA RESULT:      -8.3      7.788     12.302
REMARK  5 active torsions:
REMARK  status: ('A' for Active; 'I' for Inactive)
REMARK    1  A    between atoms: C7_13  and  O2_2 
REMARK    2  A    between atoms: C10_16  and  O3_3 
REMARK    3  A    between atoms: C1_7  and  N1_6 
REMARK       I    between atoms: C6_12  and  N1_6 
REMARK    4  A    between atoms: C1_7  and  C2_8 
REMARK    5  A    between atoms: C6_12  and  C8_14 
ROOT
HETATM    1  O4  UNK     1      26.132  -9.121  39.386  1.00  0.00    -0.267 OA
HETATM    2  N1  UNK     1      24.605  -7.484  38.735  1.00  0.00    -0.348 N 
HETATM    3  C6  UNK     1      25.865  -7.977  39.022  1.00  0.00     0.258 C 
HETATM    4  H2  UNK     1      24.497  -6.502  38.502  1.00  0.00     0.163 HD
ENDROOT
BRANCH   2   5
HETATM    5  C1  UNK     1      23.405  -8.285  38.833  1.00  0.00     0.114 C 
HETATM    6  C3  UNK     1      22.863  -8.217  40.263  1.00  0.00     0.037 C 
BRANCH   5   7
HETATM    7  C2  UNK     1      22.366  -7.856  37.816  1.00  0.00    -0.033 A 
HETATM    8  C4  UNK     1      21.621  -6.716  38.057  1.00  0.00     0.049 A 
HETATM    9  C7  UNK     1      20.665  -6.320  37.121  1.00  0.00     0.102 A 
HETATM   10  C10 UNK     1      20.471  -7.071  35.961  1.00  0.00     0.101 A 
HETATM   11  C9  UNK     1      21.233  -8.218  35.738  1.00  0.00     0.040 A 
HETATM   12  C5  UNK     1      22.189  -8.614  36.673  1.00  0.00     0.012 A 
BRANCH   9  13
HETATM   13  O2  UNK     1      19.928  -5.198  37.349  1.00  0.00    -0.353 OA
HETATM   14  C19 UNK     1      20.582  -3.944  37.165  1.00  0.00     0.210 C 
ENDBRANCH   9  13
BRANCH  10  15
HETATM   15  O3  UNK     1      19.542  -6.694  35.040  1.00  0.00    -0.353 OA
HETATM   16  C20 UNK     1      18.228  -7.230  35.186  1.00  0.00     0.210 C 
ENDBRANCH  10  15
ENDBRANCH   5   7
ENDBRANCH   2   5
BRANCH   3  17
HETATM   17  C8  UNK     1      26.923  -6.976  38.846  1.00  0.00     0.108 A 
HETATM   18  C12 UNK     1      28.169  -7.448  38.715  1.00  0.00     0.037 A 
HETATM   19  C11 UNK     1      29.285  -6.532  38.537  1.00  0.00    -0.001 A 
HETATM   20  C13 UNK     1      29.036  -5.164  38.507  1.00  0.00     0.089 A 
HETATM   21  C15 UNK     1      30.601  -6.980  38.395  1.00  0.00     0.014 A 
HETATM   22  O1  UNK     1      27.723  -4.673  38.646  1.00  0.00    -0.274 OA
HETATM   23  C16 UNK     1      30.059  -4.234  38.340  1.00  0.00     0.038 A 
HETATM   24  C14 UNK     1      26.634  -5.525  38.817  1.00  0.00     0.304 A 
HETATM   25  O5  UNK     1      25.495  -5.088  38.937  1.00  0.00    -0.259 OA
HETATM   26  C18 UNK     1      31.368  -4.690  38.198  1.00  0.00     0.003 A 
HETATM   27  C17 UNK     1      31.639  -6.060  38.227  1.00  0.00     0.001 A 
ENDBRANCH   3  17
TORSDOF 5
ENDMDL
MODEL 8
REMARK VINA RESULT:      -8.3      3.409      8.479
REMARK  5 active torsions:
REMARK  status: ('A' for Active; 'I' for Inactive)
REMARK    1  A    between atoms: C7_13  and  O2_2 
REMARK    2  A    between atoms: C10_16  and  O3_3 
REMARK    3  A    between atoms: C1_7  and  N1_6 
REMARK       I    between atoms: C6_12  and  N1_6 
REMARK    4  A    between atoms: C1_7  and  C2_8 
REMARK    5  A    between atoms: C6_12  and  C8_14 
ROOT
HETATM    1  O4  UNK     1      17.196   3.885  31.078  1.00  0.00    -0.267 OA
HETATM    2  N1  UNK     1      19.478   4.362  31.100  1.00  0.00    -0.348 N 
HETATM    3  C6  UNK     1      18.371   3.535  31.170  1.00  0.00     0.258 C 
HETATM    4  H2  UNK     1      20.402   3.970  31.251  1.00  0.00     0.163 HD
ENDROOT
BRANCH   2   5
HETATM    5  C1  UNK     1      19.382   5.792  30.904  1.00  0.00     0.114 C 
HETATM    6  C3  UNK     1      18.919   6.080  29.474  1.00  0.00     0.037 C 
BRANCH   5   7
HETATM    7  C2  UNK     1      18.472   6.434  31.931  1.00  0.00    -0.033 A 
HETATM    8  C4  UNK     1      17.264   6.965  31.520  1.00  0.00     0.049 A 
HETATM    9  C7  UNK     1      16.425   7.556  32.465  1.00  0.00     0.102 A 
HETATM   10  C10 UNK     1      16.810   7.607  33.805  1.00  0.00     0.101 A 
HETATM   11  C9  UNK     1      18.034   7.065  34.199  1.00  0.00     0.040 A 
HETATM   12  C5  UNK     1      18.872   6.474  33.255  1.00  0.00     0.012 A 
BRANCH   9  13
HETATM   13  O2  UNK     1      15.232   8.081  32.068  1.00  0.00    -0.353 OA
HETATM   14  C19 UNK     1      14.109   7.202  32.061  1.00  0.00     0.210 C 
ENDBRANCH   9  13
BRANCH  10  15
HETATM   15  O3  UNK     1      15.999   8.180  34.737  1.00  0.00    -0.353 OA
HETATM   16  C20 UNK     1      16.010   9.604  34.818  1.00  0.00     0.210 C 
ENDBRANCH  10  15
ENDBRANCH   5   7
ENDBRANCH   2   5
BRANCH   3  17
HETATM   17  C8  UNK     1      18.724   2.125  31.370  1.00  0.00     0.108 A 
HETATM   18  C12 UNK     1      19.369   1.527  30.361  1.00  0.00     0.037 A 
HETATM   19  C11 UNK     1      19.761   0.130  30.467  1.00  0.00    -0.001 A 
HETATM   20  C13 UNK     1      19.453  -0.569  31.629  1.00  0.00     0.089 A 
HETATM   21  C15 UNK     1      20.437  -0.534  29.441  1.00  0.00     0.014 A 
HETATM   22  O1  UNK     1      18.773   0.065  32.687  1.00  0.00    -0.274 OA
HETATM   23  C16 UNK     1      19.799  -1.909  31.794  1.00  0.00     0.038 A 
HETATM   24  C14 UNK     1      18.386   1.401  32.616  1.00  0.00     0.304 A 
HETATM   25  O5  UNK     1      17.795   1.944  33.542  1.00  0.00    -0.259 OA
HETATM   26  C18 UNK     1      20.473  -2.563  30.765  1.00  0.00     0.003 A 
HETATM   27  C17 UNK     1      20.791  -1.877  29.589  1.00  0.00     0.001 A 
ENDBRANCH   3  17
TORSDOF 5
ENDMDL
MODEL 9
REMARK VINA RESULT:      -8.2      3.581      5.116
REMARK  5 active torsions:
REMARK  status: ('A' for Active; 'I' for Inactive)
REMARK    1  A    between atoms: C7_13  and  O2_2 
REMARK    2  A    between atoms: C10_16  and  O3_3 
REMARK    3  A    between atoms: C1_7  and  N1_6 
REMARK       I    between atoms: C6_12  and  N1_6 
REMARK    4  A    between atoms: C1_7  and  C2_8 
REMARK    5  A    between atoms: C6_12  and  C8_14 
ROOT
HETATM    1  O4  UNK     1      21.757  -2.125  34.995  1.00  0.00    -0.267 OA
HETATM    2  N1  UNK     1      19.485  -2.644  35.045  1.00  0.00    -0.348 N 
HETATM    3  C6  UNK     1      20.673  -2.280  34.436  1.00  0.00     0.258 C 
HETATM    4  H2  UNK     1      18.634  -2.681  34.492  1.00  0.00     0.163 HD
ENDROOT
BRANCH   2   5
HETATM    5  C1  UNK     1      19.371  -2.895  36.465  1.00  0.00     0.114 C 
HETATM    6  C3  UNK     1      17.936  -2.617  36.918  1.00  0.00     0.037 C 
BRANCH   5   7
HETATM    7  C2  UNK     1      19.811  -4.302  36.817  1.00  0.00    -0.033 A 
HETATM    8  C4  UNK     1      19.042  -5.371  36.397  1.00  0.00     0.049 A 
HETATM    9  C7  UNK     1      19.447  -6.667  36.721  1.00  0.00     0.102 A 
HETATM   10  C10 UNK     1      20.613  -6.870  37.459  1.00  0.00     0.101 A 
HETATM   11  C9  UNK     1      21.374  -5.776  37.873  1.00  0.00     0.040 A 
HETATM   12  C5  UNK     1      20.971  -4.482  37.549  1.00  0.00     0.012 A 
BRANCH   9  13
HETATM   13  O2  UNK     1      18.696  -7.726  36.310  1.00  0.00    -0.353 OA
HETATM   14  C19 UNK     1      17.589  -7.443  35.457  1.00  0.00     0.210 C 
ENDBRANCH   9  13
BRANCH  10  15
HETATM   15  O3  UNK     1      21.019  -8.129  37.780  1.00  0.00    -0.353 OA
HETATM   16  C20 UNK     1      22.415  -8.326  37.993  1.00  0.00     0.210 C 
ENDBRANCH  10  15
ENDBRANCH   5   7
ENDBRANCH   2   5
BRANCH   3  17
HETATM   17  C8  UNK     1      20.535  -2.083  32.989  1.00  0.00     0.108 A 
HETATM   18  C12 UNK     1      19.996  -0.922  32.598  1.00  0.00     0.037 A 
HETATM   19  C11 UNK     1      19.819  -0.635  31.183  1.00  0.00    -0.001 A 
HETATM   20  C13 UNK     1      20.217  -1.585  30.249  1.00  0.00     0.089 A 
HETATM   21  C15 UNK     1      19.263   0.564  30.730  1.00  0.00     0.014 A 
HETATM   22  O1  UNK     1      20.782  -2.806  30.666  1.00  0.00    -0.274 OA
HETATM   23  C16 UNK     1      20.074  -1.373  28.879  1.00  0.00     0.038 A 
HETATM   24  C14 UNK     1      20.966  -3.109  32.013  1.00  0.00     0.304 A 
HETATM   25  O5  UNK     1      21.459  -4.174  32.366  1.00  0.00    -0.259 OA
HETATM   26  C18 UNK     1      19.519  -0.175  28.436  1.00  0.00     0.003 A 
HETATM   27  C17 UNK     1      19.113   0.792  29.359  1.00  0.00     0.001 A 
ENDBRANCH   3  17
TORSDOF 5
ENDMDL
MODEL 10
REMARK VINA RESULT:      -8.2      3.924      6.745
REMARK  5 active torsions:
REMARK  status: ('A' for Active; 'I' for Inactive)
REMARK    1  A    between atoms: C7_13  and  O2_2 
REMARK    2  A    between atoms: C10_16  and  O3_3 
REMARK    3  A    between atoms: C1_7  and  N1_6 
REMARK       I    between atoms: C6_12  and  N1_6 
REMARK    4  A    between atoms: C1_7  and  C2_8 
REMARK    5  A    between atoms: C6_12  and  C8_14 
ROOT
HETATM    1  O4  UNK     1      19.984  -4.671  37.809  1.00  0.00    -0.267 OA
HETATM    2  N1  UNK     1      18.072  -4.990  36.516  1.00  0.00    -0.348 N 
HETATM    3  C6  UNK     1      19.113  -4.253  37.049  1.00  0.00     0.258 C 
HETATM    4  H2  UNK     1      17.373  -4.524  35.945  1.00  0.00     0.163 HD
ENDROOT
BRANCH   2   5
HETATM    5  C1  UNK     1      17.873  -6.394  36.800  1.00  0.00     0.114 C 
HETATM    6  C3  UNK     1      16.679  -6.913  35.995  1.00  0.00     0.037 C 
BRANCH   5   7
HETATM    7  C2  UNK     1      19.128  -7.199  36.527  1.00  0.00    -0.033 A 
HETATM    8  C4  UNK     1      19.703  -7.918  37.559  1.00  0.00     0.049 A 
HETATM    9  C7  UNK     1      20.858  -8.659  37.309  1.00  0.00     0.102 A 
HETATM   10  C10 UNK     1      21.419  -8.668  36.031  1.00  0.00     0.101 A 
HETATM   11  C9  UNK     1      20.823  -7.935  35.004  1.00  0.00     0.040 A 
HETATM   12  C5  UNK     1      19.668  -7.195  35.254  1.00  0.00     0.012 A 
BRANCH   9  13
HETATM   13  O2  UNK     1      21.430  -9.371  38.320  1.00  0.00    -0.353 OA
HETATM   14  C19 UNK     1      21.578  -8.710  39.574  1.00  0.00     0.210 C 
ENDBRANCH   9  13
BRANCH  10  15
HETATM   15  O3  UNK     1      22.545  -9.388  35.774  1.00  0.00    -0.353 OA
HETATM   16  C20 UNK     1      22.369 -10.718  35.289  1.00  0.00     0.210 C 
ENDBRANCH  10  15
ENDBRANCH   5   7
ENDBRANCH   2   5
BRANCH   3  17
HETATM   17  C8  UNK     1      19.103  -2.852  36.611  1.00  0.00     0.108 A 
HETATM   18  C12 UNK     1      18.277  -2.032  37.271  1.00  0.00     0.037 A 
HETATM   19  C11 UNK     1      18.197  -0.625  36.910  1.00  0.00    -0.001 A 
HETATM   20  C13 UNK     1      18.990  -0.151  35.871  1.00  0.00     0.089 A 
HETATM   21  C15 UNK     1      17.350   0.267  37.572  1.00  0.00     0.014 A 
HETATM   22  O1  UNK     1      19.858  -1.019  35.179  1.00  0.00    -0.274 OA
HETATM   23  C16 UNK     1      18.961   1.184  35.474  1.00  0.00     0.038 A 
HETATM   24  C14 UNK     1      19.957  -2.370  35.502  1.00  0.00     0.304 A 
HETATM   25  O5  UNK     1      20.715  -3.118  34.895  1.00  0.00    -0.259 OA
HETATM   26  C18 UNK     1      18.114   2.067  36.140  1.00  0.00     0.003 A 
HETATM   27  C17 UNK     1      17.309   1.610  37.187  1.00  0.00     0.001 A 
ENDBRANCH   3  17
TORSDOF 5
ENDMDL
