MODEL 1
REMARK VINA RESULT:     -11.0      0.000      0.000
REMARK  7 active torsions:
REMARK  status: ('A' for Active; 'I' for Inactive)
REMARK    1  A    between atoms: C11_19  and  O2_3 
REMARK    2  A    between atoms: C7_15  and  O2_3 
REMARK    3  A    between atoms: C21_29  and  N1_6 
REMARK    4  A    between atoms: C4_12  and  N1_6 
REMARK       I    between atoms: C19_27  and  N2_7 
REMARK    5  A    between atoms: N2_7  and  N3_8 
REMARK    6  A    between atoms: C21_29  and  N3_8 
REMARK    7  A    between atoms: C19_27  and  C7_15 
ROOT
HETATM    1  O4  UNK     1      21.035  -1.497  35.650  1.00  0.00    -0.269 OA
HETATM    2  N2  UNK     1      19.440  -2.104  34.078  1.00  0.00    -0.266 N 
HETATM    3  C19 UNK     1      19.928  -1.945  35.363  1.00  0.00     0.265 C 
HETATM    4  H17 UNK     1      18.467  -2.316  33.895  1.00  0.00     0.190 HD
ENDROOT
BRANCH   2   5
HETATM    5  N3  UNK     1      20.231  -1.741  33.014  1.00  0.00    -0.273 N 
HETATM    6  H20 UNK     1      21.234  -1.776  33.158  1.00  0.00     0.189 HD
BRANCH   5   7
HETATM    7  C21 UNK     1      19.684  -1.344  31.796  1.00  0.00     0.191 C 
HETATM    8  S1  UNK     1      20.256  -2.116  30.423  1.00  0.00    -0.039 SA
BRANCH   7   9
HETATM    9  N1  UNK     1      18.705  -0.340  31.905  1.00  0.00    -0.332 N 
HETATM   10  H9  UNK     1      17.779  -0.699  32.114  1.00  0.00     0.168 HD
BRANCH   9  11
HETATM   11  C4  UNK     1      18.687   1.035  31.673  1.00  0.00     0.037 A 
HETATM   12  C6  UNK     1      18.295   1.909  32.683  1.00  0.00     0.067 A 
HETATM   13  C2  UNK     1      18.286   3.282  32.430  1.00  0.00     0.092 A 
HETATM   14  C1  UNK     1      18.655   3.815  31.194  1.00  0.00     0.004 A 
HETATM   15  O1  UNK     1      17.881   4.115  33.491  1.00  0.00    -0.275 OA
HETATM   16  C3  UNK     1      18.615   5.272  31.016  1.00  0.00    -0.043 A 
HETATM   17  C5  UNK     1      19.046   2.918  30.190  1.00  0.00     0.017 A 
HETATM   18  C10 UNK     1      18.226   6.041  32.043  1.00  0.00     0.090 A 
HETATM   19  C12 UNK     1      19.007   5.877  29.700  1.00  0.00     0.049 C 
HETATM   20  C18 UNK     1      17.833   5.494  33.353  1.00  0.00     0.288 A 
HETATM   21  O3  UNK     1      17.482   6.228  34.270  1.00  0.00    -0.260 OA
HETATM   22  C8  UNK     1      19.061   1.540  30.429  1.00  0.00     0.030 A 
ENDBRANCH   9  11
ENDBRANCH   7   9
ENDBRANCH   5   7
ENDBRANCH   2   5
BRANCH   3  23
HETATM   23  C7  UNK     1      18.933  -2.407  36.417  1.00  0.00     0.218 C 
HETATM   24  C20 UNK     1      18.222  -1.222  37.053  1.00  0.00     0.050 C 
BRANCH  23  25
HETATM   25  O2  UNK     1      19.624  -3.108  37.436  1.00  0.00    -0.337 OA
BRANCH  25  26
HETATM   26  C11 UNK     1      19.918  -4.427  37.194  1.00  0.00     0.070 A 
HETATM   27  C16 UNK     1      19.014  -5.213  36.491  1.00  0.00     0.037 A 
HETATM   28  C14 UNK     1      19.313  -6.553  36.244  1.00  0.00     0.015 A 
HETATM   29  C9  UNK     1      20.513  -7.095  36.703  1.00  0.00    -0.026 A 
HETATM   30  C13 UNK     1      20.823  -8.486  36.447  1.00  0.00    -0.026 A 
HETATM   31  C15 UNK     1      21.415  -6.298  37.407  1.00  0.00     0.015 A 
HETATM   32  C22 UNK     1      20.436  -9.466  37.361  1.00  0.00     0.012 A 
HETATM   33  C23 UNK     1      21.508  -8.845  35.286  1.00  0.00     0.012 A 
HETATM   34  C24 UNK     1      20.735 -10.806  37.114  1.00  0.00     0.001 A 
HETATM   35  C26 UNK     1      21.419 -11.166  35.954  1.00  0.00     0.000 A 
HETATM   36  C25 UNK     1      21.807 -10.185  35.040  1.00  0.00     0.001 A 
HETATM   37  C17 UNK     1      21.116  -4.958  37.654  1.00  0.00     0.037 A 
ENDBRANCH  25  26
ENDBRANCH  23  25
ENDBRANCH   3  23
TORSDOF 7
ENDMDL
MODEL 2
REMARK VINA RESULT:     -10.7      1.295      2.247
REMARK  7 active torsions:
REMARK  status: ('A' for Active; 'I' for Inactive)
REMARK    1  A    between atoms: C11_19  and  O2_3 
REMARK    2  A    between atoms: C7_15  and  O2_3 
REMARK    3  A    between atoms: C21_29  and  N1_6 
REMARK    4  A    between atoms: C4_12  and  N1_6 
REMARK       I    between atoms: C19_27  and  N2_7 
REMARK    5  A    between atoms: N2_7  and  N3_8 
REMARK    6  A    between atoms: C21_29  and  N3_8 
REMARK    7  A    between atoms: C19_27  and  C7_15 
ROOT
HETATM    1  O4  UNK     1      21.578  -1.815  35.052  1.00  0.00    -0.269 OA
HETATM    2  N2  UNK     1      19.717  -2.102  33.697  1.00  0.00    -0.266 N 
HETATM    3  C19 UNK     1      20.385  -2.066  34.908  1.00  0.00     0.265 C 
HETATM    4  H17 UNK     1      18.707  -2.146  33.640  1.00  0.00     0.190 HD
ENDROOT
BRANCH   2   5
HETATM    5  N3  UNK     1      20.415  -1.840  32.542  1.00  0.00    -0.273 N 
HETATM    6  H20 UNK     1      21.375  -2.167  32.505  1.00  0.00     0.189 HD
BRANCH   5   7
HETATM    7  C21 UNK     1      19.836  -1.162  31.473  1.00  0.00     0.191 C 
HETATM    8  S1  UNK     1      20.469  -1.466  29.951  1.00  0.00    -0.039 SA
BRANCH   7   9
HETATM    9  N1  UNK     1      18.775  -0.314  31.837  1.00  0.00    -0.332 N 
HETATM   10  H9  UNK     1      17.876  -0.783  31.876  1.00  0.00     0.168 HD
BRANCH   9  11
HETATM   11  C4  UNK     1      18.651   1.060  32.044  1.00  0.00     0.037 A 
HETATM   12  C6  UNK     1      18.957   1.952  31.021  1.00  0.00     0.067 A 
HETATM   13  C2  UNK     1      18.825   3.323  31.249  1.00  0.00     0.092 A 
HETATM   14  C1  UNK     1      18.396   3.836  32.474  1.00  0.00     0.004 A 
HETATM   15  O1  UNK     1      19.149   4.175  30.176  1.00  0.00    -0.275 OA
HETATM   16  C3  UNK     1      18.286   5.293  32.627  1.00  0.00    -0.043 A 
HETATM   17  C5  UNK     1      18.093   2.922  33.492  1.00  0.00     0.017 A 
HETATM   18  C10 UNK     1      18.601   6.080  31.588  1.00  0.00     0.090 A 
HETATM   19  C12 UNK     1      17.826   5.876  33.931  1.00  0.00     0.049 C 
HETATM   20  C18 UNK     1      19.055   5.554  30.290  1.00  0.00     0.288 A 
HETATM   21  O3  UNK     1      19.336   6.304  29.362  1.00  0.00    -0.260 OA
HETATM   22  C8  UNK     1      18.220   1.545  33.278  1.00  0.00     0.030 A 
ENDBRANCH   9  11
ENDBRANCH   7   9
ENDBRANCH   5   7
ENDBRANCH   2   5
BRANCH   3  23
HETATM   23  C7  UNK     1      19.469  -2.390  36.080  1.00  0.00     0.218 C 
HETATM   24  C20 UNK     1      18.817  -1.130  36.628  1.00  0.00     0.050 C 
BRANCH  23  25
HETATM   25  O2  UNK     1      20.230  -2.983  37.117  1.00  0.00    -0.337 OA
BRANCH  25  26
HETATM   26  C11 UNK     1      20.191  -4.353  37.211  1.00  0.00     0.070 A 
HETATM   27  C16 UNK     1      21.169  -5.018  37.941  1.00  0.00     0.037 A 
HETATM   28  C14 UNK     1      21.130  -6.409  38.037  1.00  0.00     0.015 A 
HETATM   29  C9  UNK     1      20.114  -7.123  37.403  1.00  0.00    -0.026 A 
HETATM   30  C13 UNK     1      20.073  -8.566  37.503  1.00  0.00    -0.026 A 
HETATM   31  C15 UNK     1      19.136  -6.447  36.673  1.00  0.00     0.015 A 
HETATM   32  C22 UNK     1      20.735  -9.349  36.557  1.00  0.00     0.012 A 
HETATM   33  C23 UNK     1      19.372  -9.173  38.545  1.00  0.00     0.012 A 
HETATM   34  C24 UNK     1      20.696 -10.740  36.654  1.00  0.00     0.001 A 
HETATM   35  C26 UNK     1      19.996 -11.348  37.696  1.00  0.00     0.000 A 
HETATM   36  C25 UNK     1      19.333 -10.564  38.640  1.00  0.00     0.001 A 
HETATM   37  C17 UNK     1      19.175  -5.056  36.576  1.00  0.00     0.037 A 
ENDBRANCH  25  26
ENDBRANCH  23  25
ENDBRANCH   3  23
TORSDOF 7
ENDMDL
MODEL 3
REMARK VINA RESULT:     -10.6      2.481      4.086
REMARK  7 active torsions:
REMARK  status: ('A' for Active; 'I' for Inactive)
REMARK    1  A    between atoms: C11_19  and  O2_3 
REMARK    2  A    between atoms: C7_15  and  O2_3 
REMARK    3  A    between atoms: C21_29  and  N1_6 
REMARK    4  A    between atoms: C4_12  and  N1_6 
REMARK       I    between atoms: C19_27  and  N2_7 
REMARK    5  A    between atoms: N2_7  and  N3_8 
REMARK    6  A    between atoms: C21_29  and  N3_8 
REMARK    7  A    between atoms: C19_27  and  C7_15 
ROOT
HETATM    1  O4  UNK     1      16.363   0.913  34.076  1.00  0.00    -0.269 OA
HETATM    2  N2  UNK     1      18.333   1.831  33.264  1.00  0.00    -0.266 N 
HETATM    3  C19 UNK     1      17.565   1.144  34.187  1.00  0.00     0.265 C 
HETATM    4  H17 UNK     1      19.344   1.852  33.315  1.00  0.00     0.190 HD
ENDROOT
BRANCH   2   5
HETATM    5  N3  UNK     1      17.737   2.305  32.120  1.00  0.00    -0.273 N 
HETATM    6  H20 UNK     1      16.733   2.449  32.154  1.00  0.00     0.189 HD
BRANCH   5   7
HETATM    7  C21 UNK     1      18.472   2.579  30.969  1.00  0.00     0.191 C 
HETATM    8  S1  UNK     1      18.950   1.265  30.046  1.00  0.00    -0.039 SA
BRANCH   7   9
HETATM    9  N1  UNK     1      18.698   3.949  30.744  1.00  0.00    -0.332 N 
HETATM   10  H9  UNK     1      18.971   4.163  29.790  1.00  0.00     0.168 HD
BRANCH   9  11
HETATM   11  C4  UNK     1      18.749   5.078  31.562  1.00  0.00     0.037 A 
HETATM   12  C6  UNK     1      17.573   5.653  32.035  1.00  0.00     0.067 A 
HETATM   13  C2  UNK     1      17.648   6.780  32.854  1.00  0.00     0.092 A 
HETATM   14  C1  UNK     1      18.866   7.359  33.217  1.00  0.00     0.004 A 
HETATM   15  O1  UNK     1      16.425   7.317  33.301  1.00  0.00    -0.275 OA
HETATM   16  C3  UNK     1      18.850   8.546  34.082  1.00  0.00    -0.043 A 
HETATM   17  C5  UNK     1      20.038   6.765  32.730  1.00  0.00     0.017 A 
HETATM   18  C10 UNK     1      17.671   9.034  34.493  1.00  0.00     0.090 A 
HETATM   19  C12 UNK     1      20.142   9.190  34.492  1.00  0.00     0.049 C 
HETATM   20  C18 UNK     1      16.379   8.436  34.119  1.00  0.00     0.288 A 
HETATM   21  O3  UNK     1      15.320   8.910  34.513  1.00  0.00    -0.260 OA
HETATM   22  C8  UNK     1      19.980   5.634  31.909  1.00  0.00     0.030 A 
ENDBRANCH   9  11
ENDBRANCH   7   9
ENDBRANCH   5   7
ENDBRANCH   2   5
BRANCH   3  23
HETATM   23  C7  UNK     1      18.376   0.702  35.396  1.00  0.00     0.218 C 
HETATM   24  C20 UNK     1      19.006   1.895  36.097  1.00  0.00     0.050 C 
BRANCH  23  25
HETATM   25  O2  UNK     1      19.415  -0.161  34.970  1.00  0.00    -0.337 OA
BRANCH  25  26
HETATM   26  C11 UNK     1      19.448  -1.417  35.525  1.00  0.00     0.070 A 
HETATM   27  C16 UNK     1      18.710  -1.678  36.673  1.00  0.00     0.037 A 
HETATM   28  C14 UNK     1      18.743  -2.953  37.238  1.00  0.00     0.015 A 
HETATM   29  C9  UNK     1      19.514  -3.956  36.650  1.00  0.00    -0.026 A 
HETATM   30  C13 UNK     1      19.548  -5.279  37.236  1.00  0.00    -0.026 A 
HETATM   31  C15 UNK     1      20.252  -3.685  35.498  1.00  0.00     0.015 A 
HETATM   32  C22 UNK     1      20.508  -5.590  38.199  1.00  0.00     0.012 A 
HETATM   33  C23 UNK     1      18.621  -6.242  36.839  1.00  0.00     0.012 A 
HETATM   34  C24 UNK     1      20.541  -6.865  38.764  1.00  0.00     0.001 A 
HETATM   35  C26 UNK     1      19.614  -7.828  38.367  1.00  0.00     0.000 A 
HETATM   36  C25 UNK     1      18.655  -7.517  37.403  1.00  0.00     0.001 A 
HETATM   37  C17 UNK     1      20.219  -2.409  34.933  1.00  0.00     0.037 A 
ENDBRANCH  25  26
ENDBRANCH  23  25
ENDBRANCH   3  23
TORSDOF 7
ENDMDL
MODEL 4
REMARK VINA RESULT:     -10.5      2.617     12.367
REMARK  7 active torsions:
REMARK  status: ('A' for Active; 'I' for Inactive)
REMARK    1  A    between atoms: C11_19  and  O2_3 
REMARK    2  A    between atoms: C7_15  and  O2_3 
REMARK    3  A    between atoms: C21_29  and  N1_6 
REMARK    4  A    between atoms: C4_12  and  N1_6 
REMARK       I    between atoms: C19_27  and  N2_7 
REMARK    5  A    between atoms: N2_7  and  N3_8 
REMARK    6  A    between atoms: C21_29  and  N3_8 
REMARK    7  A    between atoms: C19_27  and  C7_15 
ROOT
HETATM    1  O4  UNK     1      20.519   0.360  30.753  1.00  0.00    -0.269 OA
HETATM    2  N2  UNK     1      18.667   0.239  32.146  1.00  0.00    -0.266 N 
HETATM    3  C19 UNK     1      19.384   0.715  31.063  1.00  0.00     0.265 C 
HETATM    4  H17 UNK     1      17.680   0.433  32.265  1.00  0.00     0.190 HD
ENDROOT
BRANCH   2   5
HETATM    5  N3  UNK     1      19.238  -0.708  32.961  1.00  0.00    -0.273 N 
HETATM    6  H20 UNK     1      19.999  -1.252  32.566  1.00  0.00     0.189 HD
BRANCH   5   7
HETATM    7  C21 UNK     1      18.800  -0.914  34.266  1.00  0.00     0.191 C 
HETATM    8  S1  UNK     1      17.210  -0.507  34.604  1.00  0.00    -0.039 SA
BRANCH   7   9
HETATM    9  N1  UNK     1      19.777  -1.454  35.122  1.00  0.00    -0.332 N 
HETATM   10  H9  UNK     1      20.589  -0.857  35.239  1.00  0.00     0.168 HD
BRANCH   9  11
HETATM   11  C4  UNK     1      19.943  -2.683  35.761  1.00  0.00     0.037 A 
HETATM   12  C6  UNK     1      20.107  -3.844  35.012  1.00  0.00     0.067 A 
HETATM   13  C2  UNK     1      20.273  -5.063  35.672  1.00  0.00     0.092 A 
HETATM   14  C1  UNK     1      20.278  -5.162  37.064  1.00  0.00     0.004 A 
HETATM   15  O1  UNK     1      20.435  -6.202  34.860  1.00  0.00    -0.275 OA
HETATM   16  C3  UNK     1      20.458  -6.486  37.674  1.00  0.00    -0.043 A 
HETATM   17  C5  UNK     1      20.110  -3.982  37.801  1.00  0.00     0.017 A 
HETATM   18  C10 UNK     1      20.611  -7.553  36.877  1.00  0.00     0.090 A 
HETATM   19  C12 UNK     1      20.470  -6.626  39.169  1.00  0.00     0.049 C 
HETATM   20  C18 UNK     1      20.608  -7.465  35.407  1.00  0.00     0.288 A 
HETATM   21  O3  UNK     1      20.749  -8.462  34.709  1.00  0.00    -0.260 OA
HETATM   22  C8  UNK     1      19.944  -2.752  37.154  1.00  0.00     0.030 A 
ENDBRANCH   9  11
ENDBRANCH   7   9
ENDBRANCH   5   7
ENDBRANCH   2   5
BRANCH   3  23
HETATM   23  C7  UNK     1      18.612   1.764  30.277  1.00  0.00     0.218 C 
HETATM   24  C20 UNK     1      18.294   1.271  28.874  1.00  0.00     0.050 C 
BRANCH  23  25
HETATM   25  O2  UNK     1      19.398   2.938  30.167  1.00  0.00    -0.337 OA
BRANCH  25  26
HETATM   26  C11 UNK     1      18.889   4.082  30.731  1.00  0.00     0.070 A 
HETATM   27  C16 UNK     1      19.068   5.301  30.089  1.00  0.00     0.037 A 
HETATM   28  C14 UNK     1      18.551   6.463  30.661  1.00  0.00     0.015 A 
HETATM   29  C9  UNK     1      17.860   6.397  31.870  1.00  0.00    -0.026 A 
HETATM   30  C13 UNK     1      17.324   7.603  32.464  1.00  0.00    -0.026 A 
HETATM   31  C15 UNK     1      17.684   5.169  32.508  1.00  0.00     0.015 A 
HETATM   32  C22 UNK     1      18.101   8.348  33.351  1.00  0.00     0.012 A 
HETATM   33  C23 UNK     1      16.031   8.020  32.148  1.00  0.00     0.012 A 
HETATM   34  C24 UNK     1      17.584   9.511  33.923  1.00  0.00     0.001 A 
HETATM   35  C26 UNK     1      16.291   9.929  33.608  1.00  0.00     0.000 A 
HETATM   36  C25 UNK     1      15.515   9.183  32.721  1.00  0.00     0.001 A 
HETATM   37  C17 UNK     1      18.201   4.006  31.936  1.00  0.00     0.037 A 
ENDBRANCH  25  26
ENDBRANCH  23  25
ENDBRANCH   3  23
TORSDOF 7
ENDMDL
MODEL 5
REMARK VINA RESULT:     -10.5      3.040     12.685
REMARK  7 active torsions:
REMARK  status: ('A' for Active; 'I' for Inactive)
REMARK    1  A    between atoms: C11_19  and  O2_3 
REMARK    2  A    between atoms: C7_15  and  O2_3 
REMARK    3  A    between atoms: C21_29  and  N1_6 
REMARK    4  A    between atoms: C4_12  and  N1_6 
REMARK       I    between atoms: C19_27  and  N2_7 
REMARK    5  A    between atoms: N2_7  and  N3_8 
REMARK    6  A    between atoms: C21_29  and  N3_8 
REMARK    7  A    between atoms: C19_27  and  C7_15 
ROOT
HETATM    1  O4  UNK     1      19.172  -1.535  32.752  1.00  0.00    -0.269 OA
HETATM    2  N2  UNK     1      19.175  -1.863  35.048  1.00  0.00    -0.266 N 
HETATM    3  C19 UNK     1      18.848  -1.189  33.885  1.00  0.00     0.265 C 
HETATM    4  H17 UNK     1      18.748  -1.638  35.939  1.00  0.00     0.190 HD
ENDROOT
BRANCH   2   5
HETATM    5  N3  UNK     1      19.919  -3.015  34.966  1.00  0.00    -0.273 N 
HETATM    6  H20 UNK     1      20.479  -3.139  34.128  1.00  0.00     0.189 HD
BRANCH   5   7
HETATM    7  C21 UNK     1      19.911  -3.968  35.981  1.00  0.00     0.191 C 
HETATM    8  S1  UNK     1      20.433  -3.469  37.493  1.00  0.00    -0.039 SA
BRANCH   7   9
HETATM    9  N1  UNK     1      19.444  -5.233  35.578  1.00  0.00    -0.332 N 
HETATM   10  H9  UNK     1      18.737  -5.192  34.851  1.00  0.00     0.168 HD
BRANCH   9  11
HETATM   11  C4  UNK     1      19.644  -6.537  36.032  1.00  0.00     0.037 A 
HETATM   12  C6  UNK     1      20.627  -7.335  35.455  1.00  0.00     0.067 A 
HETATM   13  C2  UNK     1      20.811  -8.636  35.925  1.00  0.00     0.092 A 
HETATM   14  C1  UNK     1      20.039  -9.172  36.958  1.00  0.00     0.004 A 
HETATM   15  O1  UNK     1      21.822  -9.395  35.303  1.00  0.00    -0.275 OA
HETATM   16  C3  UNK     1      20.302 -10.551  37.389  1.00  0.00    -0.043 A 
HETATM   17  C5  UNK     1      19.054  -8.352  37.526  1.00  0.00     0.017 A 
HETATM   18  C10 UNK     1      21.270 -11.249  36.779  1.00  0.00     0.090 A 
HETATM   19  C12 UNK     1      19.490 -11.156  38.498  1.00  0.00     0.049 C 
HETATM   20  C18 UNK     1      22.092 -10.699  35.688  1.00  0.00     0.288 A 
HETATM   21  O3  UNK     1      22.968 -11.367  35.152  1.00  0.00    -0.260 OA
HETATM   22  C8  UNK     1      18.858  -7.046  37.066  1.00  0.00     0.030 A 
ENDBRANCH   9  11
ENDBRANCH   7   9
ENDBRANCH   5   7
ENDBRANCH   2   5
BRANCH   3  23
HETATM   23  C7  UNK     1      18.035   0.068  34.157  1.00  0.00     0.218 C 
HETATM   24  C20 UNK     1      16.597  -0.278  34.510  1.00  0.00     0.050 C 
BRANCH  23  25
HETATM   25  O2  UNK     1      18.024   0.877  32.995  1.00  0.00    -0.337 OA
BRANCH  25  26
HETATM   26  C11 UNK     1      18.164   2.231  33.178  1.00  0.00     0.070 A 
HETATM   27  C16 UNK     1      18.065   3.084  32.087  1.00  0.00     0.037 A 
HETATM   28  C14 UNK     1      18.207   4.460  32.272  1.00  0.00     0.015 A 
HETATM   29  C9  UNK     1      18.447   4.969  33.548  1.00  0.00    -0.026 A 
HETATM   30  C13 UNK     1      18.594   6.396  33.741  1.00  0.00    -0.026 A 
HETATM   31  C15 UNK     1      18.545   4.105  34.638  1.00  0.00     0.015 A 
HETATM   32  C22 UNK     1      19.856   6.985  33.649  1.00  0.00     0.012 A 
HETATM   33  C23 UNK     1      17.476   7.182  34.018  1.00  0.00     0.012 A 
HETATM   34  C24 UNK     1      19.998   8.360  33.835  1.00  0.00     0.001 A 
HETATM   35  C26 UNK     1      18.879   9.147  34.111  1.00  0.00     0.000 A 
HETATM   36  C25 UNK     1      17.619   8.557  34.204  1.00  0.00     0.001 A 
HETATM   37  C17 UNK     1      18.403   2.730  34.452  1.00  0.00     0.037 A 
ENDBRANCH  25  26
ENDBRANCH  23  25
ENDBRANCH   3  23
TORSDOF 7
ENDMDL
MODEL 6
REMARK VINA RESULT:     -10.2      3.669     11.978
REMARK  7 active torsions:
REMARK  status: ('A' for Active; 'I' for Inactive)
REMARK    1  A    between atoms: C11_19  and  O2_3 
REMARK    2  A    between atoms: C7_15  and  O2_3 
REMARK    3  A    between atoms: C21_29  and  N1_6 
REMARK    4  A    between atoms: C4_12  and  N1_6 
REMARK       I    between atoms: C19_27  and  N2_7 
REMARK    5  A    between atoms: N2_7  and  N3_8 
REMARK    6  A    between atoms: C21_29  and  N3_8 
REMARK    7  A    between atoms: C19_27  and  C7_15 
ROOT
HETATM    1  O4  UNK     1      17.122   2.536  30.541  1.00  0.00    -0.269 OA
HETATM    2  N2  UNK     1      19.376   2.677  30.012  1.00  0.00    -0.266 N 
HETATM    3  C19 UNK     1      18.181   3.157  30.517  1.00  0.00     0.265 C 
HETATM    4  H17 UNK     1      20.256   3.154  30.165  1.00  0.00     0.190 HD
ENDROOT
BRANCH   2   5
HETATM    5  N3  UNK     1      19.417   1.407  29.487  1.00  0.00    -0.273 N 
HETATM    6  H20 UNK     1      19.307   1.324  28.482  1.00  0.00     0.189 HD
BRANCH   5   7
HETATM    7  C21 UNK     1      19.602   0.286  30.293  1.00  0.00     0.191 C 
HETATM    8  S1  UNK     1      20.865  -0.738  29.886  1.00  0.00    -0.039 SA
BRANCH   7   9
HETATM    9  N1  UNK     1      18.688   0.186  31.358  1.00  0.00    -0.332 N 
HETATM   10  H9  UNK     1      17.798   0.637  31.172  1.00  0.00     0.168 HD
BRANCH   9  11
HETATM   11  C4  UNK     1      18.763  -0.292  32.666  1.00  0.00     0.037 A 
HETATM   12  C6  UNK     1      18.223   0.449  33.713  1.00  0.00     0.067 A 
HETATM   13  C2  UNK     1      18.307  -0.049  35.014  1.00  0.00     0.092 A 
HETATM   14  C1  UNK     1      18.918  -1.270  35.307  1.00  0.00     0.004 A 
HETATM   15  O1  UNK     1      17.742   0.746  36.031  1.00  0.00    -0.275 OA
HETATM   16  C3  UNK     1      18.962  -1.716  36.706  1.00  0.00    -0.043 A 
HETATM   17  C5  UNK     1      19.456  -2.000  34.239  1.00  0.00     0.017 A 
HETATM   18  C10 UNK     1      18.415  -0.940  37.652  1.00  0.00     0.090 A 
HETATM   19  C12 UNK     1      19.610  -3.024  37.054  1.00  0.00     0.049 C 
HETATM   20  C18 UNK     1      17.768   0.350  37.360  1.00  0.00     0.288 A 
HETATM   21  O3  UNK     1      17.280   1.034  38.252  1.00  0.00    -0.260 OA
HETATM   22  C8  UNK     1      19.379  -1.515  32.929  1.00  0.00     0.030 A 
ENDBRANCH   9  11
ENDBRANCH   7   9
ENDBRANCH   5   7
ENDBRANCH   2   5
BRANCH   3  23
HETATM   23  C7  UNK     1      18.310   4.578  31.045  1.00  0.00     0.218 C 
HETATM   24  C20 UNK     1      19.754   5.053  30.991  1.00  0.00     0.050 C 
BRANCH  23  25
HETATM   25  O2  UNK     1      17.881   4.616  32.394  1.00  0.00    -0.337 OA
BRANCH  25  26
HETATM   26  C11 UNK     1      17.424   5.821  32.868  1.00  0.00     0.070 A 
HETATM   27  C16 UNK     1      16.700   6.658  32.029  1.00  0.00     0.037 A 
HETATM   28  C14 UNK     1      16.236   7.882  32.510  1.00  0.00     0.015 A 
HETATM   29  C9  UNK     1      16.499   8.259  33.826  1.00  0.00    -0.026 A 
HETATM   30  C13 UNK     1      16.017   9.529  34.326  1.00  0.00    -0.026 A 
HETATM   31  C15 UNK     1      17.226   7.412  34.663  1.00  0.00     0.015 A 
HETATM   32  C22 UNK     1      16.811  10.670  34.210  1.00  0.00     0.012 A 
HETATM   33  C23 UNK     1      14.759   9.612  34.922  1.00  0.00     0.012 A 
HETATM   34  C24 UNK     1      16.347  11.894  34.691  1.00  0.00     0.001 A 
HETATM   35  C26 UNK     1      15.089  11.978  35.287  1.00  0.00     0.000 A 
HETATM   36  C25 UNK     1      14.295  10.836  35.403  1.00  0.00     0.001 A 
HETATM   37  C17 UNK     1      17.691   6.188  34.182  1.00  0.00     0.037 A 
ENDBRANCH  25  26
ENDBRANCH  23  25
ENDBRANCH   3  23
TORSDOF 7
ENDMDL
MODEL 7
REMARK VINA RESULT:     -10.1      3.352      4.761
REMARK  7 active torsions:
REMARK  status: ('A' for Active; 'I' for Inactive)
REMARK    1  A    between atoms: C11_19  and  O2_3 
REMARK    2  A    between atoms: C7_15  and  O2_3 
REMARK    3  A    between atoms: C21_29  and  N1_6 
REMARK    4  A    between atoms: C4_12  and  N1_6 
REMARK       I    between atoms: C19_27  and  N2_7 
REMARK    5  A    between atoms: N2_7  and  N3_8 
REMARK    6  A    between atoms: C21_29  and  N3_8 
REMARK    7  A    between atoms: C19_27  and  C7_15 
ROOT
HETATM    1  O4  UNK     1      17.331  -6.156  37.116  1.00  0.00    -0.269 OA
HETATM    2  N2  UNK     1      19.251  -5.034  36.456  1.00  0.00    -0.266 N 
HETATM    3  C19 UNK     1      18.519  -6.155  36.802  1.00  0.00     0.265 C 
HETATM    4  H17 UNK     1      20.174  -5.100  36.045  1.00  0.00     0.190 HD
ENDROOT
BRANCH   2   5
HETATM    5  N3  UNK     1      18.632  -3.807  36.451  1.00  0.00    -0.273 N 
HETATM    6  H20 UNK     1      17.668  -3.781  36.769  1.00  0.00     0.189 HD
BRANCH   5   7
HETATM    7  C21 UNK     1      19.291  -2.654  36.034  1.00  0.00     0.191 C 
HETATM    8  S1  UNK     1      20.914  -2.524  36.431  1.00  0.00    -0.039 SA
BRANCH   7   9
HETATM    9  N1  UNK     1      18.481  -1.756  35.315  1.00  0.00    -0.332 N 
HETATM   10  H9  UNK     1      17.539  -1.676  35.685  1.00  0.00     0.168 HD
BRANCH   9  11
HETATM   11  C4  UNK     1      18.636  -1.033  34.133  1.00  0.00     0.037 A 
HETATM   12  C6  UNK     1      18.224   0.295  34.066  1.00  0.00     0.067 A 
HETATM   13  C2  UNK     1      18.390   1.000  32.873  1.00  0.00     0.092 A 
HETATM   14  C1  UNK     1      18.955   0.420  31.736  1.00  0.00     0.004 A 
HETATM   15  O1  UNK     1      17.955   2.340  32.868  1.00  0.00    -0.275 OA
HETATM   16  C3  UNK     1      19.091   1.237  30.523  1.00  0.00    -0.043 A 
HETATM   17  C5  UNK     1      19.363  -0.918  31.824  1.00  0.00     0.017 A 
HETATM   18  C10 UNK     1      18.669   2.509  30.547  1.00  0.00     0.090 A 
HETATM   19  C12 UNK     1      19.696   0.643  29.285  1.00  0.00     0.049 C 
HETATM   20  C18 UNK     1      18.070   3.136  31.738  1.00  0.00     0.288 A 
HETATM   21  O3  UNK     1      17.694   4.302  31.722  1.00  0.00    -0.260 OA
HETATM   22  C8  UNK     1      19.204  -1.638  33.013  1.00  0.00     0.030 A 
ENDBRANCH   9  11
ENDBRANCH   7   9
ENDBRANCH   5   7
ENDBRANCH   2   5
BRANCH   3  23
HETATM   23  C7  UNK     1      19.358  -7.424  36.769  1.00  0.00     0.218 C 
HETATM   24  C20 UNK     1      18.544  -8.604  36.260  1.00  0.00     0.050 C 
BRANCH  23  25
HETATM   25  O2  UNK     1      19.803  -7.724  38.079  1.00  0.00    -0.337 OA
BRANCH  25  26
HETATM   26  C11 UNK     1      21.161  -7.794  38.274  1.00  0.00     0.070 A 
HETATM   27  C16 UNK     1      21.968  -8.345  37.287  1.00  0.00     0.037 A 
HETATM   28  C14 UNK     1      23.347  -8.416  37.485  1.00  0.00     0.015 A 
HETATM   29  C9  UNK     1      23.907  -7.936  38.668  1.00  0.00    -0.026 A 
HETATM   30  C13 UNK     1      25.338  -8.010  38.873  1.00  0.00    -0.026 A 
HETATM   31  C15 UNK     1      23.089  -7.385  39.654  1.00  0.00     0.015 A 
HETATM   32  C22 UNK     1      25.898  -9.137  39.475  1.00  0.00     0.012 A 
HETATM   33  C23 UNK     1      26.156  -6.955  38.469  1.00  0.00     0.012 A 
HETATM   34  C24 UNK     1      27.277  -9.208  39.673  1.00  0.00     0.001 A 
HETATM   35  C26 UNK     1      28.096  -8.154  39.268  1.00  0.00     0.000 A 
HETATM   36  C25 UNK     1      27.534  -7.027  38.667  1.00  0.00     0.001 A 
HETATM   37  C17 UNK     1      21.710  -7.314  39.457  1.00  0.00     0.037 A 
ENDBRANCH  25  26
ENDBRANCH  23  25
ENDBRANCH   3  23
TORSDOF 7
ENDMDL
MODEL 8
REMARK VINA RESULT:     -10.1      2.623      4.320
REMARK  7 active torsions:
REMARK  status: ('A' for Active; 'I' for Inactive)
REMARK    1  A    between atoms: C11_19  and  O2_3 
REMARK    2  A    between atoms: C7_15  and  O2_3 
REMARK    3  A    between atoms: C21_29  and  N1_6 
REMARK    4  A    between atoms: C4_12  and  N1_6 
REMARK       I    between atoms: C19_27  and  N2_7 
REMARK    5  A    between atoms: N2_7  and  N3_8 
REMARK    6  A    between atoms: C21_29  and  N3_8 
REMARK    7  A    between atoms: C19_27  and  C7_15 
ROOT
HETATM    1  O4  UNK     1      16.308   0.899  34.059  1.00  0.00    -0.269 OA
HETATM    2  N2  UNK     1      18.284   1.722  33.163  1.00  0.00    -0.266 N 
HETATM    3  C19 UNK     1      17.519   1.095  34.130  1.00  0.00     0.265 C 
HETATM    4  H17 UNK     1      19.297   1.711  33.188  1.00  0.00     0.190 HD
ENDROOT
BRANCH   2   5
HETATM    5  N3  UNK     1      17.673   2.174  32.018  1.00  0.00    -0.273 N 
HETATM    6  H20 UNK     1      16.675   2.011  31.938  1.00  0.00     0.189 HD
BRANCH   5   7
HETATM    7  C21 UNK     1      18.386   2.827  31.016  1.00  0.00     0.191 C 
HETATM    8  S1  UNK     1      18.260   2.200  29.467  1.00  0.00    -0.039 SA
BRANCH   7   9
HETATM    9  N1  UNK     1      19.112   3.946  31.462  1.00  0.00    -0.332 N 
HETATM   10  H9  UNK     1      20.116   3.798  31.477  1.00  0.00     0.168 HD
BRANCH   9  11
HETATM   11  C4  UNK     1      18.764   5.183  32.005  1.00  0.00     0.037 A 
HETATM   12  C6  UNK     1      19.735   5.985  32.598  1.00  0.00     0.067 A 
HETATM   13  C2  UNK     1      19.364   7.219  33.133  1.00  0.00     0.092 A 
HETATM   14  C1  UNK     1      18.048   7.682  33.098  1.00  0.00     0.004 A 
HETATM   15  O1  UNK     1      20.391   7.985  33.719  1.00  0.00    -0.275 OA
HETATM   16  C3  UNK     1      17.748   8.994  33.687  1.00  0.00    -0.043 A 
HETATM   17  C5  UNK     1      17.085   6.860  32.497  1.00  0.00     0.017 A 
HETATM   18  C10 UNK     1      18.745   9.702  34.237  1.00  0.00     0.090 A 
HETATM   19  C12 UNK     1      16.343   9.521  33.664  1.00  0.00     0.049 C 
HETATM   20  C18 UNK     1      20.138   9.227  34.283  1.00  0.00     0.288 A 
HETATM   21  O3  UNK     1      21.024   9.901  34.795  1.00  0.00    -0.260 OA
HETATM   22  C8  UNK     1      17.441   5.620  31.955  1.00  0.00     0.030 A 
ENDBRANCH   9  11
ENDBRANCH   7   9
ENDBRANCH   5   7
ENDBRANCH   2   5
BRANCH   3  23
HETATM   23  C7  UNK     1      18.347   0.670  35.333  1.00  0.00     0.218 C 
HETATM   24  C20 UNK     1      18.968   1.875  36.023  1.00  0.00     0.050 C 
BRANCH  23  25
HETATM   25  O2  UNK     1      19.394  -0.182  34.902  1.00  0.00    -0.337 OA
BRANCH  25  26
HETATM   26  C11 UNK     1      19.460  -1.427  35.479  1.00  0.00     0.070 A 
HETATM   27  C16 UNK     1      20.159  -2.442  34.839  1.00  0.00     0.037 A 
HETATM   28  C14 UNK     1      20.227  -3.707  35.424  1.00  0.00     0.015 A 
HETATM   29  C9  UNK     1      19.594  -3.945  36.644  1.00  0.00    -0.026 A 
HETATM   30  C13 UNK     1      19.665  -5.257  37.251  1.00  0.00    -0.026 A 
HETATM   31  C15 UNK     1      18.895  -2.919  37.280  1.00  0.00     0.015 A 
HETATM   32  C22 UNK     1      18.692  -6.213  36.959  1.00  0.00     0.012 A 
HETATM   33  C23 UNK     1      20.705  -5.565  38.127  1.00  0.00     0.012 A 
HETATM   34  C24 UNK     1      18.760  -7.477  37.544  1.00  0.00     0.001 A 
HETATM   35  C26 UNK     1      19.800  -7.787  38.420  1.00  0.00     0.000 A 
HETATM   36  C25 UNK     1      20.772  -6.829  38.712  1.00  0.00     0.001 A 
HETATM   37  C17 UNK     1      18.827  -1.655  36.694  1.00  0.00     0.037 A 
ENDBRANCH  25  26
ENDBRANCH  23  25
ENDBRANCH   3  23
TORSDOF 7
ENDMDL
MODEL 9
REMARK VINA RESULT:     -10.0     10.894     14.359
REMARK  7 active torsions:
REMARK  status: ('A' for Active; 'I' for Inactive)
REMARK    1  A    between atoms: C11_19  and  O2_3 
REMARK    2  A    between atoms: C7_15  and  O2_3 
REMARK    3  A    between atoms: C21_29  and  N1_6 
REMARK    4  A    between atoms: C4_12  and  N1_6 
REMARK       I    between atoms: C19_27  and  N2_7 
REMARK    5  A    between atoms: N2_7  and  N3_8 
REMARK    6  A    between atoms: C21_29  and  N3_8 
REMARK    7  A    between atoms: C19_27  and  C7_15 
ROOT
HETATM    1  O4  UNK     1      29.142  -7.494  29.379  1.00  0.00    -0.269 OA
HETATM    2  N2  UNK     1      28.189  -9.235  30.581  1.00  0.00    -0.266 N 
HETATM    3  C19 UNK     1      28.337  -7.911  30.208  1.00  0.00     0.265 C 
HETATM    4  H17 UNK     1      27.406  -9.553  31.138  1.00  0.00     0.190 HD
ENDROOT
BRANCH   2   5
HETATM    5  N3  UNK     1      28.990 -10.186  29.996  1.00  0.00    -0.273 N 
HETATM    6  H20 UNK     1      28.722 -10.503  29.071  1.00  0.00     0.189 HD
BRANCH   5   7
HETATM    7  C21 UNK     1      30.117 -10.692  30.639  1.00  0.00     0.191 C 
HETATM    8  S1  UNK     1      31.580 -10.536  29.836  1.00  0.00    -0.039 SA
BRANCH   7   9
HETATM    9  N1  UNK     1      29.855 -11.260  31.898  1.00  0.00    -0.332 N 
HETATM   10  H9  UNK     1      29.488 -12.205  31.848  1.00  0.00     0.168 HD
BRANCH   9  11
HETATM   11  C4  UNK     1      29.872 -10.781  33.208  1.00  0.00     0.037 A 
HETATM   12  C6  UNK     1      28.734 -10.192  33.752  1.00  0.00     0.067 A 
HETATM   13  C2  UNK     1      28.773  -9.720  35.065  1.00  0.00     0.092 A 
HETATM   14  C1  UNK     1      29.917  -9.817  35.859  1.00  0.00     0.004 A 
HETATM   15  O1  UNK     1      27.591  -9.134  35.559  1.00  0.00    -0.275 OA
HETATM   16  C3  UNK     1      29.868  -9.293  37.230  1.00  0.00    -0.043 A 
HETATM   17  C5  UNK     1      31.052 -10.413  35.293  1.00  0.00     0.017 A 
HETATM   18  C10 UNK     1      28.730  -8.742  37.674  1.00  0.00     0.090 A 
HETATM   19  C12 UNK     1      31.081  -9.383  38.109  1.00  0.00     0.049 C 
HETATM   20  C18 UNK     1      27.514  -8.632  36.849  1.00  0.00     0.288 A 
HETATM   21  O3  UNK     1      26.491  -8.120  37.288  1.00  0.00    -0.260 OA
HETATM   22  C8  UNK     1      31.029 -10.891  33.978  1.00  0.00     0.030 A 
ENDBRANCH   9  11
ENDBRANCH   7   9
ENDBRANCH   5   7
ENDBRANCH   2   5
BRANCH   3  23
HETATM   23  C7  UNK     1      27.384  -6.992  30.958  1.00  0.00     0.218 C 
HETATM   24  C20 UNK     1      26.165  -6.661  30.112  1.00  0.00     0.050 C 
BRANCH  23  25
HETATM   25  O2  UNK     1      28.051  -5.781  31.269  1.00  0.00    -0.337 OA
BRANCH  25  26
HETATM   26  C11 UNK     1      28.929  -5.808  32.325  1.00  0.00     0.070 A 
HETATM   27  C16 UNK     1      30.203  -5.276  32.170  1.00  0.00     0.037 A 
HETATM   28  C14 UNK     1      31.095  -5.302  33.242  1.00  0.00     0.015 A 
HETATM   29  C9  UNK     1      30.706  -5.862  34.459  1.00  0.00    -0.026 A 
HETATM   30  C13 UNK     1      31.632  -5.890  35.571  1.00  0.00    -0.026 A 
HETATM   31  C15 UNK     1      29.425  -6.394  34.605  1.00  0.00     0.015 A 
HETATM   32  C22 UNK     1      32.484  -6.981  35.742  1.00  0.00     0.012 A 
HETATM   33  C23 UNK     1      31.672  -4.825  36.472  1.00  0.00     0.012 A 
HETATM   34  C24 UNK     1      33.376  -7.008  36.814  1.00  0.00     0.001 A 
HETATM   35  C26 UNK     1      33.417  -5.944  37.714  1.00  0.00     0.000 A 
HETATM   36  C25 UNK     1      32.564  -4.853  37.544  1.00  0.00     0.001 A 
HETATM   37  C17 UNK     1      28.533  -6.367  33.533  1.00  0.00     0.037 A 
ENDBRANCH  25  26
ENDBRANCH  23  25
ENDBRANCH   3  23
TORSDOF 7
ENDMDL
MODEL 10
REMARK VINA RESULT:      -9.9     11.109     12.417
REMARK  7 active torsions:
REMARK  status: ('A' for Active; 'I' for Inactive)
REMARK    1  A    between atoms: C11_19  and  O2_3 
REMARK    2  A    between atoms: C7_15  and  O2_3 
REMARK    3  A    between atoms: C21_29  and  N1_6 
REMARK    4  A    between atoms: C4_12  and  N1_6 
REMARK       I    between atoms: C19_27  and  N2_7 
REMARK    5  A    between atoms: N2_7  and  N3_8 
REMARK    6  A    between atoms: C21_29  and  N3_8 
REMARK    7  A    between atoms: C19_27  and  C7_15 
ROOT
HETATM    1  O4  UNK     1      31.853  -5.774  37.959  1.00  0.00    -0.269 OA
HETATM    2  N2  UNK     1      31.055  -3.859  36.920  1.00  0.00    -0.266 N 
HETATM    3  C19 UNK     1      30.938  -4.997  37.698  1.00  0.00     0.265 C 
HETATM    4  H17 UNK     1      30.321  -3.163  36.871  1.00  0.00     0.190 HD
ENDROOT
BRANCH   2   5
HETATM    5  N3  UNK     1      32.279  -3.542  36.380  1.00  0.00    -0.273 N 
HETATM    6  H20 UNK     1      32.824  -2.838  36.866  1.00  0.00     0.189 HD
BRANCH   5   7
HETATM    7  C21 UNK     1      32.752  -4.157  35.224  1.00  0.00     0.191 C 
HETATM    8  S1  UNK     1      34.391  -4.501  35.165  1.00  0.00    -0.039 SA
BRANCH   7   9
HETATM    9  N1  UNK     1      31.759  -4.413  34.261  1.00  0.00    -0.332 N 
HETATM   10  H9  UNK     1      31.385  -3.573  33.831  1.00  0.00     0.168 HD
BRANCH   9  11
HETATM   11  C4  UNK     1      31.079  -5.556  33.839  1.00  0.00     0.037 A 
HETATM   12  C6  UNK     1      30.193  -5.488  32.768  1.00  0.00     0.067 A 
HETATM   13  C2  UNK     1      29.525  -6.643  32.362  1.00  0.00     0.092 A 
HETATM   14  C1  UNK     1      29.710  -7.874  32.996  1.00  0.00     0.004 A 
HETATM   15  O1  UNK     1      28.642  -6.511  31.272  1.00  0.00    -0.275 OA
HETATM   16  C3  UNK     1      28.964  -9.039  32.502  1.00  0.00    -0.043 A 
HETATM   17  C5  UNK     1      30.606  -7.921  34.073  1.00  0.00     0.017 A 
HETATM   18  C10 UNK     1      28.132  -8.883  31.463  1.00  0.00     0.090 A 
HETATM   19  C12 UNK     1      29.143 -10.375  33.161  1.00  0.00     0.049 C 
HETATM   20  C18 UNK     1      27.925  -7.593  30.784  1.00  0.00     0.288 A 
HETATM   21  O3  UNK     1      27.155  -7.489  29.837  1.00  0.00    -0.260 OA
HETATM   22  C8  UNK     1      31.284  -6.771  34.491  1.00  0.00     0.030 A 
ENDBRANCH   9  11
ENDBRANCH   7   9
ENDBRANCH   5   7
ENDBRANCH   2   5
BRANCH   3  23
HETATM   23  C7  UNK     1      29.518  -5.205  38.204  1.00  0.00     0.218 C 
HETATM   24  C20 UNK     1      29.151  -4.160  39.246  1.00  0.00     0.050 C 
BRANCH  23  25
HETATM   25  O2  UNK     1      29.419  -6.484  38.804  1.00  0.00    -0.337 OA
BRANCH  25  26
HETATM   26  C11 UNK     1      28.452  -7.327  38.316  1.00  0.00     0.070 A 
HETATM   27  C16 UNK     1      27.665  -8.054  39.201  1.00  0.00     0.037 A 
HETATM   28  C14 UNK     1      26.682  -8.911  38.705  1.00  0.00     0.015 A 
HETATM   29  C9  UNK     1      26.495  -9.034  37.329  1.00  0.00    -0.026 A 
HETATM   30  C13 UNK     1      25.475  -9.923  36.815  1.00  0.00    -0.026 A 
HETATM   31  C15 UNK     1      27.289  -8.300  36.448  1.00  0.00     0.015 A 
HETATM   32  C22 UNK     1      25.786 -11.254  36.538  1.00  0.00     0.012 A 
HETATM   33  C23 UNK     1      24.182  -9.448  36.596  1.00  0.00     0.012 A 
HETATM   34  C24 UNK     1      24.803 -12.111  36.043  1.00  0.00     0.001 A 
HETATM   35  C26 UNK     1      23.510 -11.638  35.824  1.00  0.00     0.000 A 
HETATM   36  C25 UNK     1      23.200 -10.306  36.100  1.00  0.00     0.001 A 
HETATM   37  C17 UNK     1      28.272  -7.444  36.943  1.00  0.00     0.037 A 
ENDBRANCH  25  26
ENDBRANCH  23  25
ENDBRANCH   3  23
TORSDOF 7
ENDMDL
