MODEL 1
REMARK VINA RESULT:      -7.4      0.000      0.000
REMARK  2 active torsions:
REMARK  status: ('A' for Active; 'I' for Inactive)
REMARK    1  A    between atoms: C1_3  and  C4_6 
REMARK    2  A    between atoms: C3_5  and  C7_9 
ROOT
HETATM    1  N1  UNK     1      20.237   9.126  34.636  1.00  0.00    -0.191 NA
HETATM    2  C4  UNK     1      19.828   6.399  32.539  1.00  0.00     0.034 C 
HETATM    3  C7  UNK     1      19.075   7.348  33.153  1.00  0.00     0.055 C 
HETATM    4  C16 UNK     1      19.718   8.328  33.971  1.00  0.00     0.100 C 
ENDROOT
BRANCH   3   5
HETATM    5  C3  UNK     1      17.608   7.417  33.004  1.00  0.00    -0.015 A 
HETATM    6  C10 UNK     1      17.067   7.721  31.767  1.00  0.00     0.014 A 
HETATM    7  C13 UNK     1      15.680   7.785  31.627  1.00  0.00     0.024 A 
HETATM    8  C15 UNK     1      14.857   7.544  32.726  1.00  0.00     0.034 A 
HETATM    9  C14 UNK     1      15.419   7.239  33.965  1.00  0.00     0.024 A 
HETATM   10 Cl1  UNK     1      13.146   7.622  32.553  1.00  0.00    -0.084 Cl
HETATM   11  C11 UNK     1      16.805   7.175  34.105  1.00  0.00     0.014 A 
ENDBRANCH   3   5
BRANCH   2  12
HETATM   12  C1  UNK     1      19.349   5.317  31.694  1.00  0.00    -0.035 A 
HETATM   13  C5  UNK     1      18.678   4.232  32.260  1.00  0.00     0.012 A 
HETATM   14  C8  UNK     1      18.219   3.195  31.449  1.00  0.00     0.007 A 
HETATM   15  C2  UNK     1      18.431   3.242  30.070  1.00  0.00    -0.062 A 
HETATM   16  C12 UNK     1      17.940   2.132  29.203  1.00  0.00     0.048 C 
HETATM   17  C9  UNK     1      19.101   4.326  29.504  1.00  0.00     0.007 A 
HETATM   18  C6  UNK     1      19.560   5.363  30.315  1.00  0.00     0.012 A 
ENDBRANCH   2  12
TORSDOF 2
ENDMDL
MODEL 2
REMARK VINA RESULT:      -7.0     22.443     24.484
REMARK  2 active torsions:
REMARK  status: ('A' for Active; 'I' for Inactive)
REMARK    1  A    between atoms: C1_3  and  C4_6 
REMARK    2  A    between atoms: C3_5  and  C7_9 
ROOT
HETATM    1  N1  UNK     1      16.350   4.721   9.503  1.00  0.00    -0.191 NA
HETATM    2  C4  UNK     1      13.154   5.107   8.225  1.00  0.00     0.034 C 
HETATM    3  C7  UNK     1      14.095   5.833   8.882  1.00  0.00     0.055 C 
HETATM    4  C16 UNK     1      15.339   5.218   9.224  1.00  0.00     0.100 C 
ENDROOT
BRANCH   3   5
HETATM    5  C3  UNK     1      13.889   7.247   9.255  1.00  0.00    -0.015 A 
HETATM    6  C10 UNK     1      13.365   7.548  10.501  1.00  0.00     0.014 A 
HETATM    7  C13 UNK     1      13.172   8.883  10.854  1.00  0.00     0.024 A 
HETATM    8  C15 UNK     1      13.507   9.897   9.956  1.00  0.00     0.034 A 
HETATM    9  C14 UNK     1      14.033   9.575   8.705  1.00  0.00     0.024 A 
HETATM   10 Cl1  UNK     1      13.269  11.545  10.392  1.00  0.00    -0.084 Cl
HETATM   11  C11 UNK     1      14.226   8.240   8.352  1.00  0.00     0.014 A 
ENDBRANCH   3   5
BRANCH   2  12
HETATM   12  C1  UNK     1      11.831   5.556   7.818  1.00  0.00    -0.035 A 
HETATM   13  C5  UNK     1      11.614   5.995   6.512  1.00  0.00     0.012 A 
HETATM   14  C8  UNK     1      10.346   6.425   6.123  1.00  0.00     0.007 A 
HETATM   15  C2  UNK     1       9.294   6.415   7.040  1.00  0.00    -0.062 A 
HETATM   16  C12 UNK     1       7.937   6.875   6.623  1.00  0.00     0.048 C 
HETATM   17  C9  UNK     1       9.511   5.975   8.345  1.00  0.00     0.007 A 
HETATM   18  C6  UNK     1      10.779   5.546   8.735  1.00  0.00     0.012 A 
ENDBRANCH   2  12
TORSDOF 2
ENDMDL
MODEL 3
REMARK VINA RESULT:      -7.0      3.517      5.993
REMARK  2 active torsions:
REMARK  status: ('A' for Active; 'I' for Inactive)
REMARK    1  A    between atoms: C1_3  and  C4_6 
REMARK    2  A    between atoms: C3_5  and  C7_9 
ROOT
HETATM    1  N1  UNK     1      18.082   2.036  28.203  1.00  0.00    -0.191 NA
HETATM    2  C4  UNK     1      18.869   4.743  30.215  1.00  0.00     0.034 C 
HETATM    3  C7  UNK     1      18.552   3.429  30.336  1.00  0.00     0.055 C 
HETATM    4  C16 UNK     1      18.293   2.662  29.158  1.00  0.00     0.100 C 
ENDROOT
BRANCH   3   5
HETATM    5  C3  UNK     1      18.469   2.749  31.644  1.00  0.00    -0.015 A 
HETATM    6  C10 UNK     1      18.107   3.478  32.764  1.00  0.00     0.014 A 
HETATM    7  C13 UNK     1      18.028   2.835  33.999  1.00  0.00     0.024 A 
HETATM    8  C15 UNK     1      18.310   1.473  34.095  1.00  0.00     0.034 A 
HETATM    9  C14 UNK     1      18.673   0.753  32.956  1.00  0.00     0.024 A 
HETATM   10 Cl1  UNK     1      18.212   0.679  35.618  1.00  0.00    -0.084 Cl
HETATM   11  C11 UNK     1      18.753   1.397  31.721  1.00  0.00     0.014 A 
ENDBRANCH   3   5
BRANCH   2  12
HETATM   12  C1  UNK     1      19.141   5.679  31.296  1.00  0.00    -0.035 A 
HETATM   13  C5  UNK     1      18.118   6.487  31.793  1.00  0.00     0.012 A 
HETATM   14  C8  UNK     1      18.379   7.384  32.829  1.00  0.00     0.007 A 
HETATM   15  C2  UNK     1      19.663   7.472  33.368  1.00  0.00    -0.062 A 
HETATM   16  C12 UNK     1      19.942   8.431  34.476  1.00  0.00     0.048 C 
HETATM   17  C9  UNK     1      20.685   6.664  32.871  1.00  0.00     0.007 A 
HETATM   18  C6  UNK     1      20.425   5.767  31.835  1.00  0.00     0.012 A 
ENDBRANCH   2  12
TORSDOF 2
ENDMDL
MODEL 4
REMARK VINA RESULT:      -6.8      2.233      5.015
REMARK  2 active torsions:
REMARK  status: ('A' for Active; 'I' for Inactive)
REMARK    1  A    between atoms: C1_3  and  C4_6 
REMARK    2  A    between atoms: C3_5  and  C7_9 
ROOT
HETATM    1  N1  UNK     1      22.498   6.205  32.676  1.00  0.00    -0.191 NA
HETATM    2  C4  UNK     1      19.159   7.085  32.950  1.00  0.00     0.034 C 
HETATM    3  C7  UNK     1      19.931   6.153  32.334  1.00  0.00     0.055 C 
HETATM    4  C16 UNK     1      21.347   6.183  32.524  1.00  0.00     0.100 C 
ENDROOT
BRANCH   3   5
HETATM    5  C3  UNK     1      19.364   5.094  31.475  1.00  0.00    -0.015 A 
HETATM    6  C10 UNK     1      19.483   5.203  30.100  1.00  0.00     0.014 A 
HETATM    7  C13 UNK     1      18.949   4.202  29.289  1.00  0.00     0.024 A 
HETATM    8  C15 UNK     1      18.304   3.107  29.865  1.00  0.00     0.034 A 
HETATM    9  C14 UNK     1      18.193   3.014  31.252  1.00  0.00     0.024 A 
HETATM   10 Cl1  UNK     1      17.645   1.873  28.864  1.00  0.00    -0.084 Cl
HETATM   11  C11 UNK     1      18.727   4.015  32.063  1.00  0.00     0.014 A 
ENDBRANCH   3   5
BRANCH   2  12
HETATM   12  C1  UNK     1      17.713   7.222  32.855  1.00  0.00    -0.035 A 
HETATM   13  C5  UNK     1      17.126   7.609  31.651  1.00  0.00     0.012 A 
HETATM   14  C8  UNK     1      15.740   7.740  31.561  1.00  0.00     0.007 A 
HETATM   15  C2  UNK     1      14.942   7.484  32.677  1.00  0.00    -0.062 A 
HETATM   16  C12 UNK     1      13.460   7.625  32.580  1.00  0.00     0.048 C 
HETATM   17  C9  UNK     1      15.530   7.098  33.881  1.00  0.00     0.007 A 
HETATM   18  C6  UNK     1      16.915   6.966  33.971  1.00  0.00     0.012 A 
ENDBRANCH   2  12
TORSDOF 2
ENDMDL
MODEL 5
REMARK VINA RESULT:      -6.8     22.403     24.345
REMARK  2 active torsions:
REMARK  status: ('A' for Active; 'I' for Inactive)
REMARK    1  A    between atoms: C1_3  and  C4_6 
REMARK    2  A    between atoms: C3_5  and  C7_9 
ROOT
HETATM    1  N1  UNK     1      16.742   5.372   9.422  1.00  0.00    -0.191 NA
HETATM    2  C4  UNK     1      13.518   5.480   8.161  1.00  0.00     0.034 C 
HETATM    3  C7  UNK     1      14.377   6.266   8.858  1.00  0.00     0.055 C 
HETATM    4  C16 UNK     1      15.682   5.772   9.168  1.00  0.00     0.100 C 
ENDROOT
BRANCH   3   5
HETATM    5  C3  UNK     1      14.023   7.628   9.306  1.00  0.00    -0.015 A 
HETATM    6  C10 UNK     1      14.419   8.715   8.545  1.00  0.00     0.014 A 
HETATM    7  C13 UNK     1      14.083  10.001   8.969  1.00  0.00     0.024 A 
HETATM    8  C15 UNK     1      13.357  10.180  10.146  1.00  0.00     0.034 A 
HETATM    9  C14 UNK     1      12.967   9.073  10.900  1.00  0.00     0.024 A 
HETATM   10 Cl1  UNK     1      12.942  11.766  10.668  1.00  0.00    -0.084 Cl
HETATM   11  C11 UNK     1      13.303   7.787  10.477  1.00  0.00     0.014 A 
ENDBRANCH   3   5
BRANCH   2  12
HETATM   12  C1  UNK     1      12.153   5.805   7.777  1.00  0.00    -0.035 A 
HETATM   13  C5  UNK     1      11.101   5.553   8.658  1.00  0.00     0.012 A 
HETATM   14  C8  UNK     1       9.792   5.865   8.289  1.00  0.00     0.007 A 
HETATM   15  C2  UNK     1       9.536   6.429   7.039  1.00  0.00    -0.062 A 
HETATM   16  C12 UNK     1       8.136   6.762   6.645  1.00  0.00     0.048 C 
HETATM   17  C9  UNK     1      10.588   6.681   6.159  1.00  0.00     0.007 A 
HETATM   18  C6  UNK     1      11.896   6.369   6.527  1.00  0.00     0.012 A 
ENDBRANCH   2  12
TORSDOF 2
ENDMDL
MODEL 6
REMARK VINA RESULT:      -6.7     17.654     19.033
REMARK  2 active torsions:
REMARK  status: ('A' for Active; 'I' for Inactive)
REMARK    1  A    between atoms: C1_3  and  C4_6 
REMARK    2  A    between atoms: C3_5  and  C7_9 
ROOT
HETATM    1  N1  UNK     1      29.430  -3.602  40.020  1.00  0.00    -0.191 NA
HETATM    2  C4  UNK     1      28.818  -6.091  37.690  1.00  0.00     0.034 C 
HETATM    3  C7  UNK     1      29.854  -5.347  38.153  1.00  0.00     0.055 C 
HETATM    4  C16 UNK     1      29.619  -4.385  39.183  1.00  0.00     0.100 C 
ENDROOT
BRANCH   3   5
HETATM    5  C3  UNK     1      31.231  -5.497  37.640  1.00  0.00    -0.015 A 
HETATM    6  C10 UNK     1      31.655  -4.690  36.597  1.00  0.00     0.014 A 
HETATM    7  C13 UNK     1      32.956  -4.831  36.113  1.00  0.00     0.024 A 
HETATM    8  C15 UNK     1      33.812  -5.775  36.680  1.00  0.00     0.034 A 
HETATM    9  C14 UNK     1      33.368  -6.579  37.729  1.00  0.00     0.024 A 
HETATM   10 Cl1  UNK     1      35.417  -5.948  36.083  1.00  0.00    -0.084 Cl
HETATM   11  C11 UNK     1      32.067  -6.438  38.213  1.00  0.00     0.014 A 
ENDBRANCH   3   5
BRANCH   2  12
HETATM   12  C1  UNK     1      28.864  -7.095  36.638  1.00  0.00    -0.035 A 
HETATM   13  C5  UNK     1      29.132  -8.427  36.956  1.00  0.00     0.012 A 
HETATM   14  C8  UNK     1      29.176  -9.388  35.946  1.00  0.00     0.007 A 
HETATM   15  C2  UNK     1      28.952  -9.019  34.620  1.00  0.00    -0.062 A 
HETATM   16  C12 UNK     1      29.000 -10.048  33.541  1.00  0.00     0.048 C 
HETATM   17  C9  UNK     1      28.685  -7.687  34.303  1.00  0.00     0.007 A 
HETATM   18  C6  UNK     1      28.641  -6.725  35.311  1.00  0.00     0.012 A 
ENDBRANCH   2  12
TORSDOF 2
ENDMDL
MODEL 7
REMARK VINA RESULT:      -6.6     17.837     19.376
REMARK  2 active torsions:
REMARK  status: ('A' for Active; 'I' for Inactive)
REMARK    1  A    between atoms: C1_3  and  C4_6 
REMARK    2  A    between atoms: C3_5  and  C7_9 
ROOT
HETATM    1  N1  UNK     1      29.310  -3.816  39.875  1.00  0.00    -0.191 NA
HETATM    2  C4  UNK     1      32.017  -4.518  37.832  1.00  0.00     0.034 C 
HETATM    3  C7  UNK     1      30.776  -4.999  38.097  1.00  0.00     0.055 C 
HETATM    4  C16 UNK     1      29.968  -4.345  39.078  1.00  0.00     0.100 C 
ENDROOT
BRANCH   3   5
HETATM    5  C3  UNK     1      30.214  -6.175  37.402  1.00  0.00    -0.015 A 
HETATM    6  C10 UNK     1      30.304  -7.420  38.001  1.00  0.00     0.014 A 
HETATM    7  C13 UNK     1      29.773  -8.531  37.345  1.00  0.00     0.024 A 
HETATM    8  C15 UNK     1      29.160  -8.379  36.102  1.00  0.00     0.034 A 
HETATM    9  C14 UNK     1      29.079  -7.117  35.513  1.00  0.00     0.024 A 
HETATM   10 Cl1  UNK     1      28.504  -9.749  35.293  1.00  0.00    -0.084 Cl
HETATM   11  C11 UNK     1      29.610  -6.006  36.169  1.00  0.00     0.014 A 
ENDBRANCH   3   5
BRANCH   2  12
HETATM   12  C1  UNK     1      32.982  -5.063  36.889  1.00  0.00    -0.035 A 
HETATM   13  C5  UNK     1      33.850  -6.080  37.287  1.00  0.00     0.012 A 
HETATM   14  C8  UNK     1      34.774  -6.602  36.382  1.00  0.00     0.007 A 
HETATM   15  C2  UNK     1      34.830  -6.107  35.079  1.00  0.00    -0.062 A 
HETATM   16  C12 UNK     1      35.819  -6.666  34.112  1.00  0.00     0.048 C 
HETATM   17  C9  UNK     1      33.962  -5.091  34.681  1.00  0.00     0.007 A 
HETATM   18  C6  UNK     1      33.038  -4.568  35.585  1.00  0.00     0.012 A 
ENDBRANCH   2  12
TORSDOF 2
ENDMDL
MODEL 8
REMARK VINA RESULT:      -6.5     22.132     23.836
REMARK  2 active torsions:
REMARK  status: ('A' for Active; 'I' for Inactive)
REMARK    1  A    between atoms: C1_3  and  C4_6 
REMARK    2  A    between atoms: C3_5  and  C7_9 
ROOT
HETATM    1  N1  UNK     1      15.803   3.690   9.899  1.00  0.00    -0.191 NA
HETATM    2  C4  UNK     1      15.036   7.033  10.380  1.00  0.00     0.034 C 
HETATM    3  C7  UNK     1      14.565   5.957   9.700  1.00  0.00     0.055 C 
HETATM    4  C16 UNK     1      15.249   4.706   9.811  1.00  0.00     0.100 C 
ENDROOT
BRANCH   3   5
HETATM    5  C3  UNK     1      13.361   6.019   8.848  1.00  0.00    -0.015 A 
HETATM    6  C10 UNK     1      13.473   6.495   7.553  1.00  0.00     0.014 A 
HETATM    7  C13 UNK     1      12.335   6.554   6.748  1.00  0.00     0.024 A 
HETATM    8  C15 UNK     1      11.103   6.135   7.251  1.00  0.00     0.034 A 
HETATM    9  C14 UNK     1      11.009   5.659   8.558  1.00  0.00     0.024 A 
HETATM   10 Cl1  UNK     1       9.700   6.207   6.258  1.00  0.00    -0.084 Cl
HETATM   11  C11 UNK     1      12.147   5.601   9.363  1.00  0.00     0.014 A 
ENDBRANCH   3   5
BRANCH   2  12
HETATM   12  C1  UNK     1      14.487   8.380  10.370  1.00  0.00    -0.035 A 
HETATM   13  C5  UNK     1      13.451   8.718  11.241  1.00  0.00     0.012 A 
HETATM   14  C8  UNK     1      12.926  10.011  11.231  1.00  0.00     0.007 A 
HETATM   15  C2  UNK     1      13.437  10.965  10.351  1.00  0.00    -0.062 A 
HETATM   16  C12 UNK     1      12.875  12.346  10.341  1.00  0.00     0.048 C 
HETATM   17  C9  UNK     1      14.473  10.626   9.481  1.00  0.00     0.007 A 
HETATM   18  C6  UNK     1      14.998   9.334   9.490  1.00  0.00     0.012 A 
ENDBRANCH   2  12
TORSDOF 2
ENDMDL
MODEL 9
REMARK VINA RESULT:      -6.4     18.069     19.611
REMARK  2 active torsions:
REMARK  status: ('A' for Active; 'I' for Inactive)
REMARK    1  A    between atoms: C1_3  and  C4_6 
REMARK    2  A    between atoms: C3_5  and  C7_9 
ROOT
HETATM    1  N1  UNK     1      29.199  -3.563  39.816  1.00  0.00    -0.191 NA
HETATM    2  C4  UNK     1      31.403  -4.049  37.189  1.00  0.00     0.034 C 
HETATM    3  C7  UNK     1      30.723  -4.778  38.110  1.00  0.00     0.055 C 
HETATM    4  C16 UNK     1      29.882  -4.106  39.051  1.00  0.00     0.100 C 
ENDROOT
BRANCH   3   5
HETATM    5  C3  UNK     1      30.809  -6.250  38.179  1.00  0.00    -0.015 A 
HETATM    6  C10 UNK     1      32.045  -6.848  38.362  1.00  0.00     0.014 A 
HETATM    7  C13 UNK     1      32.126  -8.239  38.428  1.00  0.00     0.024 A 
HETATM    8  C15 UNK     1      30.971  -9.011  38.310  1.00  0.00     0.034 A 
HETATM    9  C14 UNK     1      29.734  -8.392  38.125  1.00  0.00     0.024 A 
HETATM   10 Cl1  UNK     1      31.070 -10.727  38.391  1.00  0.00    -0.084 Cl
HETATM   11  C11 UNK     1      29.653  -7.001  38.059  1.00  0.00     0.014 A 
ENDBRANCH   3   5
BRANCH   2  12
HETATM   12  C1  UNK     1      32.316  -4.555  36.175  1.00  0.00    -0.035 A 
HETATM   13  C5  UNK     1      31.816  -5.214  35.052  1.00  0.00     0.012 A 
HETATM   14  C8  UNK     1      32.692  -5.698  34.080  1.00  0.00     0.007 A 
HETATM   15  C2  UNK     1      34.068  -5.523  34.232  1.00  0.00    -0.062 A 
HETATM   16  C12 UNK     1      35.003  -6.042  33.192  1.00  0.00     0.048 C 
HETATM   17  C9  UNK     1      34.567  -4.864  35.355  1.00  0.00     0.007 A 
HETATM   18  C6  UNK     1      33.692  -4.380  36.326  1.00  0.00     0.012 A 
ENDBRANCH   2  12
TORSDOF 2
ENDMDL
MODEL 10
REMARK VINA RESULT:      -6.4     17.156     18.889
REMARK  2 active torsions:
REMARK  status: ('A' for Active; 'I' for Inactive)
REMARK    1  A    between atoms: C1_3  and  C4_6 
REMARK    2  A    between atoms: C3_5  and  C7_9 
ROOT
HETATM    1  N1  UNK     1      26.501  -5.036  39.025  1.00  0.00    -0.191 NA
HETATM    2  C4  UNK     1      29.873  -4.894  38.245  1.00  0.00     0.034 C 
HETATM    3  C7  UNK     1      28.773  -5.625  37.929  1.00  0.00     0.055 C 
HETATM    4  C16 UNK     1      27.520  -5.299  38.535  1.00  0.00     0.100 C 
ENDROOT
BRANCH   3   5
HETATM    5  C3  UNK     1      28.814  -6.749  36.973  1.00  0.00    -0.015 A 
HETATM    6  C10 UNK     1      28.973  -8.038  37.451  1.00  0.00     0.014 A 
HETATM    7  C13 UNK     1      29.010  -9.100  36.547  1.00  0.00     0.024 A 
HETATM    8  C15 UNK     1      28.888  -8.856  35.179  1.00  0.00     0.034 A 
HETATM    9  C14 UNK     1      28.730  -7.550  34.715  1.00  0.00     0.024 A 
HETATM   10 Cl1  UNK     1      28.934 -10.165  34.064  1.00  0.00    -0.084 Cl
HETATM   11  C11 UNK     1      28.692  -6.488  35.619  1.00  0.00     0.014 A 
ENDBRANCH   3   5
BRANCH   2  12
HETATM   12  C1  UNK     1      31.226  -5.093  37.748  1.00  0.00    -0.035 A 
HETATM   13  C5  UNK     1      32.052  -6.050  38.338  1.00  0.00     0.012 A 
HETATM   14  C8  UNK     1      33.349  -6.240  37.861  1.00  0.00     0.007 A 
HETATM   15  C2  UNK     1      33.820  -5.474  36.794  1.00  0.00    -0.062 A 
HETATM   16  C12 UNK     1      35.207  -5.678  36.285  1.00  0.00     0.048 C 
HETATM   17  C9  UNK     1      32.993  -4.517  36.205  1.00  0.00     0.007 A 
HETATM   18  C6  UNK     1      31.697  -4.326  36.682  1.00  0.00     0.012 A 
ENDBRANCH   2  12
TORSDOF 2
ENDMDL
