MODEL 1
REMARK VINA RESULT:      -9.2      0.000      0.000
REMARK  1 active torsions:
REMARK  status: ('A' for Active; 'I' for Inactive)
REMARK    1  A    between atoms: C8_13  and  N1_4 
ROOT
HETATM    1  O1  UNK     1      19.122  -0.596  18.961  1.00  0.00    -0.291 OA
HETATM    2  O2  UNK     1      19.243   1.261  15.211  1.00  0.00    -0.274 OA
HETATM    3  O3  UNK     1      19.388   3.297  16.231  1.00  0.00    -0.259 OA
HETATM    4  N2  UNK     1      19.365   2.782  22.392  1.00  0.00    -0.192 NA
HETATM    5  C1  UNK     1      19.259   1.401  17.651  1.00  0.00     0.057 A 
HETATM    6  C2  UNK     1      19.166   0.068  17.748  1.00  0.00     0.103 A 
HETATM    7  C3  UNK     1      19.322   2.261  18.880  1.00  0.00     0.102 A 
HETATM    8  C4  UNK     1      19.105  -0.768  16.552  1.00  0.00     0.033 A 
HETATM    9  C5  UNK     1      19.146  -0.142  15.308  1.00  0.00     0.092 A 
HETATM   10  C6  UNK     1      19.268   1.467  20.162  1.00  0.00     0.077 A 
HETATM   11  C7  UNK     1      19.303   2.078  16.334  1.00  0.00     0.297 A 
HETATM   12  C8  UNK     1      19.174   0.119  20.158  1.00  0.00     0.159 A 
HETATM   13  C9  UNK     1      19.008  -2.164  16.585  1.00  0.00     0.017 A 
HETATM   14  C10 UNK     1      19.093  -0.861  14.114  1.00  0.00     0.038 A 
HETATM   15  C11 UNK     1      18.955  -2.899  15.396  1.00  0.00     0.001 A 
HETATM   16  C12 UNK     1      18.997  -2.248  14.163  1.00  0.00     0.003 A 
HETATM   17  C13 UNK     1      19.322   2.192  21.393  1.00  0.00     0.100 C 
ENDROOT
BRANCH  12  18
HETATM   18  N1  UNK     1      19.120  -0.672  21.274  1.00  0.00    -0.379 N 
HETATM   19  H7  UNK     1      18.558  -1.513  21.288  1.00  0.00     0.158 HD
HETATM   20  H8  UNK     1      19.651  -0.401  22.091  1.00  0.00     0.158 HD
ENDBRANCH  12  18
TORSDOF 1
ENDMDL
MODEL 2
REMARK VINA RESULT:      -8.7     12.656     15.249
REMARK  1 active torsions:
REMARK  status: ('A' for Active; 'I' for Inactive)
REMARK    1  A    between atoms: C8_13  and  N1_4 
ROOT
HETATM    1  O1  UNK     1      19.104  -1.076  33.749  1.00  0.00    -0.291 OA
HETATM    2  O2  UNK     1      18.720   1.905  30.835  1.00  0.00    -0.274 OA
HETATM    3  O3  UNK     1      17.823   3.307  32.396  1.00  0.00    -0.259 OA
HETATM    4  N2  UNK     1      17.454   0.618  37.951  1.00  0.00    -0.192 NA
HETATM    5  C1  UNK     1      18.439   1.140  33.139  1.00  0.00     0.057 A 
HETATM    6  C2  UNK     1      18.955  -0.056  32.826  1.00  0.00     0.103 A 
HETATM    7  C3  UNK     1      17.987   1.442  34.538  1.00  0.00     0.102 A 
HETATM    8  C4  UNK     1      19.395  -0.349  31.464  1.00  0.00     0.033 A 
HETATM    9  C5  UNK     1      19.264   0.648  30.501  1.00  0.00     0.092 A 
HETATM   10  C6  UNK     1      18.179   0.284  35.487  1.00  0.00     0.077 A 
HETATM   11  C7  UNK     1      18.294   2.208  32.123  1.00  0.00     0.297 A 
HETATM   12  C8  UNK     1      18.710  -0.889  35.075  1.00  0.00     0.159 A 
HETATM   13  C9  UNK     1      19.943  -1.577  31.073  1.00  0.00     0.017 A 
HETATM   14  C10 UNK     1      19.658   0.456  29.177  1.00  0.00     0.038 A 
HETATM   15  C11 UNK     1      20.343  -1.784  29.749  1.00  0.00     0.001 A 
HETATM   16  C12 UNK     1      20.200  -0.769  28.803  1.00  0.00     0.003 A 
HETATM   17  C13 UNK     1      17.779   0.468  36.847  1.00  0.00     0.100 C 
ENDROOT
BRANCH  12  18
HETATM   18  N1  UNK     1      18.917  -1.984  35.870  1.00  0.00    -0.379 N 
HETATM   19  H7  UNK     1      18.314  -2.794  35.806  1.00  0.00     0.158 HD
HETATM   20  H8  UNK     1      19.685  -1.972  36.528  1.00  0.00     0.158 HD
ENDBRANCH  12  18
TORSDOF 1
ENDMDL
MODEL 3
REMARK VINA RESULT:      -8.4     12.161     14.272
REMARK  1 active torsions:
REMARK  status: ('A' for Active; 'I' for Inactive)
REMARK    1  A    between atoms: C8_13  and  N1_4 
ROOT
HETATM    1  O1  UNK     1      19.127   3.187  30.107  1.00  0.00    -0.291 OA
HETATM    2  O2  UNK     1      18.743   0.068  32.872  1.00  0.00    -0.274 OA
HETATM    3  O3  UNK     1      17.870   1.531  34.391  1.00  0.00    -0.259 OA
HETATM    4  N2  UNK     1      17.525   7.268  32.115  1.00  0.00    -0.192 NA
HETATM    5  C1  UNK     1      18.474   2.424  32.278  1.00  0.00     0.057 A 
HETATM    6  C2  UNK     1      18.978   2.194  31.058  1.00  0.00     0.103 A 
HETATM    7  C3  UNK     1      18.035   3.800  32.684  1.00  0.00     0.102 A 
HETATM    8  C4  UNK     1      19.405   0.854  30.663  1.00  0.00     0.033 A 
HETATM    9  C5  UNK     1      19.274  -0.178  31.590  1.00  0.00     0.092 A 
HETATM   10  C6  UNK     1      18.228   4.829  31.597  1.00  0.00     0.077 A 
HETATM   11  C7  UNK     1      18.330   1.334  33.271  1.00  0.00     0.297 A 
HETATM   12  C8  UNK     1      18.747   4.500  30.393  1.00  0.00     0.159 A 
HETATM   13  C9  UNK     1      19.938   0.548  29.406  1.00  0.00     0.017 A 
HETATM   14  C10 UNK     1      19.656  -1.488  31.299  1.00  0.00     0.038 A 
HETATM   15  C11 UNK     1      20.325  -0.760  29.099  1.00  0.00     0.001 A 
HETATM   16  C12 UNK     1      20.184  -1.776  30.045  1.00  0.00     0.003 A 
HETATM   17  C13 UNK     1      17.840   6.175  31.882  1.00  0.00     0.100 C 
ENDROOT
BRANCH  12  18
HETATM   18  N1  UNK     1      18.954   5.370  29.358  1.00  0.00    -0.379 N 
HETATM   19  H7  UNK     1      19.051   6.363  29.526  1.00  0.00     0.158 HD
HETATM   20  H8  UNK     1      19.008   5.006  28.416  1.00  0.00     0.158 HD
ENDBRANCH  12  18
TORSDOF 1
ENDMDL
MODEL 4
REMARK VINA RESULT:      -8.0     13.178     16.970
REMARK  1 active torsions:
REMARK  status: ('A' for Active; 'I' for Inactive)
REMARK    1  A    between atoms: C8_13  and  N1_4 
ROOT
HETATM    1  O1  UNK     1      18.584   0.596  32.684  1.00  0.00    -0.291 OA
HETATM    2  O2  UNK     1      19.373  -2.278  35.624  1.00  0.00    -0.274 OA
HETATM    3  O3  UNK     1      20.610  -3.468  34.119  1.00  0.00    -0.259 OA
HETATM    4  N2  UNK     1      20.762  -0.714  28.587  1.00  0.00    -0.192 NA
HETATM    5  C1  UNK     1      19.630  -1.454  33.337  1.00  0.00     0.057 A 
HETATM    6  C2  UNK     1      18.875  -0.383  33.617  1.00  0.00     0.103 A 
HETATM    7  C3  UNK     1      20.210  -1.651  31.967  1.00  0.00     0.102 A 
HETATM    8  C4  UNK     1      18.311  -0.192  34.951  1.00  0.00     0.033 A 
HETATM    9  C5  UNK     1      18.579  -1.153  35.922  1.00  0.00     0.092 A 
HETATM   10  C6  UNK     1      19.849  -0.546  31.005  1.00  0.00     0.077 A 
HETATM   11  C7  UNK     1      19.921  -2.483  34.363  1.00  0.00     0.297 A 
HETATM   12  C8  UNK     1      19.078   0.498  31.382  1.00  0.00     0.159 A 
HETATM   13  C9  UNK     1      17.517   0.904  35.307  1.00  0.00     0.017 A 
HETATM   14  C10 UNK     1      18.081  -1.052  37.222  1.00  0.00     0.038 A 
HETATM   15  C11 UNK     1      17.012   1.020  36.606  1.00  0.00     0.001 A 
HETATM   16  C12 UNK     1      17.294   0.043  37.561  1.00  0.00     0.003 A 
HETATM   17  C13 UNK     1      20.352  -0.638  29.670  1.00  0.00     0.100 C 
ENDROOT
BRANCH  12  18
HETATM   18  N1  UNK     1      18.706   1.537  30.573  1.00  0.00    -0.379 N 
HETATM   19  H7  UNK     1      19.380   2.228  30.271  1.00  0.00     0.158 HD
HETATM   20  H8  UNK     1      17.740   1.607  30.281  1.00  0.00     0.158 HD
ENDBRANCH  12  18
TORSDOF 1
ENDMDL
MODEL 5
REMARK VINA RESULT:      -7.7     12.687     15.565
REMARK  1 active torsions:
REMARK  status: ('A' for Active; 'I' for Inactive)
REMARK    1  A    between atoms: C8_13  and  N1_4 
ROOT
HETATM    1  O1  UNK     1      18.444   0.700  33.145  1.00  0.00    -0.291 OA
HETATM    2  O2  UNK     1      20.653  -2.583  31.778  1.00  0.00    -0.274 OA
HETATM    3  O3  UNK     1      20.659  -3.450  33.889  1.00  0.00    -0.259 OA
HETATM    4  N2  UNK     1      17.637   0.187  37.871  1.00  0.00    -0.192 NA
HETATM    5  C1  UNK     1      19.538  -1.381  33.591  1.00  0.00     0.057 A 
HETATM    6  C2  UNK     1      19.174  -0.406  32.746  1.00  0.00     0.103 A 
HETATM    7  C3  UNK     1      19.164  -1.322  35.043  1.00  0.00     0.102 A 
HETATM    8  C4  UNK     1      19.537  -0.464  31.333  1.00  0.00     0.033 A 
HETATM    9  C5  UNK     1      20.272  -1.559  30.887  1.00  0.00     0.092 A 
HETATM   10  C6  UNK     1      18.372  -0.089  35.403  1.00  0.00     0.077 A 
HETATM   11  C7  UNK     1      20.319  -2.551  33.127  1.00  0.00     0.297 A 
HETATM   12  C8  UNK     1      18.052   0.843  34.477  1.00  0.00     0.159 A 
HETATM   13  C9  UNK     1      19.187   0.520  30.401  1.00  0.00     0.017 A 
HETATM   14  C10 UNK     1      20.662  -1.697  29.555  1.00  0.00     0.038 A 
HETATM   15  C11 UNK     1      19.571   0.396  29.062  1.00  0.00     0.001 A 
HETATM   16  C12 UNK     1      20.307  -0.711  28.640  1.00  0.00     0.003 A 
HETATM   17  C13 UNK     1      17.966   0.064  36.764  1.00  0.00     0.100 C 
ENDROOT
BRANCH  12  18
HETATM   18  N1  UNK     1      17.340   1.985  34.721  1.00  0.00    -0.379 N 
HETATM   19  H7  UNK     1      16.333   2.002  34.622  1.00  0.00     0.158 HD
HETATM   20  H8  UNK     1      17.837   2.820  35.003  1.00  0.00     0.158 HD
ENDBRANCH  12  18
TORSDOF 1
ENDMDL
MODEL 6
REMARK VINA RESULT:      -7.7     12.183     13.857
REMARK  1 active torsions:
REMARK  status: ('A' for Active; 'I' for Inactive)
REMARK    1  A    between atoms: C8_13  and  N1_4 
ROOT
HETATM    1  O1  UNK     1      18.868   1.700  32.926  1.00  0.00    -0.291 OA
HETATM    2  O2  UNK     1      19.112   1.395  28.758  1.00  0.00    -0.274 OA
HETATM    3  O3  UNK     1      18.391   3.552  28.564  1.00  0.00    -0.259 OA
HETATM    4  N2  UNK     1      17.338   6.122  34.087  1.00  0.00    -0.192 NA
HETATM    5  C1  UNK     1      18.606   2.695  30.766  1.00  0.00     0.057 A 
HETATM    6  C2  UNK     1      18.931   1.654  31.545  1.00  0.00     0.103 A 
HETATM    7  C3  UNK     1      18.149   3.992  31.364  1.00  0.00     0.102 A 
HETATM    8  C4  UNK     1      19.376   0.391  30.961  1.00  0.00     0.033 A 
HETATM    9  C5  UNK     1      19.454   0.298  29.574  1.00  0.00     0.092 A 
HETATM   10  C6  UNK     1      18.105   3.967  32.873  1.00  0.00     0.077 A 
HETATM   11  C7  UNK     1      18.686   2.608  29.289  1.00  0.00     0.297 A 
HETATM   12  C8  UNK     1      18.453   2.865  33.573  1.00  0.00     0.159 A 
HETATM   13  C9  UNK     1      19.730  -0.732  31.719  1.00  0.00     0.017 A 
HETATM   14  C10 UNK     1      19.869  -0.868  28.931  1.00  0.00     0.038 A 
HETATM   15  C11 UNK     1      20.148  -1.908  31.089  1.00  0.00     0.001 A 
HETATM   16  C12 UNK     1      20.218  -1.975  29.697  1.00  0.00     0.003 A 
HETATM   17  C13 UNK     1      17.682   5.156  33.544  1.00  0.00     0.100 C 
ENDROOT
BRANCH  12  18
HETATM   18  N1  UNK     1      18.440   2.761  34.938  1.00  0.00    -0.379 N 
HETATM   19  H7  UNK     1      18.421   1.856  35.390  1.00  0.00     0.158 HD
HETATM   20  H8  UNK     1      18.448   3.607  35.493  1.00  0.00     0.158 HD
ENDBRANCH  12  18
TORSDOF 1
ENDMDL
MODEL 7
REMARK VINA RESULT:      -7.7     13.216     16.761
REMARK  1 active torsions:
REMARK  status: ('A' for Active; 'I' for Inactive)
REMARK    1  A    between atoms: C8_13  and  N1_4 
ROOT
HETATM    1  O1  UNK     1      19.771  -1.783  33.183  1.00  0.00    -0.291 OA
HETATM    2  O2  UNK     1      17.649   1.349  34.975  1.00  0.00    -0.274 OA
HETATM    3  O3  UNK     1      17.680   2.492  32.999  1.00  0.00    -0.259 OA
HETATM    4  N2  UNK     1      20.622  -0.663  28.571  1.00  0.00    -0.192 NA
HETATM    5  C1  UNK     1      18.740   0.370  33.019  1.00  0.00     0.057 A 
HETATM    6  C2  UNK     1      19.071  -0.720  33.725  1.00  0.00     0.103 A 
HETATM    7  C3  UNK     1      19.119   0.495  31.572  1.00  0.00     0.102 A 
HETATM    8  C4  UNK     1      18.701  -0.842  35.133  1.00  0.00     0.033 A 
HETATM    9  C5  UNK     1      17.996   0.205  35.721  1.00  0.00     0.092 A 
HETATM   10  C6  UNK     1      19.881  -0.699  31.052  1.00  0.00     0.077 A 
HETATM   11  C7  UNK     1      17.989   1.489  33.634  1.00  0.00     0.297 A 
HETATM   12  C8  UNK     1      20.169  -1.756  31.845  1.00  0.00     0.159 A 
HETATM   13  C9  UNK     1      19.016  -1.953  35.924  1.00  0.00     0.017 A 
HETATM   14  C10 UNK     1      17.601   0.174  37.059  1.00  0.00     0.038 A 
HETATM   15  C11 UNK     1      18.627  -1.999  37.267  1.00  0.00     0.001 A 
HETATM   16  C12 UNK     1      17.921  -0.937  37.833  1.00  0.00     0.003 A 
HETATM   17  C13 UNK     1      20.290  -0.680  29.683  1.00  0.00     0.100 C 
ENDROOT
BRANCH  12  18
HETATM   18  N1  UNK     1      20.853  -2.874  31.452  1.00  0.00    -0.379 N 
HETATM   19  H7  UNK     1      20.530  -3.798  31.708  1.00  0.00     0.158 HD
HETATM   20  H8  UNK     1      21.693  -2.763  30.899  1.00  0.00     0.158 HD
ENDBRANCH  12  18
TORSDOF 1
ENDMDL
MODEL 8
REMARK VINA RESULT:      -7.5     13.314     16.883
REMARK  1 active torsions:
REMARK  status: ('A' for Active; 'I' for Inactive)
REMARK    1  A    between atoms: C8_13  and  N1_4 
ROOT
HETATM    1  O1  UNK     1      17.918   2.640  33.585  1.00  0.00    -0.291 OA
HETATM    2  O2  UNK     1      18.830  -1.349  34.471  1.00  0.00    -0.274 OA
HETATM    3  O3  UNK     1      19.368  -1.705  32.282  1.00  0.00    -0.259 OA
HETATM    4  N2  UNK     1      18.653   3.408  28.883  1.00  0.00    -0.192 NA
HETATM    5  C1  UNK     1      18.654   0.482  32.861  1.00  0.00     0.057 A 
HETATM    6  C2  UNK     1      18.233   1.314  33.823  1.00  0.00     0.103 A 
HETATM    7  C3  UNK     1      18.810   0.956  31.446  1.00  0.00     0.102 A 
HETATM    8  C4  UNK     1      18.082   0.852  35.200  1.00  0.00     0.033 A 
HETATM    9  C5  UNK     1      18.388  -0.477  35.486  1.00  0.00     0.092 A 
HETATM   10  C6  UNK     1      18.447   2.409  31.263  1.00  0.00     0.077 A 
HETATM   11  C7  UNK     1      18.982  -0.933  33.153  1.00  0.00     0.297 A 
HETATM   12  C8  UNK     1      18.031   3.171  32.300  1.00  0.00     0.159 A 
HETATM   13  C9  UNK     1      17.649   1.670  36.250  1.00  0.00     0.017 A 
HETATM   14  C10 UNK     1      18.273  -1.004  36.773  1.00  0.00     0.038 A 
HETATM   15  C11 UNK     1      17.529   1.156  37.545  1.00  0.00     0.001 A 
HETATM   16  C12 UNK     1      17.841  -0.179  37.805  1.00  0.00     0.003 A 
HETATM   17  C13 UNK     1      18.561   2.961  29.950  1.00  0.00     0.100 C 
ENDROOT
BRANCH  12  18
HETATM   18  N1  UNK     1      17.684   4.492  32.218  1.00  0.00    -0.379 N 
HETATM   19  H7  UNK     1      18.392   5.213  32.169  1.00  0.00     0.158 HD
HETATM   20  H8  UNK     1      16.703   4.740  32.209  1.00  0.00     0.158 HD
ENDBRANCH  12  18
TORSDOF 1
ENDMDL
MODEL 9
REMARK VINA RESULT:      -7.3     14.614     17.117
REMARK  1 active torsions:
REMARK  status: ('A' for Active; 'I' for Inactive)
REMARK    1  A    between atoms: C8_13  and  N1_4 
ROOT
HETATM    1  O1  UNK     1      18.066   6.335  31.180  1.00  0.00    -0.291 OA
HETATM    2  O2  UNK     1      17.024   7.874  34.932  1.00  0.00    -0.274 OA
HETATM    3  O3  UNK     1      19.218   7.811  35.559  1.00  0.00    -0.259 OA
HETATM    4  N2  UNK     1      22.834   5.639  31.041  1.00  0.00    -0.192 NA
HETATM    5  C1  UNK     1      18.716   7.062  33.365  1.00  0.00     0.057 A 
HETATM    6  C2  UNK     1      17.777   6.842  32.435  1.00  0.00     0.103 A 
HETATM    7  C3  UNK     1      20.160   6.764  33.088  1.00  0.00     0.102 A 
HETATM    8  C4  UNK     1      16.371   7.133  32.705  1.00  0.00     0.033 A 
HETATM    9  C5  UNK     1      16.034   7.644  33.956  1.00  0.00     0.092 A 
HETATM   10  C6  UNK     1      20.397   6.214  31.703  1.00  0.00     0.077 A 
HETATM   11  C7  UNK     1      18.368   7.606  34.699  1.00  0.00     0.297 A 
HETATM   12  C8  UNK     1      19.381   6.026  30.831  1.00  0.00     0.159 A 
HETATM   13  C9  UNK     1      15.344   6.926  31.777  1.00  0.00     0.017 A 
HETATM   14  C10 UNK     1      14.717   7.950  34.301  1.00  0.00     0.038 A 
HETATM   15  C11 UNK     1      14.019   7.229  32.108  1.00  0.00     0.001 A 
HETATM   16  C12 UNK     1      13.707   7.740  33.368  1.00  0.00     0.003 A 
HETATM   17  C13 UNK     1      21.742   5.896  31.337  1.00  0.00     0.100 C 
ENDROOT
BRANCH  12  18
HETATM   18  N1  UNK     1      19.512   5.534  29.561  1.00  0.00    -0.379 N 
HETATM   19  H7  UNK     1      20.369   5.089  29.262  1.00  0.00     0.158 HD
HETATM   20  H8  UNK     1      18.734   5.622  28.920  1.00  0.00     0.158 HD
ENDBRANCH  12  18
TORSDOF 1
ENDMDL
MODEL 10
REMARK VINA RESULT:      -7.3     16.544     18.344
REMARK  1 active torsions:
REMARK  status: ('A' for Active; 'I' for Inactive)
REMARK    1  A    between atoms: C8_13  and  N1_4 
ROOT
HETATM    1  O1  UNK     1      16.654   9.890  34.226  1.00  0.00    -0.291 OA
HETATM    2  O2  UNK     1      16.247   6.338  32.049  1.00  0.00    -0.274 OA
HETATM    3  O3  UNK     1      14.020   6.761  31.786  1.00  0.00    -0.259 OA
HETATM    4  N2  UNK     1      12.355  12.054  34.512  1.00  0.00    -0.192 NA
HETATM    5  C1  UNK     1      15.271   8.361  33.012  1.00  0.00     0.057 A 
HETATM    6  C2  UNK     1      16.464   8.727  33.501  1.00  0.00     0.103 A 
HETATM    7  C3  UNK     1      14.054   9.211  33.231  1.00  0.00     0.102 A 
HETATM    8  C4  UNK     1      17.648   7.900  33.286  1.00  0.00     0.033 A 
HETATM    9  C5  UNK     1      17.503   6.719  32.561  1.00  0.00     0.092 A 
HETATM   10  C6  UNK     1      14.338  10.459  34.031  1.00  0.00     0.077 A 
HETATM   11  C7  UNK     1      15.106   7.108  32.239  1.00  0.00     0.297 A 
HETATM   12  C8  UNK     1      15.581  10.744  34.483  1.00  0.00     0.159 A 
HETATM   13  C9  UNK     1      18.921   8.226  33.769  1.00  0.00     0.017 A 
HETATM   14  C10 UNK     1      18.579   5.868  32.308  1.00  0.00     0.038 A 
HETATM   15  C11 UNK     1      20.009   7.383  33.523  1.00  0.00     0.001 A 
HETATM   16  C12 UNK     1      19.838   6.206  32.794  1.00  0.00     0.003 A 
HETATM   17  C13 UNK     1      13.245  11.340  34.296  1.00  0.00     0.100 C 
ENDROOT
BRANCH  12  18
HETATM   18  N1  UNK     1      15.920  11.851  35.212  1.00  0.00    -0.379 N 
HETATM   19  H7  UNK     1      15.749  12.781  34.855  1.00  0.00     0.158 HD
HETATM   20  H8  UNK     1      16.350  11.725  36.119  1.00  0.00     0.158 HD
ENDBRANCH  12  18
TORSDOF 1
ENDMDL
