MODEL 1
REMARK VINA RESULT:      -8.1      0.000      0.000
REMARK  2 active torsions:
REMARK  status: ('A' for Active; 'I' for Inactive)
REMARK    1  A    between atoms: C8_15  and  N1_6 
REMARK    2  A    between atoms: C1_8  and  C5_12 
ROOT
HETATM    1  O1  UNK     1      32.049  -4.748  36.021  1.00  0.00    -0.291 OA
HETATM    2  O2  UNK     1      33.184  -8.769  36.197  1.00  0.00    -0.274 OA
HETATM    3  O3  UNK     1      31.852  -9.070  38.023  1.00  0.00    -0.259 OA
HETATM    4  N2  UNK     1      29.369  -3.678  39.878  1.00  0.00    -0.191 NA
HETATM    5  C1  UNK     1      30.818  -6.383  38.042  1.00  0.00     0.115 C 
HETATM    6  C2  UNK     1      31.848  -6.900  37.050  1.00  0.00     0.067 A 
HETATM    7  C3  UNK     1      32.376  -6.088  36.121  1.00  0.00     0.104 A 
HETATM    8  C4  UNK     1      30.707  -4.857  37.997  1.00  0.00     0.086 C 
HETATM    9  C6  UNK     1      33.339  -6.583  35.142  1.00  0.00     0.033 A 
HETATM   10  C7  UNK     1      32.275  -8.320  37.149  1.00  0.00     0.298 A 
HETATM   11  C8  UNK     1      31.295  -4.132  37.018  1.00  0.00     0.159 C 
HETATM   12  C9  UNK     1      33.715  -7.922  35.206  1.00  0.00     0.092 A 
HETATM   13  C11 UNK     1      33.905  -5.787  34.138  1.00  0.00     0.017 A 
HETATM   14  C12 UNK     1      34.624  -8.482  34.310  1.00  0.00     0.038 A 
HETATM   15  C14 UNK     1      34.819  -6.334  33.232  1.00  0.00     0.001 A 
HETATM   16  C16 UNK     1      29.968  -4.206  39.036  1.00  0.00     0.100 C 
HETATM   17  C17 UNK     1      35.178  -7.678  33.318  1.00  0.00     0.003 A 
ENDROOT
BRANCH   5  18
HETATM   18  C5  UNK     1      29.488  -7.039  37.869  1.00  0.00    -0.002 A 
HETATM   19  C10 UNK     1      28.727  -7.666  38.819  1.00  0.00     0.035 A 
HETATM   20  C13 UNK     1      27.514  -8.171  38.268  1.00  0.00     0.018 A 
HETATM   21 Br1  UNK     1      26.237  -9.089  39.303  1.00  0.00    -0.051 Br
HETATM   22  C15 UNK     1      27.406  -7.903  36.921  1.00  0.00     0.069 A 
HETATM   23  S1  UNK     1      28.764  -7.049  36.325  1.00  0.00    -0.104 SA
ENDBRANCH   5  18
BRANCH  11  24
HETATM   24  N1  UNK     1      31.226  -2.772  36.895  1.00  0.00    -0.379 N 
HETATM   25  H8  UNK     1      31.877  -2.304  36.277  1.00  0.00     0.158 HD
HETATM   26  H9  UNK     1      30.538  -2.236  37.409  1.00  0.00     0.158 HD
ENDBRANCH  11  24
TORSDOF 2
ENDMDL
MODEL 2
REMARK VINA RESULT:      -7.5      4.544      8.326
REMARK  2 active torsions:
REMARK  status: ('A' for Active; 'I' for Inactive)
REMARK    1  A    between atoms: C8_15  and  N1_6 
REMARK    2  A    between atoms: C1_8  and  C5_12 
ROOT
HETATM    1  O1  UNK     1      25.579  -9.307  38.611  1.00  0.00    -0.291 OA
HETATM    2  O2  UNK     1      24.870  -5.196  38.909  1.00  0.00    -0.274 OA
HETATM    3  O3  UNK     1      27.112  -4.797  38.799  1.00  0.00    -0.259 OA
HETATM    4  N2  UNK     1      30.322 -10.123  38.792  1.00  0.00    -0.191 NA
HETATM    5  C1  UNK     1      27.856  -7.556  38.453  1.00  0.00     0.115 C 
HETATM    6  C2  UNK     1      26.427  -7.068  38.639  1.00  0.00     0.067 A 
HETATM    7  C3  UNK     1      25.406  -7.937  38.691  1.00  0.00     0.104 A 
HETATM    8  C4  UNK     1      27.958  -9.075  38.611  1.00  0.00     0.086 C 
HETATM    9  C6  UNK     1      24.028  -7.477  38.834  1.00  0.00     0.033 A 
HETATM   10  C7  UNK     1      26.192  -5.608  38.786  1.00  0.00     0.298 A 
HETATM   11  C8  UNK     1      26.857  -9.858  38.669  1.00  0.00     0.159 C 
HETATM   12  C9  UNK     1      23.798  -6.108  38.935  1.00  0.00     0.092 A 
HETATM   13  C11 UNK     1      22.922  -8.336  38.872  1.00  0.00     0.017 A 
HETATM   14  C12 UNK     1      22.515  -5.578  39.069  1.00  0.00     0.038 A 
HETATM   15  C14 UNK     1      21.629  -7.820  39.008  1.00  0.00     0.001 A 
HETATM   16  C16 UNK     1      29.264  -9.654  38.711  1.00  0.00     0.100 C 
HETATM   17  C17 UNK     1      21.426  -6.444  39.105  1.00  0.00     0.003 A 
ENDROOT
BRANCH   5  18
HETATM   18  C5  UNK     1      28.447  -7.094  37.163  1.00  0.00    -0.002 A 
HETATM   19  C10 UNK     1      27.913  -7.194  35.907  1.00  0.00     0.035 A 
HETATM   20  C13 UNK     1      28.779  -6.635  34.923  1.00  0.00     0.018 A 
HETATM   21 Br1  UNK     1      28.348  -6.610  33.091  1.00  0.00    -0.051 Br
HETATM   22  C15 UNK     1      29.936  -6.134  35.477  1.00  0.00     0.069 A 
HETATM   23  S1  UNK     1      29.975  -6.337  37.176  1.00  0.00    -0.104 SA
ENDBRANCH   5  18
BRANCH  11  24
HETATM   24  N1  UNK     1      26.864 -11.221  38.787  1.00  0.00    -0.379 N 
HETATM   25  H8  UNK     1      27.751 -11.706  38.781  1.00  0.00     0.158 HD
HETATM   26  H9  UNK     1      26.000 -11.740  38.882  1.00  0.00     0.158 HD
ENDBRANCH  11  24
TORSDOF 2
ENDMDL
MODEL 3
REMARK VINA RESULT:      -7.4      3.019      5.952
REMARK  2 active torsions:
REMARK  status: ('A' for Active; 'I' for Inactive)
REMARK    1  A    between atoms: C8_15  and  N1_6 
REMARK    2  A    between atoms: C1_8  and  C5_12 
ROOT
HETATM    1  O1  UNK     1      29.300  -5.932  38.840  1.00  0.00    -0.291 OA
HETATM    2  O2  UNK     1      28.816  -9.079  36.128  1.00  0.00    -0.274 OA
HETATM    3  O3  UNK     1      30.118  -7.979  34.614  1.00  0.00    -0.259 OA
HETATM    4  N2  UNK     1      31.644  -2.317  36.685  1.00  0.00    -0.191 NA
HETATM    5  C1  UNK     1      30.708  -5.752  36.339  1.00  0.00     0.115 C 
HETATM    6  C2  UNK     1      29.807  -6.916  36.718  1.00  0.00     0.067 A 
HETATM    7  C3  UNK     1      29.188  -6.947  37.908  1.00  0.00     0.104 A 
HETATM    8  C4  UNK     1      30.575  -4.590  37.327  1.00  0.00     0.086 C 
HETATM    9  C6  UNK     1      28.350  -8.077  38.295  1.00  0.00     0.033 A 
HETATM   10  C7  UNK     1      29.610  -8.009  35.730  1.00  0.00     0.298 A 
HETATM   11  C8  UNK     1      29.912  -4.728  38.497  1.00  0.00     0.159 C 
HETATM   12  C9  UNK     1      28.191  -9.122  37.389  1.00  0.00     0.092 A 
HETATM   13  C11 UNK     1      27.698  -8.173  39.532  1.00  0.00     0.017 A 
HETATM   14  C12 UNK     1      27.413 -10.242  37.675  1.00  0.00     0.038 A 
HETATM   15  C14 UNK     1      26.913  -9.291  39.834  1.00  0.00     0.001 A 
HETATM   16  C16 UNK     1      31.166  -3.335  36.972  1.00  0.00     0.100 C 
HETATM   17  C17 UNK     1      26.771 -10.323  38.908  1.00  0.00     0.003 A 
ENDROOT
BRANCH   5  18
HETATM   18  C5  UNK     1      32.131  -6.170  36.166  1.00  0.00    -0.002 A 
HETATM   19  C10 UNK     1      32.922  -6.030  35.058  1.00  0.00     0.035 A 
HETATM   20  C13 UNK     1      34.229  -6.554  35.278  1.00  0.00     0.018 A 
HETATM   21 Br1  UNK     1      35.569  -6.522  33.956  1.00  0.00    -0.051 Br
HETATM   22  C15 UNK     1      34.373  -7.070  36.547  1.00  0.00     0.069 A 
HETATM   23  S1  UNK     1      32.937  -6.922  37.467  1.00  0.00    -0.104 SA
ENDBRANCH   5  18
BRANCH  11  24
HETATM   24  N1  UNK     1      29.767  -3.748  39.441  1.00  0.00    -0.379 N 
HETATM   25  H8  UNK     1      29.370  -3.992  40.339  1.00  0.00     0.158 HD
HETATM   26  H9  UNK     1      30.051  -2.796  39.251  1.00  0.00     0.158 HD
ENDBRANCH  11  24
TORSDOF 2
ENDMDL
MODEL 4
REMARK VINA RESULT:      -7.3      3.351      6.231
REMARK  2 active torsions:
REMARK  status: ('A' for Active; 'I' for Inactive)
REMARK    1  A    between atoms: C8_15  and  N1_6 
REMARK    2  A    between atoms: C1_8  and  C5_12 
ROOT
HETATM    1  O1  UNK     1      30.784  -6.578  38.057  1.00  0.00    -0.291 OA
HETATM    2  O2  UNK     1      27.368  -7.413  35.792  1.00  0.00    -0.274 OA
HETATM    3  O3  UNK     1      28.320  -6.409  33.979  1.00  0.00    -0.259 OA
HETATM    4  N2  UNK     1      33.771  -3.819  35.476  1.00  0.00    -0.191 NA
HETATM    5  C1  UNK     1      30.822  -5.831  35.279  1.00  0.00     0.115 C 
HETATM    6  C2  UNK     1      29.638  -6.503  35.956  1.00  0.00     0.067 A 
HETATM    7  C3  UNK     1      29.688  -6.839  37.255  1.00  0.00     0.104 A 
HETATM    8  C4  UNK     1      31.873  -5.381  36.297  1.00  0.00     0.086 C 
HETATM    9  C6  UNK     1      28.569  -7.515  37.904  1.00  0.00     0.033 A 
HETATM   10  C7  UNK     1      28.414  -6.757  35.152  1.00  0.00     0.298 A 
HETATM   11  C8  UNK     1      31.818  -5.769  37.591  1.00  0.00     0.159 C 
HETATM   12  C9  UNK     1      27.434  -7.789  37.147  1.00  0.00     0.092 A 
HETATM   13  C11 UNK     1      28.575  -7.908  39.249  1.00  0.00     0.017 A 
HETATM   14  C12 UNK     1      26.322  -8.436  37.683  1.00  0.00     0.038 A 
HETATM   15  C14 UNK     1      27.466  -8.557  39.802  1.00  0.00     0.001 A 
HETATM   16  C16 UNK     1      32.921  -4.518  35.844  1.00  0.00     0.100 C 
HETATM   17  C17 UNK     1      26.342  -8.821  39.020  1.00  0.00     0.003 A 
ENDROOT
BRANCH   5  18
HETATM   18  C5  UNK     1      31.419  -6.684  34.209  1.00  0.00    -0.002 A 
HETATM   19  C10 UNK     1      31.543  -6.399  32.876  1.00  0.00     0.035 A 
HETATM   20  C13 UNK     1      32.169  -7.466  32.168  1.00  0.00     0.018 A 
HETATM   21 Br1  UNK     1      32.491  -7.401  30.315  1.00  0.00    -0.051 Br
HETATM   22  C15 UNK     1      32.495  -8.516  32.998  1.00  0.00     0.069 A 
HETATM   23  S1  UNK     1      32.046  -8.215  34.622  1.00  0.00    -0.104 SA
ENDBRANCH   5  18
BRANCH  11  24
HETATM   24  N1  UNK     1      32.727  -5.429  38.555  1.00  0.00    -0.379 N 
HETATM   25  H8  UNK     1      33.632  -5.077  38.270  1.00  0.00     0.158 HD
HETATM   26  H9  UNK     1      32.504  -5.523  39.538  1.00  0.00     0.158 HD
ENDBRANCH  11  24
TORSDOF 2
ENDMDL
MODEL 5
REMARK VINA RESULT:      -7.3      4.006      4.736
REMARK  2 active torsions:
REMARK  status: ('A' for Active; 'I' for Inactive)
REMARK    1  A    between atoms: C8_15  and  N1_6 
REMARK    2  A    between atoms: C1_8  and  C5_12 
ROOT
HETATM    1  O1  UNK     1      30.295  -5.833  33.745  1.00  0.00    -0.291 OA
HETATM    2  O2  UNK     1      28.931  -9.602  32.549  1.00  0.00    -0.274 OA
HETATM    3  O3  UNK     1      30.187 -10.579  34.183  1.00  0.00    -0.259 OA
HETATM    4  N2  UNK     1      33.700  -6.364  37.110  1.00  0.00    -0.191 NA
HETATM    5  C1  UNK     1      31.171  -8.105  35.277  1.00  0.00     0.115 C 
HETATM    6  C2  UNK     1      30.251  -8.205  34.069  1.00  0.00     0.067 A 
HETATM    7  C3  UNK     1      29.868  -7.104  33.405  1.00  0.00     0.104 A 
HETATM    8  C4  UNK     1      31.764  -6.701  35.420  1.00  0.00     0.086 C 
HETATM    9  C6  UNK     1      28.958  -7.186  32.266  1.00  0.00     0.033 A 
HETATM   10  C7  UNK     1      29.807  -9.553  33.629  1.00  0.00     0.298 A 
HETATM   11  C8  UNK     1      31.309  -5.661  34.684  1.00  0.00     0.159 C 
HETATM   12  C9  UNK     1      28.509  -8.443  31.871  1.00  0.00     0.092 A 
HETATM   13  C11 UNK     1      28.508  -6.070  31.550  1.00  0.00     0.017 A 
HETATM   14  C12 UNK     1      27.635  -8.616  30.799  1.00  0.00     0.038 A 
HETATM   15  C14 UNK     1      27.632  -6.227  30.471  1.00  0.00     0.001 A 
HETATM   16  C16 UNK     1      32.833  -6.515  36.353  1.00  0.00     0.100 C 
HETATM   17  C17 UNK     1      27.195  -7.498  30.097  1.00  0.00     0.003 A 
ENDROOT
BRANCH   5  18
HETATM   18  C5  UNK     1      30.503  -8.553  36.534  1.00  0.00    -0.002 A 
HETATM   19  C10 UNK     1      29.312  -8.124  37.055  1.00  0.00     0.035 A 
HETATM   20  C13 UNK     1      29.005  -8.790  38.278  1.00  0.00     0.018 A 
HETATM   21 Br1  UNK     1      27.438  -8.434  39.259  1.00  0.00    -0.051 Br
HETATM   22  C15 UNK     1      29.978  -9.699  38.630  1.00  0.00     0.069 A 
HETATM   23  S1  UNK     1      31.256  -9.746  37.493  1.00  0.00    -0.104 SA
ENDBRANCH   5  18
BRANCH  11  24
HETATM   24  N1  UNK     1      31.770  -4.376  34.768  1.00  0.00    -0.379 N 
HETATM   25  H8  UNK     1      31.839  -3.827  33.921  1.00  0.00     0.158 HD
HETATM   26  H9  UNK     1      32.037  -3.975  35.657  1.00  0.00     0.158 HD
ENDBRANCH  11  24
TORSDOF 2
ENDMDL
MODEL 6
REMARK VINA RESULT:      -7.3     20.968     23.016
REMARK  2 active torsions:
REMARK  status: ('A' for Active; 'I' for Inactive)
REMARK    1  A    between atoms: C8_15  and  N1_6 
REMARK    2  A    between atoms: C1_8  and  C5_12 
ROOT
HETATM    1  O1  UNK     1      15.241   8.209  33.151  1.00  0.00    -0.291 OA
HETATM    2  O2  UNK     1      18.851  10.069  34.154  1.00  0.00    -0.274 OA
HETATM    3  O3  UNK     1      17.785  12.082  34.271  1.00  0.00    -0.259 OA
HETATM    4  N2  UNK     1      11.846  11.563  32.501  1.00  0.00    -0.191 NA
HETATM    5  C1  UNK     1      15.164  11.026  33.724  1.00  0.00     0.115 C 
HETATM    6  C2  UNK     1      16.434  10.192  33.765  1.00  0.00     0.067 A 
HETATM    7  C3  UNK     1      16.401   8.876  33.500  1.00  0.00     0.104 A 
HETATM    8  C4  UNK     1      13.998  10.250  33.107  1.00  0.00     0.086 C 
HETATM    9  C6  UNK     1      17.609   8.060  33.570  1.00  0.00     0.033 A 
HETATM   10  C7  UNK     1      17.717  10.872  34.081  1.00  0.00     0.298 A 
HETATM   11  C8  UNK     1      14.079   8.922  32.867  1.00  0.00     0.159 C 
HETATM   12  C9  UNK     1      18.808   8.684  33.903  1.00  0.00     0.092 A 
HETATM   13  C11 UNK     1      17.630   6.681  33.326  1.00  0.00     0.017 A 
HETATM   14  C12 UNK     1      20.009   7.983  33.998  1.00  0.00     0.038 A 
HETATM   15  C14 UNK     1      18.827   5.964  33.417  1.00  0.00     0.001 A 
HETATM   16  C16 UNK     1      12.810  10.976  32.772  1.00  0.00     0.100 C 
HETATM   17  C17 UNK     1      20.014   6.613  33.753  1.00  0.00     0.003 A 
ENDROOT
BRANCH   5  18
HETATM   18  C5  UNK     1      14.810  11.582  35.064  1.00  0.00    -0.002 A 
HETATM   19  C10 UNK     1      14.340  10.907  36.159  1.00  0.00     0.035 A 
HETATM   20  C13 UNK     1      14.116  11.786  37.259  1.00  0.00     0.018 A 
HETATM   21 Br1  UNK     1      13.469  11.183  38.920  1.00  0.00    -0.051 Br
HETATM   22  C15 UNK     1      14.428  13.091  36.950  1.00  0.00     0.069 A 
HETATM   23  S1  UNK     1      14.987  13.255  35.341  1.00  0.00    -0.104 SA
ENDBRANCH   5  18
BRANCH  11  24
HETATM   24  N1  UNK     1      13.077   8.154  32.339  1.00  0.00    -0.379 N 
HETATM   25  H8  UNK     1      12.726   7.373  32.878  1.00  0.00     0.158 HD
HETATM   26  H9  UNK     1      12.689   8.359  31.427  1.00  0.00     0.158 HD
ENDBRANCH  11  24
TORSDOF 2
ENDMDL
MODEL 7
REMARK VINA RESULT:      -7.0      5.242      6.258
REMARK  2 active torsions:
REMARK  status: ('A' for Active; 'I' for Inactive)
REMARK    1  A    between atoms: C8_15  and  N1_6 
REMARK    2  A    between atoms: C1_8  and  C5_12 
ROOT
HETATM    1  O1  UNK     1      30.766 -10.312  33.514  1.00  0.00    -0.291 OA
HETATM    2  O2  UNK     1      27.973  -7.533  32.110  1.00  0.00    -0.274 OA
HETATM    3  O3  UNK     1      27.834  -6.614  34.193  1.00  0.00    -0.259 OA
HETATM    4  N2  UNK     1      31.177  -9.882  38.294  1.00  0.00    -0.191 NA
HETATM    5  C1  UNK     1      29.825  -8.327  35.371  1.00  0.00     0.115 C 
HETATM    6  C2  UNK     1      29.362  -8.416  33.926  1.00  0.00     0.067 A 
HETATM    7  C3  UNK     1      29.851  -9.359  33.105  1.00  0.00     0.104 A 
HETATM    8  C4  UNK     1      30.645  -9.553  35.779  1.00  0.00     0.086 C 
HETATM    9  C6  UNK     1      29.439  -9.431  31.706  1.00  0.00     0.033 A 
HETATM   10  C7  UNK     1      28.339  -7.450  33.450  1.00  0.00     0.298 A 
HETATM   11  C8  UNK     1      31.075 -10.454  34.865  1.00  0.00     0.159 C 
HETATM   12  C9  UNK     1      28.508  -8.505  31.244  1.00  0.00     0.092 A 
HETATM   13  C11 UNK     1      29.932 -10.379  30.800  1.00  0.00     0.017 A 
HETATM   14  C12 UNK     1      28.062  -8.496  29.924  1.00  0.00     0.038 A 
HETATM   15  C14 UNK     1      29.493 -10.383  29.472  1.00  0.00     0.001 A 
HETATM   16  C16 UNK     1      30.939  -9.735  37.168  1.00  0.00     0.100 C 
HETATM   17  C17 UNK     1      28.560  -9.444  29.035  1.00  0.00     0.003 A 
ENDROOT
BRANCH   5  18
HETATM   18  C5  UNK     1      30.555  -7.055  35.653  1.00  0.00    -0.002 A 
HETATM   19  C10 UNK     1      31.667  -6.565  35.024  1.00  0.00     0.035 A 
HETATM   20  C13 UNK     1      32.074  -5.316  35.577  1.00  0.00     0.018 A 
HETATM   21 Br1  UNK     1      33.570  -4.367  34.943  1.00  0.00    -0.051 Br
HETATM   22  C15 UNK     1      31.250  -4.912  36.605  1.00  0.00     0.069 A 
HETATM   23  S1  UNK     1      29.993  -6.036  36.900  1.00  0.00    -0.104 SA
ENDBRANCH   5  18
BRANCH  11  24
HETATM   24  N1  UNK     1      31.828 -11.561  35.144  1.00  0.00    -0.379 N 
HETATM   25  H8  UNK     1      32.717 -11.441  35.612  1.00  0.00     0.158 HD
HETATM   26  H9  UNK     1      31.507 -12.487  34.892  1.00  0.00     0.158 HD
ENDBRANCH  11  24
TORSDOF 2
ENDMDL
MODEL 8
REMARK VINA RESULT:      -7.0      3.936      6.393
REMARK  2 active torsions:
REMARK  status: ('A' for Active; 'I' for Inactive)
REMARK    1  A    between atoms: C8_15  and  N1_6 
REMARK    2  A    between atoms: C1_8  and  C5_12 
ROOT
HETATM    1  O1  UNK     1      34.595  -7.067  35.704  1.00  0.00    -0.291 OA
HETATM    2  O2  UNK     1      30.617  -6.086  34.865  1.00  0.00    -0.274 OA
HETATM    3  O3  UNK     1      30.832  -6.981  32.779  1.00  0.00    -0.259 OA
HETATM    4  N2  UNK     1      36.695  -8.757  31.712  1.00  0.00    -0.191 NA
HETATM    5  C1  UNK     1      33.543  -7.873  33.151  1.00  0.00     0.115 C 
HETATM    6  C2  UNK     1      32.737  -7.117  34.195  1.00  0.00     0.067 A 
HETATM    7  C3  UNK     1      33.283  -6.781  35.374  1.00  0.00     0.104 A 
HETATM    8  C4  UNK     1      35.028  -7.929  33.516  1.00  0.00     0.086 C 
HETATM    9  C6  UNK     1      32.507  -6.086  36.396  1.00  0.00     0.033 A 
HETATM   10  C7  UNK     1      31.338  -6.737  33.869  1.00  0.00     0.298 A 
HETATM   11  C8  UNK     1      35.473  -7.550  34.735  1.00  0.00     0.159 C 
HETATM   12  C9  UNK     1      31.184  -5.760  36.112  1.00  0.00     0.092 A 
HETATM   13  C11 UNK     1      33.018  -5.731  37.651  1.00  0.00     0.017 A 
HETATM   14  C12 UNK     1      30.368  -5.101  37.029  1.00  0.00     0.038 A 
HETATM   15  C14 UNK     1      32.212  -5.068  38.582  1.00  0.00     0.001 A 
HETATM   16  C16 UNK     1      35.949  -8.387  32.519  1.00  0.00     0.100 C 
HETATM   17  C17 UNK     1      30.889  -4.754  38.272  1.00  0.00     0.003 A 
ENDROOT
BRANCH   5  18
HETATM   18  C5  UNK     1      32.988  -9.233  32.885  1.00  0.00    -0.002 A 
HETATM   19  C10 UNK     1      32.754 -10.239  33.784  1.00  0.00     0.035 A 
HETATM   20  C13 UNK     1      32.216 -11.395  33.147  1.00  0.00     0.018 A 
HETATM   21 Br1  UNK     1      31.780 -12.962  34.095  1.00  0.00    -0.051 Br
HETATM   22  C15 UNK     1      32.063 -11.215  31.790  1.00  0.00     0.069 A 
HETATM   23  S1  UNK     1      32.569  -9.659  31.288  1.00  0.00    -0.104 SA
ENDBRANCH   5  18
BRANCH  11  24
HETATM   24  N1  UNK     1      36.778  -7.590  35.146  1.00  0.00    -0.379 N 
HETATM   25  H8  UNK     1      36.982  -7.884  36.092  1.00  0.00     0.158 HD
HETATM   26  H9  UNK     1      37.529  -7.333  34.519  1.00  0.00     0.158 HD
ENDBRANCH  11  24
TORSDOF 2
ENDMDL
MODEL 9
REMARK VINA RESULT:      -6.9      4.321      6.786
REMARK  2 active torsions:
REMARK  status: ('A' for Active; 'I' for Inactive)
REMARK    1  A    between atoms: C8_15  and  N1_6 
REMARK    2  A    between atoms: C1_8  and  C5_12 
ROOT
HETATM    1  O1  UNK     1      30.564  -9.763  36.292  1.00  0.00    -0.291 OA
HETATM    2  O2  UNK     1      29.842  -5.644  36.207  1.00  0.00    -0.274 OA
HETATM    3  O3  UNK     1      31.157  -5.448  34.354  1.00  0.00    -0.259 OA
HETATM    4  N2  UNK     1      33.856 -10.874  32.956  1.00  0.00    -0.191 NA
HETATM    5  C1  UNK     1      31.704  -8.264  34.118  1.00  0.00     0.115 C 
HETATM    6  C2  UNK     1      30.866  -7.642  35.224  1.00  0.00     0.067 A 
HETATM    7  C3  UNK     1      30.350  -8.400  36.204  1.00  0.00     0.104 A 
HETATM    8  C4  UNK     1      32.071  -9.716  34.436  1.00  0.00     0.086 C 
HETATM    9  C6  UNK     1      29.516  -7.817  37.251  1.00  0.00     0.033 A 
HETATM   10  C7  UNK     1      30.651  -6.172  35.206  1.00  0.00     0.298 A 
HETATM   11  C8  UNK     1      31.498 -10.383  35.464  1.00  0.00     0.159 C 
HETATM   12  C9  UNK     1      29.280  -6.446  37.219  1.00  0.00     0.092 A 
HETATM   13  C11 UNK     1      28.934  -8.562  38.285  1.00  0.00     0.017 A 
HETATM   14  C12 UNK     1      28.492  -5.805  38.174  1.00  0.00     0.038 A 
HETATM   15  C14 UNK     1      28.142  -7.934  39.251  1.00  0.00     0.001 A 
HETATM   16  C16 UNK     1      33.056 -10.355  33.619  1.00  0.00     0.100 C 
HETATM   17  C17 UNK     1      27.920  -6.559  39.195  1.00  0.00     0.003 A 
ENDROOT
BRANCH   5  18
HETATM   18  C5  UNK     1      31.055  -8.139  32.779  1.00  0.00    -0.002 A 
HETATM   19  C10 UNK     1      29.784  -8.499  32.422  1.00  0.00     0.035 A 
HETATM   20  C13 UNK     1      29.529  -8.224  31.047  1.00  0.00     0.018 A 
HETATM   21 Br1  UNK     1      27.876  -8.599  30.228  1.00  0.00    -0.051 Br
HETATM   22  C15 UNK     1      30.621  -7.665  30.420  1.00  0.00     0.069 A 
HETATM   23  S1  UNK     1      31.946  -7.475  31.486  1.00  0.00    -0.104 SA
ENDBRANCH   5  18
BRANCH  11  24
HETATM   24  N1  UNK     1      31.754 -11.684  35.800  1.00  0.00    -0.379 N 
HETATM   25  H8  UNK     1      31.466 -12.018  36.711  1.00  0.00     0.158 HD
HETATM   26  H9  UNK     1      32.221 -12.306  35.154  1.00  0.00     0.158 HD
ENDBRANCH  11  24
TORSDOF 2
ENDMDL
MODEL 10
REMARK VINA RESULT:      -6.9      4.792      6.942
REMARK  2 active torsions:
REMARK  status: ('A' for Active; 'I' for Inactive)
REMARK    1  A    between atoms: C8_15  and  N1_6 
REMARK    2  A    between atoms: C1_8  and  C5_12 
ROOT
HETATM    1  O1  UNK     1      34.722  -7.671  33.402  1.00  0.00    -0.291 OA
HETATM    2  O2  UNK     1      31.184  -5.869  34.719  1.00  0.00    -0.274 OA
HETATM    3  O3  UNK     1      30.370  -5.903  32.590  1.00  0.00    -0.259 OA
HETATM    4  N2  UNK     1      34.667  -7.963  28.595  1.00  0.00    -0.191 NA
HETATM    5  C1  UNK     1      32.643  -7.257  31.457  1.00  0.00     0.115 C 
HETATM    6  C2  UNK     1      32.523  -6.857  32.919  1.00  0.00     0.067 A 
HETATM    7  C3  UNK     1      33.525  -7.090  33.781  1.00  0.00     0.104 A 
HETATM    8  C4  UNK     1      34.074  -7.668  31.101  1.00  0.00     0.086 C 
HETATM    9  C6  UNK     1      33.405  -6.742  35.193  1.00  0.00     0.033 A 
HETATM   10  C7  UNK     1      31.278  -6.180  33.367  1.00  0.00     0.298 A 
HETATM   11  C8  UNK     1      35.014  -7.862  32.053  1.00  0.00     0.159 C 
HETATM   12  C9  UNK     1      32.227  -6.141  35.626  1.00  0.00     0.092 A 
HETATM   13  C11 UNK     1      34.409  -6.981  36.140  1.00  0.00     0.017 A 
HETATM   14  C12 UNK     1      32.023  -5.778  36.956  1.00  0.00     0.038 A 
HETATM   15  C14 UNK     1      34.220  -6.623  37.478  1.00  0.00     0.001 A 
HETATM   16  C16 UNK     1      34.402  -7.831  29.716  1.00  0.00     0.100 C 
HETATM   17  C17 UNK     1      33.030  -6.023  37.886  1.00  0.00     0.003 A 
ENDROOT
BRANCH   5  18
HETATM   18  C5  UNK     1      31.655  -8.309  31.076  1.00  0.00    -0.002 A 
HETATM   19  C10 UNK     1      30.750  -8.283  30.050  1.00  0.00     0.035 A 
HETATM   20  C13 UNK     1      29.975  -9.478  30.005  1.00  0.00     0.018 A 
HETATM   21 Br1  UNK     1      28.635  -9.769  28.714  1.00  0.00    -0.051 Br
HETATM   22  C15 UNK     1      30.328 -10.362  31.000  1.00  0.00     0.069 A 
HETATM   23  S1  UNK     1      31.588  -9.751  31.984  1.00  0.00    -0.104 SA
ENDBRANCH   5  18
BRANCH  11  24
HETATM   24  N1  UNK     1      36.305  -8.249  31.819  1.00  0.00    -0.379 N 
HETATM   25  H8  UNK     1      37.058  -7.699  32.212  1.00  0.00     0.158 HD
HETATM   26  H9  UNK     1      36.511  -9.071  31.266  1.00  0.00     0.158 HD
ENDBRANCH  11  24
TORSDOF 2
ENDMDL
