MODEL 1
REMARK VINA RESULT:      -6.5      0.000      0.000
REMARK  1 active torsions:
REMARK  status: ('A' for Active; 'I' for Inactive)
REMARK    1  A    between atoms: C5_9  and  O2_3 
ROOT
HETATM    1 Cl1  UNK     1      20.748   6.663  33.036  1.00  0.00    -0.081 Cl
HETATM    2  O1  UNK     1      16.757   9.195  34.879  1.00  0.00    -0.275 OA
HETATM    3  O3  UNK     1      15.027  10.390  35.781  1.00  0.00    -0.260 OA
HETATM    4  C1  UNK     1      16.296   7.572  33.114  1.00  0.00     0.007 A 
HETATM    5  C2  UNK     1      14.871   7.921  33.200  1.00  0.00    -0.043 A 
HETATM    6  C3  UNK     1      17.195   8.222  33.959  1.00  0.00     0.092 A 
HETATM    7  C4  UNK     1      16.810   6.617  32.227  1.00  0.00     0.053 A 
HETATM    8  C5  UNK     1      18.181   6.333  32.199  1.00  0.00     0.090 A 
HETATM    9  C6  UNK     1      18.564   7.950  33.943  1.00  0.00     0.065 A 
HETATM   10  C7  UNK     1      14.482   8.850  34.084  1.00  0.00     0.090 A 
HETATM   11  C8  UNK     1      19.056   6.998  33.055  1.00  0.00     0.070 A 
HETATM   12  C9  UNK     1      13.877   7.239  32.306  1.00  0.00     0.049 C 
HETATM   13  C10 UNK     1      15.420   9.545  34.983  1.00  0.00     0.288 A 
ENDROOT
BRANCH   8  14
HETATM   14  O2  UNK     1      18.634   5.395  31.318  1.00  0.00    -0.354 OA
HETATM   15  C11 UNK     1      19.005   5.868  30.029  1.00  0.00     0.210 C 
ENDBRANCH   8  14
TORSDOF 1
ENDMDL
MODEL 2
REMARK VINA RESULT:      -6.4      2.751      5.506
REMARK  1 active torsions:
REMARK  status: ('A' for Active; 'I' for Inactive)
REMARK    1  A    between atoms: C5_9  and  O2_3 
ROOT
HETATM    1 Cl1  UNK     1      16.793   7.704  35.598  1.00  0.00    -0.081 Cl
HETATM    2  O1  UNK     1      17.495   3.913  32.301  1.00  0.00    -0.275 OA
HETATM    3  O3  UNK     1      17.735   2.144  30.871  1.00  0.00    -0.260 OA
HETATM    4  C1  UNK     1      18.845   5.919  31.957  1.00  0.00     0.007 A 
HETATM    5  C2  UNK     1      19.464   5.273  30.791  1.00  0.00    -0.043 A 
HETATM    6  C3  UNK     1      17.879   5.216  32.677  1.00  0.00     0.092 A 
HETATM    7  C4  UNK     1      19.171   7.209  32.395  1.00  0.00     0.053 A 
HETATM    8  C5  UNK     1      18.542   7.764  33.516  1.00  0.00     0.090 A 
HETATM    9  C6  UNK     1      17.243   5.756  33.796  1.00  0.00     0.065 A 
HETATM   10  C7  UNK     1      19.080   4.032  30.457  1.00  0.00     0.090 A 
HETATM   11  C8  UNK     1      17.580   7.039  34.214  1.00  0.00     0.070 A 
HETATM   12  C9  UNK     1      20.508   6.001  29.997  1.00  0.00     0.049 C 
HETATM   13  C10 UNK     1      18.061   3.278  31.206  1.00  0.00     0.288 A 
ENDROOT
BRANCH   8  14
HETATM   14  O2  UNK     1      18.893   9.025  33.902  1.00  0.00    -0.354 OA
HETATM   15  C11 UNK     1      20.157   9.160  34.539  1.00  0.00     0.210 C 
ENDBRANCH   8  14
TORSDOF 1
ENDMDL
MODEL 3
REMARK VINA RESULT:      -6.3     15.386     16.867
REMARK  1 active torsions:
REMARK  status: ('A' for Active; 'I' for Inactive)
REMARK    1  A    between atoms: C5_9  and  O2_3 
ROOT
HETATM    1 Cl1  UNK     1      23.705  -5.840  39.317  1.00  0.00    -0.081 Cl
HETATM    2  O1  UNK     1      20.697  -9.865  38.615  1.00  0.00    -0.275 OA
HETATM    3  O3  UNK     1      19.408 -11.738  38.368  1.00  0.00    -0.260 OA
HETATM    4  C1  UNK     1      20.096  -7.832  37.402  1.00  0.00     0.007 A 
HETATM    5  C2  UNK     1      18.950  -8.546  36.823  1.00  0.00    -0.043 A 
HETATM    6  C3  UNK     1      20.936  -8.517  38.281  1.00  0.00     0.092 A 
HETATM    7  C4  UNK     1      20.401  -6.494  37.121  1.00  0.00     0.053 A 
HETATM    8  C5  UNK     1      21.512  -5.875  37.708  1.00  0.00     0.090 A 
HETATM    9  C6  UNK     1      22.046  -7.913  38.874  1.00  0.00     0.065 A 
HETATM   10  C7  UNK     1      18.747  -9.828  37.158  1.00  0.00     0.090 A 
HETATM   11  C8  UNK     1      22.332  -6.583  38.583  1.00  0.00     0.070 A 
HETATM   12  C9  UNK     1      18.029  -7.839  35.872  1.00  0.00     0.049 C 
HETATM   13  C10 UNK     1      19.623 -10.564  38.085  1.00  0.00     0.288 A 
ENDROOT
BRANCH   8  14
HETATM   14  O2  UNK     1      21.767  -4.570  37.403  1.00  0.00    -0.354 OA
HETATM   15  C11 UNK     1      20.633  -3.743  37.174  1.00  0.00     0.210 C 
ENDBRANCH   8  14
TORSDOF 1
ENDMDL
MODEL 4
REMARK VINA RESULT:      -6.3      2.068      3.302
REMARK  1 active torsions:
REMARK  status: ('A' for Active; 'I' for Inactive)
REMARK    1  A    between atoms: C5_9  and  O2_3 
ROOT
HETATM    1 Cl1  UNK     1      20.699   6.187  32.344  1.00  0.00    -0.081 Cl
HETATM    2  O1  UNK     1      15.661   6.701  32.034  1.00  0.00    -0.275 OA
HETATM    3  O3  UNK     1      13.389   6.849  31.817  1.00  0.00    -0.260 OA
HETATM    4  C1  UNK     1      16.816   8.206  33.571  1.00  0.00     0.007 A 
HETATM    5  C2  UNK     1      15.520   8.809  33.915  1.00  0.00    -0.043 A 
HETATM    6  C3  UNK     1      16.845   7.169  32.638  1.00  0.00     0.092 A 
HETATM    7  C4  UNK     1      18.035   8.615  34.127  1.00  0.00     0.053 A 
HETATM    8  C5  UNK     1      19.235   7.996  33.752  1.00  0.00     0.090 A 
HETATM    9  C6  UNK     1      18.032   6.543  32.256  1.00  0.00     0.065 A 
HETATM   10  C7  UNK     1      14.411   8.343  33.324  1.00  0.00     0.090 A 
HETATM   11  C8  UNK     1      19.232   6.963  32.819  1.00  0.00     0.070 A 
HETATM   12  C9  UNK     1      15.456   9.928  34.913  1.00  0.00     0.049 C 
HETATM   13  C10 UNK     1      14.425   7.249  32.339  1.00  0.00     0.288 A 
ENDROOT
BRANCH   8  14
HETATM   14  O2  UNK     1      20.396   8.430  34.322  1.00  0.00    -0.354 OA
HETATM   15  C11 UNK     1      20.512   9.832  34.530  1.00  0.00     0.210 C 
ENDBRANCH   8  14
TORSDOF 1
ENDMDL
MODEL 5
REMARK VINA RESULT:      -6.3      8.010      9.989
REMARK  1 active torsions:
REMARK  status: ('A' for Active; 'I' for Inactive)
REMARK    1  A    between atoms: C5_9  and  O2_3 
ROOT
HETATM    1 Cl1  UNK     1      20.728  -1.357  29.491  1.00  0.00    -0.081 Cl
HETATM    2  O1  UNK     1      20.565  -3.038  34.275  1.00  0.00    -0.275 OA
HETATM    3  O3  UNK     1      20.566  -3.877  36.403  1.00  0.00    -0.260 OA
HETATM    4  C1  UNK     1      19.157  -1.114  33.749  1.00  0.00     0.007 A 
HETATM    5  C2  UNK     1      18.696  -1.101  35.144  1.00  0.00    -0.043 A 
HETATM    6  C3  UNK     1      20.079  -2.085  33.358  1.00  0.00     0.092 A 
HETATM    7  C4  UNK     1      18.722  -0.202  32.778  1.00  0.00     0.053 A 
HETATM    8  C5  UNK     1      19.203  -0.273  31.465  1.00  0.00     0.090 A 
HETATM    9  C6  UNK     1      20.567  -2.168  32.053  1.00  0.00     0.065 A 
HETATM   10  C7  UNK     1      19.176  -2.020  35.994  1.00  0.00     0.090 A 
HETATM   11  C8  UNK     1      20.123  -1.253  31.103  1.00  0.00     0.070 A 
HETATM   12  C9  UNK     1      17.704  -0.070  35.596  1.00  0.00     0.049 C 
HETATM   13  C10 UNK     1      20.150  -3.051  35.597  1.00  0.00     0.288 A 
ENDROOT
BRANCH   8  14
HETATM   14  O2  UNK     1      18.749   0.638  30.556  1.00  0.00    -0.354 OA
HETATM   15  C11 UNK     1      18.833   2.005  30.937  1.00  0.00     0.210 C 
ENDBRANCH   8  14
TORSDOF 1
ENDMDL
MODEL 6
REMARK VINA RESULT:      -6.2      2.413      5.038
REMARK  1 active torsions:
REMARK  status: ('A' for Active; 'I' for Inactive)
REMARK    1  A    between atoms: C5_9  and  O2_3 
ROOT
HETATM    1 Cl1  UNK     1      16.128   9.284  34.766  1.00  0.00    -0.081 Cl
HETATM    2  O1  UNK     1      20.414   6.995  33.309  1.00  0.00    -0.275 OA
HETATM    3  O3  UNK     1      22.395   5.998  32.749  1.00  0.00    -0.260 OA
HETATM    4  C1  UNK     1      18.528   6.856  31.766  1.00  0.00     0.007 A 
HETATM    5  C2  UNK     1      19.368   6.075  30.847  1.00  0.00    -0.043 A 
HETATM    6  C3  UNK     1      19.079   7.292  32.970  1.00  0.00     0.092 A 
HETATM    7  C4  UNK     1      17.193   7.192  31.502  1.00  0.00     0.053 A 
HETATM    8  C5  UNK     1      16.449   7.940  32.423  1.00  0.00     0.090 A 
HETATM    9  C6  UNK     1      18.350   8.038  33.898  1.00  0.00     0.065 A 
HETATM   10  C7  UNK     1      20.635   5.808  31.196  1.00  0.00     0.090 A 
HETATM   11  C8  UNK     1      17.027   8.362  33.618  1.00  0.00     0.070 A 
HETATM   12  C9  UNK     1      18.805   5.593  29.542  1.00  0.00     0.049 C 
HETATM   13  C10 UNK     1      21.232   6.261  32.464  1.00  0.00     0.288 A 
ENDROOT
BRANCH   8  14
HETATM   14  O2  UNK     1      15.153   8.242  32.120  1.00  0.00    -0.354 OA
HETATM   15  C11 UNK     1      14.222   7.171  32.199  1.00  0.00     0.210 C 
ENDBRANCH   8  14
TORSDOF 1
ENDMDL
MODEL 7
REMARK VINA RESULT:      -6.2      4.721      7.436
REMARK  1 active torsions:
REMARK  status: ('A' for Active; 'I' for Inactive)
REMARK    1  A    between atoms: C5_9  and  O2_3 
ROOT
HETATM    1 Cl1  UNK     1      17.639   5.622  33.049  1.00  0.00    -0.081 Cl
HETATM    2  O1  UNK     1      18.544   0.634  33.244  1.00  0.00    -0.275 OA
HETATM    3  O3  UNK     1      18.920  -1.614  33.440  1.00  0.00    -0.260 OA
HETATM    4  C1  UNK     1      18.983   1.737  31.110  1.00  0.00     0.007 A 
HETATM    5  C2  UNK     1      19.404   0.443  30.556  1.00  0.00    -0.043 A 
HETATM    6  C3  UNK     1      18.566   1.791  32.440  1.00  0.00     0.092 A 
HETATM    7  C4  UNK     1      18.977   2.931  30.377  1.00  0.00     0.053 A 
HETATM    8  C5  UNK     1      18.563   4.131  30.970  1.00  0.00     0.090 A 
HETATM    9  C6  UNK     1      18.151   2.979  33.044  1.00  0.00     0.065 A 
HETATM   10  C7  UNK     1      19.372  -0.642  31.344  1.00  0.00     0.090 A 
HETATM   11  C8  UNK     1      18.152   4.154  32.300  1.00  0.00     0.070 A 
HETATM   12  C9  UNK     1      19.860   0.351  29.129  1.00  0.00     0.049 C 
HETATM   13  C10 UNK     1      18.934  -0.601  32.749  1.00  0.00     0.288 A 
ENDROOT
BRANCH   8  14
HETATM   14  O2  UNK     1      18.575   5.267  30.215  1.00  0.00    -0.354 OA
HETATM   15  C11 UNK     1      19.825   5.935  30.100  1.00  0.00     0.210 C 
ENDBRANCH   8  14
TORSDOF 1
ENDMDL
MODEL 8
REMARK VINA RESULT:      -6.2      2.415      5.306
REMARK  1 active torsions:
REMARK  status: ('A' for Active; 'I' for Inactive)
REMARK    1  A    between atoms: C5_9  and  O2_3 
ROOT
HETATM    1 Cl1  UNK     1      14.389   9.770  33.654  1.00  0.00    -0.081 Cl
HETATM    2  O1  UNK     1      16.723   5.480  32.281  1.00  0.00    -0.275 OA
HETATM    3  O3  UNK     1      17.674   3.501  31.641  1.00  0.00    -0.260 OA
HETATM    4  C1  UNK     1      18.158   7.308  33.031  1.00  0.00     0.007 A 
HETATM    5  C2  UNK     1      19.328   6.449  32.805  1.00  0.00    -0.043 A 
HETATM    6  C3  UNK     1      16.889   6.794  32.762  1.00  0.00     0.092 A 
HETATM    7  C4  UNK     1      18.239   8.623  33.507  1.00  0.00     0.053 A 
HETATM    8  C5  UNK     1      17.081   9.386  33.700  1.00  0.00     0.090 A 
HETATM    9  C6  UNK     1      15.726   7.543  32.950  1.00  0.00     0.065 A 
HETATM   10  C7  UNK     1      19.140   5.203  32.348  1.00  0.00     0.090 A 
HETATM   11  C8  UNK     1      15.828   8.847  33.422  1.00  0.00     0.070 A 
HETATM   12  C9  UNK     1      20.707   6.971  33.087  1.00  0.00     0.049 C 
HETATM   13  C10 UNK     1      17.808   4.647  32.058  1.00  0.00     0.288 A 
ENDROOT
BRANCH   8  14
HETATM   14  O2  UNK     1      17.213  10.663  34.165  1.00  0.00    -0.354 OA
HETATM   15  C11 UNK     1      18.492  11.263  34.005  1.00  0.00     0.210 C 
ENDBRANCH   8  14
TORSDOF 1
ENDMDL
MODEL 9
REMARK VINA RESULT:      -6.2     22.899     24.903
REMARK  1 active torsions:
REMARK  status: ('A' for Active; 'I' for Inactive)
REMARK    1  A    between atoms: C5_9  and  O2_3 
ROOT
HETATM    1 Cl1  UNK     1      15.597   4.341   9.775  1.00  0.00    -0.081 Cl
HETATM    2  O1  UNK     1      11.116   5.287   7.591  1.00  0.00    -0.275 OA
HETATM    3  O3  UNK     1       9.105   5.614   6.553  1.00  0.00    -0.260 OA
HETATM    4  C1  UNK     1      11.974   7.002   9.103  1.00  0.00     0.007 A 
HETATM    5  C2  UNK     1      10.773   7.805   8.833  1.00  0.00    -0.043 A 
HETATM    6  C3  UNK     1      12.108   5.766   8.471  1.00  0.00     0.092 A 
HETATM    7  C4  UNK     1      13.003   7.407   9.963  1.00  0.00     0.053 A 
HETATM    8  C5  UNK     1      14.122   6.591  10.174  1.00  0.00     0.090 A 
HETATM    9  C6  UNK     1      13.216   4.941   8.671  1.00  0.00     0.065 A 
HETATM   10  C7  UNK     1       9.847   7.324   7.992  1.00  0.00     0.090 A 
HETATM   11  C8  UNK     1      14.227   5.361   9.529  1.00  0.00     0.070 A 
HETATM   12  C9  UNK     1      10.600   9.140   9.496  1.00  0.00     0.049 C 
HETATM   13  C10 UNK     1       9.973   6.021   7.318  1.00  0.00     0.288 A 
ENDROOT
BRANCH   8  14
HETATM   14  O2  UNK     1      15.097   7.030  11.021  1.00  0.00    -0.354 OA
HETATM   15  C11 UNK     1      16.084   7.884  10.457  1.00  0.00     0.210 C 
ENDBRANCH   8  14
TORSDOF 1
ENDMDL
MODEL 10
REMARK VINA RESULT:      -6.2      5.309      7.370
REMARK  1 active torsions:
REMARK  status: ('A' for Active; 'I' for Inactive)
REMARK    1  A    between atoms: C5_9  and  O2_3 
ROOT
HETATM    1 Cl1  UNK     1      18.578  -1.317  35.846  1.00  0.00    -0.081 Cl
HETATM    2  O1  UNK     1      18.328   1.420  31.582  1.00  0.00    -0.275 OA
HETATM    3  O3  UNK     1      18.219   2.558  29.601  1.00  0.00    -0.260 OA
HETATM    4  C1  UNK     1      18.333   2.671  33.680  1.00  0.00     0.007 A 
HETATM    5  C2  UNK     1      18.254   3.919  32.907  1.00  0.00    -0.043 A 
HETATM    6  C3  UNK     1      18.368   1.459  32.990  1.00  0.00     0.092 A 
HETATM    7  C4  UNK     1      18.376   2.625  35.080  1.00  0.00     0.053 A 
HETATM    8  C5  UNK     1      18.451   1.399  35.752  1.00  0.00     0.090 A 
HETATM    9  C6  UNK     1      18.443   0.229  33.647  1.00  0.00     0.065 A 
HETATM   10  C7  UNK     1      18.217   3.852  31.569  1.00  0.00     0.090 A 
HETATM   11  C8  UNK     1      18.485   0.204  35.037  1.00  0.00     0.070 A 
HETATM   12  C9  UNK     1      18.216   5.239  33.619  1.00  0.00     0.049 C 
HETATM   13  C10 UNK     1      18.253   2.580  30.827  1.00  0.00     0.288 A 
ENDROOT
BRANCH   8  14
HETATM   14  O2  UNK     1      18.491   1.406  37.116  1.00  0.00    -0.354 OA
HETATM   15  C11 UNK     1      17.239   1.308  37.783  1.00  0.00     0.210 C 
ENDBRANCH   8  14
TORSDOF 1
ENDMDL
