MODEL 1
REMARK VINA RESULT:      -7.6      0.000      0.000
REMARK  3 active torsions:
REMARK  status: ('A' for Active; 'I' for Inactive)
REMARK    1  A    between atoms: C11_16  and  O2_3 
REMARK    2  A    between atoms: C5_10  and  O2_3 
REMARK    3  A    between atoms: C11_16  and  C12_17 
ROOT
HETATM    1 Cl1  UNK     1      18.071   0.529  33.937  1.00  0.00    -0.081 Cl
HETATM    2  O1  UNK     1      18.319   5.587  34.225  1.00  0.00    -0.275 OA
HETATM    3  O3  UNK     1      18.420   7.859  34.467  1.00  0.00    -0.260 OA
HETATM    4  C1  UNK     1      18.480   4.614  31.991  1.00  0.00     0.007 A 
HETATM    5  C2  UNK     1      18.607   5.970  31.438  1.00  0.00    -0.043 A 
HETATM    6  C3  UNK     1      18.340   4.467  33.371  1.00  0.00     0.092 A 
HETATM    7  C4  UNK     1      18.493   3.451  31.210  1.00  0.00     0.053 A 
HETATM    8  C5  UNK     1      18.368   2.190  31.804  1.00  0.00     0.091 A 
HETATM    9  C6  UNK     1      18.212   3.215  33.978  1.00  0.00     0.065 A 
HETATM   10  C7  UNK     1      18.227   2.072  33.186  1.00  0.00     0.070 A 
HETATM   11  C8  UNK     1      18.586   7.017  32.275  1.00  0.00     0.090 A 
HETATM   12  C9  UNK     1      18.759   6.163  29.957  1.00  0.00     0.049 C 
HETATM   13  C10 UNK     1      18.438   6.877  33.733  1.00  0.00     0.288 A 
ENDROOT
BRANCH   8  14
HETATM   14  O2  UNK     1      18.385   1.086  31.002  1.00  0.00    -0.342 OA
BRANCH  14  15
HETATM   15  C11 UNK     1      19.316   1.086  29.922  1.00  0.00     0.253 C 
BRANCH  15  16
HETATM   16  C12 UNK     1      20.381   0.032  30.137  1.00  0.00     0.146 C 
HETATM   17  O4  UNK     1      21.009  -0.067  31.190  1.00  0.00    -0.296 OA
HETATM   18  C13 UNK     1      20.637  -0.902  28.983  1.00  0.00     0.093 C 
ENDBRANCH  15  16
ENDBRANCH  14  15
ENDBRANCH   8  14
TORSDOF 3
ENDMDL
MODEL 2
REMARK VINA RESULT:      -7.4      4.090      6.918
REMARK  3 active torsions:
REMARK  status: ('A' for Active; 'I' for Inactive)
REMARK    1  A    between atoms: C11_16  and  O2_3 
REMARK    2  A    between atoms: C5_10  and  O2_3 
REMARK    3  A    between atoms: C11_16  and  C12_17 
ROOT
HETATM    1 Cl1  UNK     1      20.736  -2.140  30.350  1.00  0.00    -0.081 Cl
HETATM    2  O1  UNK     1      20.603  -3.177  35.314  1.00  0.00    -0.275 OA
HETATM    3  O3  UNK     1      20.623  -3.721  37.535  1.00  0.00    -0.260 OA
HETATM    4  C1  UNK     1      19.077  -1.441  34.522  1.00  0.00     0.007 A 
HETATM    5  C2  UNK     1      18.593  -1.275  35.900  1.00  0.00    -0.043 A 
HETATM    6  C3  UNK     1      20.069  -2.390  34.273  1.00  0.00     0.092 A 
HETATM    7  C4  UNK     1      18.600  -0.699  33.434  1.00  0.00     0.053 A 
HETATM    8  C5  UNK     1      19.107  -0.909  32.147  1.00  0.00     0.091 A 
HETATM    9  C6  UNK     1      20.584  -2.612  32.994  1.00  0.00     0.065 A 
HETATM   10  C7  UNK     1      20.098  -1.865  31.928  1.00  0.00     0.070 A 
HETATM   11  C8  UNK     1      19.119  -2.036  36.869  1.00  0.00     0.090 A 
HETATM   12  C9  UNK     1      17.525  -0.263  36.201  1.00  0.00     0.049 C 
HETATM   13  C10 UNK     1      20.166  -3.041  36.622  1.00  0.00     0.288 A 
ENDROOT
BRANCH   8  14
HETATM   14  O2  UNK     1      18.610  -0.161  31.119  1.00  0.00    -0.342 OA
BRANCH  14  15
HETATM   15  C11 UNK     1      19.227   1.101  30.881  1.00  0.00     0.253 C 
BRANCH  15  16
HETATM   16  C12 UNK     1      18.222   2.093  30.336  1.00  0.00     0.146 C 
HETATM   17  O4  UNK     1      17.542   2.813  31.066  1.00  0.00    -0.296 OA
HETATM   18  C13 UNK     1      18.094   2.157  28.837  1.00  0.00     0.093 C 
ENDBRANCH  15  16
ENDBRANCH  14  15
ENDBRANCH   8  14
TORSDOF 3
ENDMDL
MODEL 3
REMARK VINA RESULT:      -7.1      2.859      4.013
REMARK  3 active torsions:
REMARK  status: ('A' for Active; 'I' for Inactive)
REMARK    1  A    between atoms: C11_16  and  O2_3 
REMARK    2  A    between atoms: C5_10  and  O2_3 
REMARK    3  A    between atoms: C11_16  and  C12_17 
ROOT
HETATM    1 Cl1  UNK     1      21.727   6.195  32.705  1.00  0.00    -0.081 Cl
HETATM    2  O1  UNK     1      17.842   9.055  34.273  1.00  0.00    -0.275 OA
HETATM    3  O3  UNK     1      16.163  10.404  35.042  1.00  0.00    -0.260 OA
HETATM    4  C1  UNK     1      17.310   7.263  32.702  1.00  0.00     0.007 A 
HETATM    5  C2  UNK     1      15.899   7.671  32.755  1.00  0.00    -0.043 A 
HETATM    6  C3  UNK     1      18.238   7.971  33.465  1.00  0.00     0.092 A 
HETATM    7  C4  UNK     1      17.784   6.199  31.924  1.00  0.00     0.053 A 
HETATM    8  C5  UNK     1      19.143   5.865  31.921  1.00  0.00     0.091 A 
HETATM    9  C6  UNK     1      19.598   7.649  33.473  1.00  0.00     0.065 A 
HETATM   10  C7  UNK     1      20.049   6.590  32.695  1.00  0.00     0.070 A 
HETATM   11  C8  UNK     1      15.551   8.706  33.531  1.00  0.00     0.090 A 
HETATM   12  C9  UNK     1      14.875   6.929  31.945  1.00  0.00     0.049 C 
HETATM   13  C10 UNK     1      16.519   9.463  34.342  1.00  0.00     0.288 A 
ENDROOT
BRANCH   8  14
HETATM   14  O2  UNK     1      19.558   4.820  31.147  1.00  0.00    -0.342 OA
BRANCH  14  15
HETATM   15  C11 UNK     1      18.701   4.429  30.076  1.00  0.00     0.253 C 
BRANCH  15  16
HETATM   16  C12 UNK     1      18.200   3.016  30.282  1.00  0.00     0.146 C 
HETATM   17  O4  UNK     1      17.755   2.624  31.361  1.00  0.00    -0.296 OA
HETATM   18  C13 UNK     1      18.270   2.103  29.087  1.00  0.00     0.093 C 
ENDBRANCH  15  16
ENDBRANCH  14  15
ENDBRANCH   8  14
TORSDOF 3
ENDMDL
MODEL 4
REMARK VINA RESULT:      -7.1      2.506      6.343
REMARK  3 active torsions:
REMARK  status: ('A' for Active; 'I' for Inactive)
REMARK    1  A    between atoms: C11_16  and  O2_3 
REMARK    2  A    between atoms: C5_10  and  O2_3 
REMARK    3  A    between atoms: C11_16  and  C12_17 
ROOT
HETATM    1 Cl1  UNK     1      18.736   5.858  29.659  1.00  0.00    -0.081 Cl
HETATM    2  O1  UNK     1      18.691   1.131  31.497  1.00  0.00    -0.275 OA
HETATM    3  O3  UNK     1      18.691  -1.038  32.222  1.00  0.00    -0.260 OA
HETATM    4  C1  UNK     1      18.304   2.929  33.105  1.00  0.00     0.007 A 
HETATM    5  C2  UNK     1      18.177   1.918  34.165  1.00  0.00    -0.043 A 
HETATM    6  C3  UNK     1      18.557   2.500  31.801  1.00  0.00     0.092 A 
HETATM    7  C4  UNK     1      18.186   4.307  33.325  1.00  0.00     0.053 A 
HETATM    8  C5  UNK     1      18.318   5.214  32.268  1.00  0.00     0.091 A 
HETATM    9  C6  UNK     1      18.691   3.394  30.736  1.00  0.00     0.065 A 
HETATM   10  C7  UNK     1      18.570   4.758  30.975  1.00  0.00     0.070 A 
HETATM   11  C8  UNK     1      18.310   0.624  33.846  1.00  0.00     0.090 A 
HETATM   12  C9  UNK     1      17.904   2.346  35.578  1.00  0.00     0.049 C 
HETATM   13  C10 UNK     1      18.577   0.156  32.476  1.00  0.00     0.288 A 
ENDROOT
BRANCH   8  14
HETATM   14  O2  UNK     1      18.195   6.548  32.532  1.00  0.00    -0.342 OA
BRANCH  14  15
HETATM   15  C11 UNK     1      16.928   6.998  33.006  1.00  0.00     0.253 C 
BRANCH  15  16
HETATM   16  C12 UNK     1      16.071   7.484  31.857  1.00  0.00     0.146 C 
HETATM   17  O4  UNK     1      16.528   8.150  30.928  1.00  0.00    -0.296 OA
HETATM   18  C13 UNK     1      14.614   7.108  31.906  1.00  0.00     0.093 C 
ENDBRANCH  15  16
ENDBRANCH  14  15
ENDBRANCH   8  14
TORSDOF 3
ENDMDL
MODEL 5
REMARK VINA RESULT:      -6.9     22.315     24.248
REMARK  3 active torsions:
REMARK  status: ('A' for Active; 'I' for Inactive)
REMARK    1  A    between atoms: C11_16  and  O2_3 
REMARK    2  A    between atoms: C5_10  and  O2_3 
REMARK    3  A    between atoms: C11_16  and  C12_17 
ROOT
HETATM    1 Cl1  UNK     1      15.645   4.233   9.823  1.00  0.00    -0.081 Cl
HETATM    2  O1  UNK     1      11.218   5.276   7.578  1.00  0.00    -0.275 OA
HETATM    3  O3  UNK     1       9.228   5.646   6.514  1.00  0.00    -0.260 OA
HETATM    4  C1  UNK     1      12.097   6.977   9.093  1.00  0.00     0.007 A 
HETATM    5  C2  UNK     1      10.919   7.806   8.805  1.00  0.00    -0.043 A 
HETATM    6  C3  UNK     1      12.209   5.735   8.468  1.00  0.00     0.092 A 
HETATM    7  C4  UNK     1      13.124   7.361   9.966  1.00  0.00     0.053 A 
HETATM    8  C5  UNK     1      14.219   6.520  10.195  1.00  0.00     0.091 A 
HETATM    9  C6  UNK     1      13.296   4.885   8.686  1.00  0.00     0.065 A 
HETATM   10  C7  UNK     1      14.305   5.284   9.555  1.00  0.00     0.070 A 
HETATM   11  C8  UNK     1       9.992   7.344   7.955  1.00  0.00     0.090 A 
HETATM   12  C9  UNK     1      10.769   9.149   9.461  1.00  0.00     0.049 C 
HETATM   13  C10 UNK     1      10.095   6.035   7.288  1.00  0.00     0.288 A 
ENDROOT
BRANCH   8  14
HETATM   14  O2  UNK     1      15.195   6.937  11.053  1.00  0.00    -0.342 OA
BRANCH  14  15
HETATM   15  C11 UNK     1      15.616   8.294  10.942  1.00  0.00     0.253 C 
BRANCH  15  16
HETATM   16  C12 UNK     1      16.902   8.391  10.150  1.00  0.00     0.146 C 
HETATM   17  O4  UNK     1      17.723   7.475  10.109  1.00  0.00    -0.296 OA
HETATM   18  C13 UNK     1      17.130   9.679   9.404  1.00  0.00     0.093 C 
ENDBRANCH  15  16
ENDBRANCH  14  15
ENDBRANCH   8  14
TORSDOF 3
ENDMDL
MODEL 6
REMARK VINA RESULT:      -6.8     22.425     24.082
REMARK  3 active torsions:
REMARK  status: ('A' for Active; 'I' for Inactive)
REMARK    1  A    between atoms: C11_16  and  O2_3 
REMARK    2  A    between atoms: C5_10  and  O2_3 
REMARK    3  A    between atoms: C11_16  and  C12_17 
ROOT
HETATM    1 Cl1  UNK     1      12.173   4.017   8.263  1.00  0.00    -0.081 Cl
HETATM    2  O1  UNK     1      16.332   6.507   9.756  1.00  0.00    -0.275 OA
HETATM    3  O3  UNK     1      18.269   7.542  10.395  1.00  0.00    -0.260 OA
HETATM    4  C1  UNK     1      14.200   7.651  10.088  1.00  0.00     0.007 A 
HETATM    5  C2  UNK     1      14.930   8.787  10.668  1.00  0.00    -0.043 A 
HETATM    6  C3  UNK     1      14.928   6.544   9.651  1.00  0.00     0.092 A 
HETATM    7  C4  UNK     1      12.807   7.610   9.947  1.00  0.00     0.053 A 
HETATM    8  C5  UNK     1      12.177   6.494   9.385  1.00  0.00     0.091 A 
HETATM    9  C6  UNK     1      14.313   5.422   9.089  1.00  0.00     0.065 A 
HETATM   10  C7  UNK     1      12.930   5.401   8.957  1.00  0.00     0.070 A 
HETATM   11  C8  UNK     1      16.265   8.725  10.755  1.00  0.00     0.090 A 
HETATM   12  C9  UNK     1      14.176   9.993  11.149  1.00  0.00     0.049 C 
HETATM   13  C10 UNK     1      17.047   7.564  10.297  1.00  0.00     0.288 A 
ENDROOT
BRANCH   8  14
HETATM   14  O2  UNK     1      10.817   6.502   9.269  1.00  0.00    -0.342 OA
BRANCH  14  15
HETATM   15  C11 UNK     1      10.269   7.176   8.139  1.00  0.00     0.253 C 
BRANCH  15  16
HETATM   16  C12 UNK     1       9.519   6.206   7.251  1.00  0.00     0.146 C 
HETATM   17  O4  UNK     1       8.624   5.477   7.677  1.00  0.00    -0.296 OA
HETATM   18  C13 UNK     1       9.926   6.178   5.801  1.00  0.00     0.093 C 
ENDBRANCH  15  16
ENDBRANCH  14  15
ENDBRANCH   8  14
TORSDOF 3
ENDMDL
MODEL 7
REMARK VINA RESULT:      -6.8      2.232      6.588
REMARK  3 active torsions:
REMARK  status: ('A' for Active; 'I' for Inactive)
REMARK    1  A    between atoms: C11_16  and  O2_3 
REMARK    2  A    between atoms: C5_10  and  O2_3 
REMARK    3  A    between atoms: C11_16  and  C12_17 
ROOT
HETATM    1 Cl1  UNK     1      18.667   4.579  29.601  1.00  0.00    -0.081 Cl
HETATM    2  O1  UNK     1      19.986  -0.307  29.935  1.00  0.00    -0.275 OA
HETATM    3  O3  UNK     1      20.622  -2.503  29.981  1.00  0.00    -0.260 OA
HETATM    4  C1  UNK     1      18.887   0.660  31.890  1.00  0.00     0.007 A 
HETATM    5  C2  UNK     1      18.996  -0.642  32.563  1.00  0.00    -0.043 A 
HETATM    6  C3  UNK     1      19.387   0.785  30.594  1.00  0.00     0.092 A 
HETATM    7  C4  UNK     1      18.307   1.793  32.476  1.00  0.00     0.053 A 
HETATM    8  C5  UNK     1      18.237   3.003  31.776  1.00  0.00     0.091 A 
HETATM    9  C6  UNK     1      19.323   1.985  29.882  1.00  0.00     0.065 A 
HETATM   10  C7  UNK     1      18.744   3.099  30.481  1.00  0.00     0.070 A 
HETATM   11  C8  UNK     1      19.571  -1.662  31.913  1.00  0.00     0.090 A 
HETATM   12  C9  UNK     1      18.467  -0.810  33.958  1.00  0.00     0.049 C 
HETATM   13  C10 UNK     1      20.104  -1.546  30.546  1.00  0.00     0.288 A 
ENDROOT
BRANCH   8  14
HETATM   14  O2  UNK     1      17.663   4.079  32.388  1.00  0.00    -0.342 OA
BRANCH  14  15
HETATM   15  C11 UNK     1      18.335   4.610  33.527  1.00  0.00     0.253 C 
BRANCH  15  16
HETATM   16  C12 UNK     1      18.739   6.049  33.287  1.00  0.00     0.146 C 
HETATM   17  O4  UNK     1      18.050   6.998  33.658  1.00  0.00    -0.296 OA
HETATM   18  C13 UNK     1      20.042   6.264  32.563  1.00  0.00     0.093 C 
ENDBRANCH  15  16
ENDBRANCH  14  15
ENDBRANCH   8  14
TORSDOF 3
ENDMDL
MODEL 8
REMARK VINA RESULT:      -6.7     22.774     23.497
REMARK  3 active torsions:
REMARK  status: ('A' for Active; 'I' for Inactive)
REMARK    1  A    between atoms: C11_16  and  O2_3 
REMARK    2  A    between atoms: C5_10  and  O2_3 
REMARK    3  A    between atoms: C11_16  and  C12_17 
ROOT
HETATM    1 Cl1  UNK     1      15.234   4.344   9.970  1.00  0.00    -0.081 Cl
HETATM    2  O1  UNK     1      17.583   8.836   9.792  1.00  0.00    -0.275 OA
HETATM    3  O3  UNK     1      18.740  10.806   9.702  1.00  0.00    -0.260 OA
HETATM    4  C1  UNK     1      15.151   8.886  10.017  1.00  0.00     0.007 A 
HETATM    5  C2  UNK     1      15.209  10.355  10.024  1.00  0.00    -0.043 A 
HETATM    6  C3  UNK     1      16.345   8.173   9.901  1.00  0.00     0.092 A 
HETATM    7  C4  UNK     1      13.962   8.153  10.119  1.00  0.00     0.053 A 
HETATM    8  C5  UNK     1      13.981   6.754  10.105  1.00  0.00     0.091 A 
HETATM    9  C6  UNK     1      16.379   6.776   9.887  1.00  0.00     0.065 A 
HETATM   10  C7  UNK     1      15.188   6.067   9.989  1.00  0.00     0.070 A 
HETATM   11  C8  UNK     1      16.400  10.958   9.918  1.00  0.00     0.090 A 
HETATM   12  C9  UNK     1      13.943  11.153  10.148  1.00  0.00     0.049 C 
HETATM   13  C10 UNK     1      17.668  10.219   9.795  1.00  0.00     0.288 A 
ENDROOT
BRANCH   8  14
HETATM   14  O2  UNK     1      12.796   6.084  10.207  1.00  0.00    -0.342 OA
BRANCH  14  15
HETATM   15  C11 UNK     1      11.813   6.353   9.211  1.00  0.00     0.253 C 
BRANCH  15  16
HETATM   16  C12 UNK     1      11.958   5.396   8.046  1.00  0.00     0.146 C 
HETATM   17  O4  UNK     1      12.168   4.194   8.202  1.00  0.00    -0.296 OA
HETATM   18  C13 UNK     1      11.827   5.996   6.671  1.00  0.00     0.093 C 
ENDBRANCH  15  16
ENDBRANCH  14  15
ENDBRANCH   8  14
TORSDOF 3
ENDMDL
MODEL 9
REMARK VINA RESULT:      -6.7      3.843      5.821
REMARK  3 active torsions:
REMARK  status: ('A' for Active; 'I' for Inactive)
REMARK    1  A    between atoms: C11_16  and  O2_3 
REMARK    2  A    between atoms: C5_10  and  O2_3 
REMARK    3  A    between atoms: C11_16  and  C12_17 
ROOT
HETATM    1 Cl1  UNK     1      21.258  -3.574  30.458  1.00  0.00    -0.081 Cl
HETATM    2  O1  UNK     1      19.037   0.701  28.870  1.00  0.00    -0.275 OA
HETATM    3  O3  UNK     1      18.054   2.595  28.047  1.00  0.00    -0.260 OA
HETATM    4  C1  UNK     1      19.187   0.385  31.287  1.00  0.00     0.007 A 
HETATM    5  C2  UNK     1      18.512   1.677  31.471  1.00  0.00    -0.043 A 
HETATM    6  C3  UNK     1      19.429  -0.062  29.987  1.00  0.00     0.092 A 
HETATM    7  C4  UNK     1      19.607  -0.432  32.344  1.00  0.00     0.053 A 
HETATM    8  C5  UNK     1      20.244  -1.653  32.095  1.00  0.00     0.091 A 
HETATM    9  C6  UNK     1      20.066  -1.277  29.723  1.00  0.00     0.065 A 
HETATM   10  C7  UNK     1      20.474  -2.074  30.786  1.00  0.00     0.070 A 
HETATM   11  C8  UNK     1      18.150   2.381  30.390  1.00  0.00     0.090 A 
HETATM   12  C9  UNK     1      18.238   2.187  32.857  1.00  0.00     0.049 C 
HETATM   13  C10 UNK     1      18.398   1.923  29.013  1.00  0.00     0.288 A 
ENDROOT
BRANCH   8  14
HETATM   14  O2  UNK     1      20.634  -2.415  33.159  1.00  0.00    -0.342 OA
BRANCH  14  15
HETATM   15  C11 UNK     1      19.888  -2.272  34.365  1.00  0.00     0.253 C 
BRANCH  15  16
HETATM   16  C12 UNK     1      20.812  -2.243  35.564  1.00  0.00     0.146 C 
HETATM   17  O4  UNK     1      21.928  -1.728  35.525  1.00  0.00    -0.296 OA
HETATM   18  C13 UNK     1      20.289  -2.883  36.823  1.00  0.00     0.093 C 
ENDBRANCH  15  16
ENDBRANCH  14  15
ENDBRANCH   8  14
TORSDOF 3
ENDMDL
MODEL 10
REMARK VINA RESULT:      -6.6      2.817      6.452
REMARK  3 active torsions:
REMARK  status: ('A' for Active; 'I' for Inactive)
REMARK    1  A    between atoms: C11_16  and  O2_3 
REMARK    2  A    between atoms: C5_10  and  O2_3 
REMARK    3  A    between atoms: C11_16  and  C12_17 
ROOT
HETATM    1 Cl1  UNK     1      17.641   4.500  32.356  1.00  0.00    -0.081 Cl
HETATM    2  O1  UNK     1      19.554   0.849  29.398  1.00  0.00    -0.275 OA
HETATM    3  O3  UNK     1      20.412  -0.724  27.978  1.00  0.00    -0.260 OA
HETATM    4  C1  UNK     1      19.225   0.284  31.751  1.00  0.00     0.007 A 
HETATM    5  C2  UNK     1      19.748  -1.061  31.474  1.00  0.00    -0.043 A 
HETATM    6  C3  UNK     1      19.144   1.198  30.701  1.00  0.00     0.092 A 
HETATM    7  C4  UNK     1      18.798   0.708  33.016  1.00  0.00     0.053 A 
HETATM    8  C5  UNK     1      18.310   2.005  33.209  1.00  0.00     0.091 A 
HETATM    9  C6  UNK     1      18.658   2.496  30.877  1.00  0.00     0.065 A 
HETATM   10  C7  UNK     1      18.240   2.897  32.140  1.00  0.00     0.070 A 
HETATM   11  C8  UNK     1      20.132  -1.364  30.227  1.00  0.00     0.090 A 
HETATM   12  C9  UNK     1      19.847  -2.069  32.583  1.00  0.00     0.049 C 
HETATM   13  C10 UNK     1      20.054  -0.411  29.108  1.00  0.00     0.288 A 
ENDROOT
BRANCH   8  14
HETATM   14  O2  UNK     1      17.906   2.372  34.460  1.00  0.00    -0.342 OA
BRANCH  14  15
HETATM   15  C11 UNK     1      17.366   1.347  35.291  1.00  0.00     0.253 C 
BRANCH  15  16
HETATM   16  C12 UNK     1      18.095   1.295  36.616  1.00  0.00     0.146 C 
HETATM   17  O4  UNK     1      18.984   2.093  36.913  1.00  0.00    -0.296 OA
HETATM   18  C13 UNK     1      17.673   0.207  37.567  1.00  0.00     0.093 C 
ENDBRANCH  15  16
ENDBRANCH  14  15
ENDBRANCH   8  14
TORSDOF 3
ENDMDL
