MODEL 1
REMARK VINA RESULT:      -9.5      0.000      0.000
REMARK  5 active torsions:
REMARK  status: ('A' for Active; 'I' for Inactive)
REMARK    1  A    between atoms: C12_20  and  O2_3 
REMARK    2  A    between atoms: C13_21  and  O3_4 
REMARK       I    between atoms: C10_18  and  N1_8 
REMARK    3  A    between atoms: C3_11  and  N1_8 
REMARK    4  A    between atoms: C13_21  and  C2_10 
REMARK    5  A    between atoms: C10_18  and  C6_14 
ROOT
HETATM    1  O4  UNK     1      21.403  -4.338  36.900  1.00  0.00    -0.267 OA
HETATM    2  N1  UNK     1      19.152  -5.022  37.072  1.00  0.00    -0.316 N 
HETATM    3  C10 UNK     1      20.192  -4.135  36.832  1.00  0.00     0.262 C 
HETATM    4  H1  UNK     1      18.191  -4.700  36.993  1.00  0.00     0.169 HD
ENDROOT
BRANCH   3   5
HETATM    5  C6  UNK     1      19.701  -2.806  36.450  1.00  0.00     0.108 A 
HETATM    6  C15 UNK     1      19.957  -2.229  35.111  1.00  0.00     0.304 A 
HETATM    7  O1  UNK     1      19.437  -0.959  34.869  1.00  0.00    -0.271 OA
HETATM    8  O6  UNK     1      20.593  -2.833  34.255  1.00  0.00    -0.259 OA
HETATM    9  C7  UNK     1      18.706  -0.257  35.845  1.00  0.00     0.123 A 
HETATM   10  C12 UNK     1      18.227   1.008  35.509  1.00  0.00     0.102 A 
HETATM   11  C5  UNK     1      18.477  -0.818  37.098  1.00  0.00     0.002 A 
HETATM   12  C16 UNK     1      17.501   1.729  36.455  1.00  0.00     0.040 A 
HETATM   13  C17 UNK     1      17.261   1.182  37.718  1.00  0.00     0.004 A 
HETATM   14  C14 UNK     1      17.748  -0.089  38.040  1.00  0.00     0.014 A 
HETATM   15  C9  UNK     1      19.006  -2.143  37.382  1.00  0.00     0.037 A 
BRANCH  10  16
HETATM   16  O2  UNK     1      18.457   1.544  34.282  1.00  0.00    -0.353 OA
HETATM   17  C18 UNK     1      18.322   2.959  34.153  1.00  0.00     0.210 C 
ENDBRANCH  10  16
ENDBRANCH   3   5
BRANCH   2  18
HETATM   18  C3  UNK     1      19.280  -6.361  37.454  1.00  0.00     0.094 A 
HETATM   19  C2  UNK     1      18.938  -7.501  36.800  1.00  0.00     0.080 A 
HETATM   20  C1  UNK     1      19.256  -8.652  37.574  1.00  0.00    -0.030 A 
HETATM   21  C4  UNK     1      19.826  -8.322  38.784  1.00  0.00    -0.012 A 
HETATM   22  C8  UNK     1      19.004 -10.048  37.133  1.00  0.00     0.050 C 
HETATM   23  C11 UNK     1      20.297  -9.217  39.865  1.00  0.00     0.057 C 
HETATM   24  S1  UNK     1      19.977  -6.628  38.981  1.00  0.00    -0.076 SA
BRANCH  19  25
HETATM   25  C13 UNK     1      18.333  -7.513  35.490  1.00  0.00     0.296 C 
HETATM   26  O5  UNK     1      17.189  -7.933  35.261  1.00  0.00    -0.259 OA
BRANCH  25  27
HETATM   27  O3  UNK     1      19.145  -7.013  34.496  1.00  0.00    -0.322 OA
HETATM   28  C19 UNK     1      20.499  -7.477  34.472  1.00  0.00     0.213 C 
ENDBRANCH  25  27
ENDBRANCH  19  25
ENDBRANCH   2  18
TORSDOF 5
ENDMDL
MODEL 2
REMARK VINA RESULT:      -9.4      2.088      7.866
REMARK  5 active torsions:
REMARK  status: ('A' for Active; 'I' for Inactive)
REMARK    1  A    between atoms: C12_20  and  O2_3 
REMARK    2  A    between atoms: C13_21  and  O3_4 
REMARK       I    between atoms: C10_18  and  N1_8 
REMARK    3  A    between atoms: C3_11  and  N1_8 
REMARK    4  A    between atoms: C13_21  and  C2_10 
REMARK    5  A    between atoms: C10_18  and  C6_14 
ROOT
HETATM    1  O4  UNK     1      20.798  -2.958  37.615  1.00  0.00    -0.267 OA
HETATM    2  N1  UNK     1      18.863  -3.167  36.281  1.00  0.00    -0.316 N 
HETATM    3  C10 UNK     1      19.968  -3.617  36.991  1.00  0.00     0.262 C 
HETATM    4  H1  UNK     1      18.273  -3.837  35.796  1.00  0.00     0.169 HD
ENDROOT
BRANCH   3   5
HETATM    5  C6  UNK     1      20.090  -5.079  36.945  1.00  0.00     0.108 A 
HETATM    6  C15 UNK     1      20.262  -5.812  35.671  1.00  0.00     0.304 A 
HETATM    7  O1  UNK     1      20.368  -7.199  35.758  1.00  0.00    -0.271 OA
HETATM    8  O6  UNK     1      20.311  -5.234  34.591  1.00  0.00    -0.259 OA
HETATM    9  C7  UNK     1      20.314  -7.872  36.993  1.00  0.00     0.123 A 
HETATM   10  C12 UNK     1      20.429  -9.261  36.978  1.00  0.00     0.102 A 
HETATM   11  C5  UNK     1      20.151  -7.163  38.179  1.00  0.00     0.002 A 
HETATM   12  C16 UNK     1      20.377  -9.956  38.185  1.00  0.00     0.040 A 
HETATM   13  C17 UNK     1      20.213  -9.261  39.385  1.00  0.00     0.004 A 
HETATM   14  C14 UNK     1      20.100  -7.867  39.384  1.00  0.00     0.014 A 
HETATM   15  C9  UNK     1      20.038  -5.713  38.122  1.00  0.00     0.037 A 
BRANCH  10  16
HETATM   16  O2  UNK     1      20.588  -9.941  35.812  1.00  0.00    -0.353 OA
HETATM   17  C18 UNK     1      21.905 -10.391  35.496  1.00  0.00     0.210 C 
ENDBRANCH  10  16
ENDBRANCH   3   5
BRANCH   2  18
HETATM   18  C3  UNK     1      18.467  -1.835  36.129  1.00  0.00     0.094 A 
HETATM   19  C2  UNK     1      18.505  -1.023  35.041  1.00  0.00     0.080 A 
HETATM   20  C1  UNK     1      17.991   0.269  35.347  1.00  0.00    -0.030 A 
HETATM   21  C4  UNK     1      17.588   0.369  36.661  1.00  0.00    -0.012 A 
HETATM   22  C8  UNK     1      17.898   1.381  34.367  1.00  0.00     0.050 C 
HETATM   23  C11 UNK     1      17.003   1.530  37.368  1.00  0.00     0.057 C 
HETATM   24  S1  UNK     1      17.830  -1.093  37.519  1.00  0.00    -0.076 SA
BRANCH  19  25
HETATM   25  C13 UNK     1      19.004  -1.442  33.755  1.00  0.00     0.296 C 
HETATM   26  O5  UNK     1      18.365  -1.337  32.698  1.00  0.00    -0.259 OA
BRANCH  25  27
HETATM   27  O3  UNK     1      20.272  -1.979  33.796  1.00  0.00    -0.322 OA
HETATM   28  C19 UNK     1      20.834  -2.408  32.551  1.00  0.00     0.213 C 
ENDBRANCH  25  27
ENDBRANCH  19  25
ENDBRANCH   2  18
TORSDOF 5
ENDMDL
MODEL 3
REMARK VINA RESULT:      -9.1      1.711      2.269
REMARK  5 active torsions:
REMARK  status: ('A' for Active; 'I' for Inactive)
REMARK    1  A    between atoms: C12_20  and  O2_3 
REMARK    2  A    between atoms: C13_21  and  O3_4 
REMARK       I    between atoms: C10_18  and  N1_8 
REMARK    3  A    between atoms: C3_11  and  N1_8 
REMARK    4  A    between atoms: C13_21  and  C2_10 
REMARK    5  A    between atoms: C10_18  and  C6_14 
ROOT
HETATM    1  O4  UNK     1      21.314  -4.642  37.205  1.00  0.00    -0.267 OA
HETATM    2  N1  UNK     1      19.746  -5.605  35.729  1.00  0.00    -0.316 N 
HETATM    3  C10 UNK     1      20.397  -4.573  36.389  1.00  0.00     0.262 C 
HETATM    4  H1  UNK     1      18.985  -5.391  35.090  1.00  0.00     0.169 HD
ENDROOT
BRANCH   3   5
HETATM    5  C6  UNK     1      19.865  -3.259  36.008  1.00  0.00     0.108 A 
HETATM    6  C15 UNK     1      20.128  -2.660  34.680  1.00  0.00     0.304 A 
HETATM    7  O1  UNK     1      19.567  -1.408  34.438  1.00  0.00    -0.271 OA
HETATM    8  O6  UNK     1      20.804  -3.232  33.833  1.00  0.00    -0.259 OA
HETATM    9  C7  UNK     1      18.788  -0.743  35.404  1.00  0.00     0.123 A 
HETATM   10  C12 UNK     1      18.270   0.507  35.069  1.00  0.00     0.102 A 
HETATM   11  C5  UNK     1      18.555  -1.324  36.646  1.00  0.00     0.002 A 
HETATM   12  C16 UNK     1      17.497   1.191  36.005  1.00  0.00     0.040 A 
HETATM   13  C17 UNK     1      17.252   0.623  37.257  1.00  0.00     0.004 A 
HETATM   14  C14 UNK     1      17.779  -0.631  37.579  1.00  0.00     0.014 A 
HETATM   15  C9  UNK     1      19.126  -2.631  36.930  1.00  0.00     0.037 A 
BRANCH  10  16
HETATM   16  O2  UNK     1      18.506   1.063  33.851  1.00  0.00    -0.353 OA
HETATM   17  C18 UNK     1      18.168   2.440  33.687  1.00  0.00     0.210 C 
ENDBRANCH  10  16
ENDBRANCH   3   5
BRANCH   2  18
HETATM   18  C3  UNK     1      20.012  -6.971  35.868  1.00  0.00     0.094 A 
HETATM   19  C2  UNK     1      19.585  -7.862  36.801  1.00  0.00     0.080 A 
HETATM   20  C1  UNK     1      20.111  -9.161  36.549  1.00  0.00    -0.030 A 
HETATM   21  C4  UNK     1      20.916  -9.186  35.431  1.00  0.00    -0.012 A 
HETATM   22  C8  UNK     1      19.827 -10.351  37.390  1.00  0.00     0.050 C 
HETATM   23  C11 UNK     1      21.644 -10.328  34.835  1.00  0.00     0.057 C 
HETATM   24  S1  UNK     1      21.034  -7.646  34.690  1.00  0.00    -0.076 SA
BRANCH  19  25
HETATM   25  C13 UNK     1      18.711  -7.510  37.892  1.00  0.00     0.296 C 
HETATM   26  O5  UNK     1      17.587  -7.007  37.744  1.00  0.00    -0.259 OA
BRANCH  25  27
HETATM   27  O3  UNK     1      19.235  -7.782  39.137  1.00  0.00    -0.322 OA
HETATM   28  C19 UNK     1      20.390  -7.032  39.530  1.00  0.00     0.213 C 
ENDBRANCH  25  27
ENDBRANCH  19  25
ENDBRANCH   2  18
TORSDOF 5
ENDMDL
MODEL 4
REMARK VINA RESULT:      -9.1     18.955     20.916
REMARK  5 active torsions:
REMARK  status: ('A' for Active; 'I' for Inactive)
REMARK    1  A    between atoms: C12_20  and  O2_3 
REMARK    2  A    between atoms: C13_21  and  O3_4 
REMARK       I    between atoms: C10_18  and  N1_8 
REMARK    3  A    between atoms: C3_11  and  N1_8 
REMARK    4  A    between atoms: C13_21  and  C2_10 
REMARK    5  A    between atoms: C10_18  and  C6_14 
ROOT
HETATM    1  O4  UNK     1      17.844  -2.479  16.061  1.00  0.00    -0.267 OA
HETATM    2  N1  UNK     1      19.711  -1.734  14.825  1.00  0.00    -0.316 N 
HETATM    3  C10 UNK     1      18.773  -1.701  15.847  1.00  0.00     0.262 C 
HETATM    4  H1  UNK     1      20.414  -1.003  14.767  1.00  0.00     0.169 HD
ENDROOT
BRANCH   3   5
HETATM    5  C6  UNK     1      18.984  -0.561  16.747  1.00  0.00     0.108 A 
HETATM    6  C15 UNK     1      19.175   0.816  16.239  1.00  0.00     0.304 A 
HETATM    7  O1  UNK     1      19.365   1.813  17.193  1.00  0.00    -0.271 OA
HETATM    8  O6  UNK     1      19.166   1.072  15.040  1.00  0.00    -0.259 OA
HETATM    9  C7  UNK     1      19.377   1.529  18.572  1.00  0.00     0.123 A 
HETATM   10  C12 UNK     1      19.575   2.593  19.450  1.00  0.00     0.102 A 
HETATM   11  C5  UNK     1      19.196   0.227  19.028  1.00  0.00     0.002 A 
HETATM   12  C16 UNK     1      19.593   2.343  20.821  1.00  0.00     0.040 A 
HETATM   13  C17 UNK     1      19.414   1.043  21.297  1.00  0.00     0.004 A 
HETATM   14  C14 UNK     1      19.216  -0.015  20.404  1.00  0.00     0.014 A 
HETATM   15  C9  UNK     1      18.994  -0.837  18.057  1.00  0.00     0.037 A 
BRANCH  10  16
HETATM   16  O2  UNK     1      19.750   3.860  18.991  1.00  0.00    -0.353 OA
HETATM   17  C18 UNK     1      21.065   4.225  18.572  1.00  0.00     0.210 C 
ENDBRANCH  10  16
ENDBRANCH   3   5
BRANCH   2  18
HETATM   18  C3  UNK     1      19.786  -2.688  13.804  1.00  0.00     0.094 A 
HETATM   19  C2  UNK     1      20.227  -3.972  13.829  1.00  0.00     0.080 A 
HETATM   20  C1  UNK     1      20.118  -4.577  12.544  1.00  0.00    -0.030 A 
HETATM   21  C4  UNK     1      19.597  -3.712  11.607  1.00  0.00    -0.012 A 
HETATM   22  C8  UNK     1      20.518  -5.975  12.246  1.00  0.00     0.050 C 
HETATM   23  C11 UNK     1      19.325  -3.950  10.172  1.00  0.00     0.057 C 
HETATM   24  S1  UNK     1      19.240  -2.177  12.278  1.00  0.00    -0.076 SA
BRANCH  19  25
HETATM   25  C13 UNK     1      20.734  -4.615  15.016  1.00  0.00     0.296 C 
HETATM   26  O5  UNK     1      20.128  -5.504  15.633  1.00  0.00    -0.259 OA
BRANCH  25  27
HETATM   27  O3  UNK     1      21.968  -4.152  15.418  1.00  0.00    -0.322 OA
HETATM   28  C19 UNK     1      22.081  -3.709  16.775  1.00  0.00     0.213 C 
ENDBRANCH  25  27
ENDBRANCH  19  25
ENDBRANCH   2  18
TORSDOF 5
ENDMDL
MODEL 5
REMARK VINA RESULT:      -8.9      6.361     12.060
REMARK  5 active torsions:
REMARK  status: ('A' for Active; 'I' for Inactive)
REMARK    1  A    between atoms: C12_20  and  O2_3 
REMARK    2  A    between atoms: C13_21  and  O3_4 
REMARK       I    between atoms: C10_18  and  N1_8 
REMARK    3  A    between atoms: C3_11  and  N1_8 
REMARK    4  A    between atoms: C13_21  and  C2_10 
REMARK    5  A    between atoms: C10_18  and  C6_14 
ROOT
HETATM    1  O4  UNK     1      18.578   5.163  30.421  1.00  0.00    -0.267 OA
HETATM    2  N1  UNK     1      17.553   4.958  32.536  1.00  0.00    -0.316 N 
HETATM    3  C10 UNK     1      18.232   4.518  31.409  1.00  0.00     0.262 C 
HETATM    4  H1  UNK     1      17.317   4.296  33.270  1.00  0.00     0.169 HD
ENDROOT
BRANCH   3   5
HETATM    5  C6  UNK     1      18.543   3.085  31.483  1.00  0.00     0.108 A 
HETATM    6  C15 UNK     1      18.345   2.301  32.723  1.00  0.00     0.304 A 
HETATM    7  O1  UNK     1      18.676   0.949  32.667  1.00  0.00    -0.271 OA
HETATM    8  O6  UNK     1      17.912   2.811  33.750  1.00  0.00    -0.259 OA
HETATM    9  C7  UNK     1      19.174   0.355  31.492  1.00  0.00     0.123 A 
HETATM   10  C12 UNK     1      19.477  -1.005  31.534  1.00  0.00     0.102 A 
HETATM   11  C5  UNK     1      19.353   1.110  30.338  1.00  0.00     0.002 A 
HETATM   12  C16 UNK     1      19.974  -1.622  30.388  1.00  0.00     0.040 A 
HETATM   13  C17 UNK     1      20.160  -0.880  29.219  1.00  0.00     0.004 A 
HETATM   14  C14 UNK     1      19.851   0.484  29.193  1.00  0.00     0.014 A 
HETATM   15  C9  UNK     1      19.016   2.525  30.364  1.00  0.00     0.037 A 
BRANCH  10  16
HETATM   16  O2  UNK     1      19.297  -1.731  32.669  1.00  0.00    -0.353 OA
HETATM   17  C18 UNK     1      20.434  -2.420  33.189  1.00  0.00     0.210 C 
ENDBRANCH  10  16
ENDBRANCH   3   5
BRANCH   2  18
HETATM   18  C3  UNK     1      17.112   6.264  32.776  1.00  0.00     0.094 A 
HETATM   19  C2  UNK     1      17.763   7.329  33.311  1.00  0.00     0.080 A 
HETATM   20  C1  UNK     1      16.917   8.473  33.365  1.00  0.00    -0.030 A 
HETATM   21  C4  UNK     1      15.660   8.212  32.865  1.00  0.00    -0.012 A 
HETATM   22  C8  UNK     1      17.337   9.795  33.896  1.00  0.00     0.050 C 
HETATM   23  C11 UNK     1      14.500   9.123  32.743  1.00  0.00     0.057 C 
HETATM   24  S1  UNK     1      15.505   6.592  32.333  1.00  0.00    -0.076 SA
BRANCH  19  25
HETATM   25  C13 UNK     1      19.134   7.280  33.757  1.00  0.00     0.296 C 
HETATM   26  O5  UNK     1      19.475   7.316  34.948  1.00  0.00    -0.259 OA
BRANCH  25  27
HETATM   27  O3  UNK     1      20.051   7.191  32.732  1.00  0.00    -0.322 OA
HETATM   28  C19 UNK     1      21.118   6.251  32.900  1.00  0.00     0.213 C 
ENDBRANCH  25  27
ENDBRANCH  19  25
ENDBRANCH   2  18
TORSDOF 5
ENDMDL
MODEL 6
REMARK VINA RESULT:      -8.9     19.204     21.169
REMARK  5 active torsions:
REMARK  status: ('A' for Active; 'I' for Inactive)
REMARK    1  A    between atoms: C12_20  and  O2_3 
REMARK    2  A    between atoms: C13_21  and  O3_4 
REMARK       I    between atoms: C10_18  and  N1_8 
REMARK    3  A    between atoms: C3_11  and  N1_8 
REMARK    4  A    between atoms: C13_21  and  C2_10 
REMARK    5  A    between atoms: C10_18  and  C6_14 
ROOT
HETATM    1  O4  UNK     1      17.681  -2.394  15.961  1.00  0.00    -0.267 OA
HETATM    2  N1  UNK     1      19.949  -2.207  15.339  1.00  0.00    -0.316 N 
HETATM    3  C10 UNK     1      18.784  -1.852  16.004  1.00  0.00     0.262 C 
HETATM    4  H1  UNK     1      20.787  -1.645  15.461  1.00  0.00     0.169 HD
ENDROOT
BRANCH   3   5
HETATM    5  C6  UNK     1      18.975  -0.667  16.849  1.00  0.00     0.108 A 
HETATM    6  C15 UNK     1      19.141   0.687  16.276  1.00  0.00     0.304 A 
HETATM    7  O1  UNK     1      19.314   1.732  17.182  1.00  0.00    -0.271 OA
HETATM    8  O6  UNK     1      19.127   0.886  15.066  1.00  0.00    -0.259 OA
HETATM    9  C7  UNK     1      19.331   1.514  18.572  1.00  0.00     0.123 A 
HETATM   10  C12 UNK     1      19.511   2.622  19.398  1.00  0.00     0.102 A 
HETATM   11  C5  UNK     1      19.174   0.232  19.090  1.00  0.00     0.002 A 
HETATM   12  C16 UNK     1      19.534   2.438  20.779  1.00  0.00     0.040 A 
HETATM   13  C17 UNK     1      19.378   1.159  21.317  1.00  0.00     0.004 A 
HETATM   14  C14 UNK     1      19.198   0.057  20.476  1.00  0.00     0.014 A 
HETATM   15  C9  UNK     1      18.990  -0.880  18.170  1.00  0.00     0.037 A 
BRANCH  10  16
HETATM   16  O2  UNK     1      19.663   3.869  18.879  1.00  0.00    -0.353 OA
HETATM   17  C18 UNK     1      20.986   4.268  18.521  1.00  0.00     0.210 C 
ENDBRANCH  10  16
ENDBRANCH   3   5
BRANCH   2  18
HETATM   18  C3  UNK     1      20.101  -3.284  14.460  1.00  0.00     0.094 A 
HETATM   19  C2  UNK     1      20.065  -3.326  13.103  1.00  0.00     0.080 A 
HETATM   20  C1  UNK     1      20.274  -4.651  12.625  1.00  0.00    -0.030 A 
HETATM   21  C4  UNK     1      20.458  -5.550  13.652  1.00  0.00    -0.012 A 
HETATM   22  C8  UNK     1      20.292  -5.023  11.188  1.00  0.00     0.050 C 
HETATM   23  C11 UNK     1      20.704  -7.007  13.580  1.00  0.00     0.057 C 
HETATM   24  S1  UNK     1      20.379  -4.794  15.187  1.00  0.00    -0.076 SA
BRANCH  19  25
HETATM   25  C13 UNK     1      19.844  -2.163  12.279  1.00  0.00     0.296 C 
HETATM   26  O5  UNK     1      18.727  -1.801  11.880  1.00  0.00    -0.259 OA
BRANCH  25  27
HETATM   27  O3  UNK     1      20.995  -1.475  11.963  1.00  0.00    -0.322 OA
HETATM   28  C19 UNK     1      21.391  -1.475  10.587  1.00  0.00     0.213 C 
ENDBRANCH  25  27
ENDBRANCH  19  25
ENDBRANCH   2  18
TORSDOF 5
ENDMDL
MODEL 7
REMARK VINA RESULT:      -8.7      6.836     10.072
REMARK  5 active torsions:
REMARK  status: ('A' for Active; 'I' for Inactive)
REMARK    1  A    between atoms: C12_20  and  O2_3 
REMARK    2  A    between atoms: C13_21  and  O3_4 
REMARK       I    between atoms: C10_18  and  N1_8 
REMARK    3  A    between atoms: C3_11  and  N1_8 
REMARK    4  A    between atoms: C13_21  and  C2_10 
REMARK    5  A    between atoms: C10_18  and  C6_14 
ROOT
HETATM    1  O4  UNK     1      19.762   5.167  31.370  1.00  0.00    -0.267 OA
HETATM    2  N1  UNK     1      18.034   3.747  32.121  1.00  0.00    -0.316 N 
HETATM    3  C10 UNK     1      18.694   4.955  31.941  1.00  0.00     0.262 C 
HETATM    4  H1  UNK     1      17.159   3.726  32.637  1.00  0.00     0.169 HD
ENDROOT
BRANCH   3   5
HETATM    5  C6  UNK     1      17.956   6.075  32.538  1.00  0.00     0.108 A 
HETATM    6  C15 UNK     1      18.608   7.055  33.435  1.00  0.00     0.304 A 
HETATM    7  O1  UNK     1      17.802   8.075  33.937  1.00  0.00    -0.271 OA
HETATM    8  O6  UNK     1      19.797   6.979  33.725  1.00  0.00    -0.259 OA
HETATM    9  C7  UNK     1      16.436   8.171  33.610  1.00  0.00     0.123 A 
HETATM   10  C12 UNK     1      15.712   9.226  34.162  1.00  0.00     0.102 A 
HETATM   11  C5  UNK     1      15.843   7.238  32.765  1.00  0.00     0.002 A 
HETATM   12  C16 UNK     1      14.357   9.347  33.859  1.00  0.00     0.040 A 
HETATM   13  C17 UNK     1      13.745   8.420  33.012  1.00  0.00     0.004 A 
HETATM   14  C14 UNK     1      14.485   7.367  32.466  1.00  0.00     0.014 A 
HETATM   15  C9  UNK     1      16.658   6.162  32.223  1.00  0.00     0.037 A 
BRANCH  10  16
HETATM   16  O2  UNK     1      16.304  10.131  34.986  1.00  0.00    -0.353 OA
HETATM   17  C18 UNK     1      15.839  11.478  34.914  1.00  0.00     0.210 C 
ENDBRANCH  10  16
ENDBRANCH   3   5
BRANCH   2  18
HETATM   18  C3  UNK     1      18.470   2.495  31.675  1.00  0.00     0.094 A 
HETATM   19  C2  UNK     1      18.581   1.314  32.337  1.00  0.00     0.080 A 
HETATM   20  C1  UNK     1      19.072   0.290  31.478  1.00  0.00    -0.030 A 
HETATM   21  C4  UNK     1      19.309   0.752  30.202  1.00  0.00    -0.012 A 
HETATM   22  C8  UNK     1      19.303  -1.114  31.905  1.00  0.00     0.050 C 
HETATM   23  C11 UNK     1      19.815   0.013  29.024  1.00  0.00     0.057 C 
HETATM   24  S1  UNK     1      18.939   2.416  30.044  1.00  0.00    -0.076 SA
BRANCH  19  25
HETATM   25  C13 UNK     1      18.239   1.148  33.728  1.00  0.00     0.296 C 
HETATM   26  O5  UNK     1      19.073   0.994  34.632  1.00  0.00    -0.259 OA
BRANCH  25  27
HETATM   27  O3  UNK     1      16.883   1.173  33.975  1.00  0.00    -0.322 OA
HETATM   28  C19 UNK     1      16.395   0.288  34.991  1.00  0.00     0.213 C 
ENDBRANCH  25  27
ENDBRANCH  19  25
ENDBRANCH   2  18
TORSDOF 5
ENDMDL
MODEL 8
REMARK VINA RESULT:      -8.3      6.388     12.166
REMARK  5 active torsions:
REMARK  status: ('A' for Active; 'I' for Inactive)
REMARK    1  A    between atoms: C12_20  and  O2_3 
REMARK    2  A    between atoms: C13_21  and  O3_4 
REMARK       I    between atoms: C10_18  and  N1_8 
REMARK    3  A    between atoms: C3_11  and  N1_8 
REMARK    4  A    between atoms: C13_21  and  C2_10 
REMARK    5  A    between atoms: C10_18  and  C6_14 
ROOT
HETATM    1  O4  UNK     1      18.448   5.735  31.468  1.00  0.00    -0.267 OA
HETATM    2  N1  UNK     1      17.857   6.068  33.728  1.00  0.00    -0.316 N 
HETATM    3  C10 UNK     1      18.190   5.330  32.601  1.00  0.00     0.262 C 
HETATM    4  H1  UNK     1      17.649   5.586  34.598  1.00  0.00     0.169 HD
ENDROOT
BRANCH   3   5
HETATM    5  C6  UNK     1      18.217   3.889  32.878  1.00  0.00     0.108 A 
HETATM    6  C15 UNK     1      18.156   2.880  31.797  1.00  0.00     0.304 A 
HETATM    7  O1  UNK     1      18.191   1.543  32.187  1.00  0.00    -0.271 OA
HETATM    8  O6  UNK     1      18.079   3.199  30.616  1.00  0.00    -0.259 OA
HETATM    9  C7  UNK     1      18.280   1.167  33.541  1.00  0.00     0.123 A 
HETATM   10  C12 UNK     1      18.308  -0.196  33.833  1.00  0.00     0.102 A 
HETATM   11  C5  UNK     1      18.335   2.132  34.542  1.00  0.00     0.002 A 
HETATM   12  C16 UNK     1      18.393  -0.599  35.164  1.00  0.00     0.040 A 
HETATM   13  C17 UNK     1      18.450   0.355  36.182  1.00  0.00     0.004 A 
HETATM   14  C14 UNK     1      18.421   1.719  35.873  1.00  0.00     0.014 A 
HETATM   15  C9  UNK     1      18.302   3.537  34.166  1.00  0.00     0.037 A 
BRANCH  10  16
HETATM   16  O2  UNK     1      18.253  -1.128  32.846  1.00  0.00    -0.353 OA
HETATM   17  C18 UNK     1      19.496  -1.603  32.329  1.00  0.00     0.210 C 
ENDBRANCH  10  16
ENDBRANCH   3   5
BRANCH   2  18
HETATM   18  C3  UNK     1      17.745   7.460  33.799  1.00  0.00     0.094 A 
HETATM   19  C2  UNK     1      16.649   8.260  33.742  1.00  0.00     0.080 A 
HETATM   20  C1  UNK     1      17.008   9.633  33.859  1.00  0.00    -0.030 A 
HETATM   21  C4  UNK     1      18.368   9.802  34.000  1.00  0.00    -0.012 A 
HETATM   22  C8  UNK     1      16.034  10.753  33.834  1.00  0.00     0.050 C 
HETATM   23  C11 UNK     1      19.138  11.057  34.151  1.00  0.00     0.057 C 
HETATM   24  S1  UNK     1      19.205   8.308  33.990  1.00  0.00    -0.076 SA
BRANCH  19  25
HETATM   25  C13 UNK     1      15.306   7.757  33.584  1.00  0.00     0.296 C 
HETATM   26  O5  UNK     1      14.409   7.906  34.426  1.00  0.00    -0.259 OA
BRANCH  25  27
HETATM   27  O3  UNK     1      15.098   7.083  32.400  1.00  0.00    -0.322 OA
HETATM   28  C19 UNK     1      13.777   7.136  31.849  1.00  0.00     0.213 C 
ENDBRANCH  25  27
ENDBRANCH  19  25
ENDBRANCH   2  18
TORSDOF 5
ENDMDL
MODEL 9
REMARK VINA RESULT:      -8.2      1.701      2.706
REMARK  5 active torsions:
REMARK  status: ('A' for Active; 'I' for Inactive)
REMARK    1  A    between atoms: C12_20  and  O2_3 
REMARK    2  A    between atoms: C13_21  and  O3_4 
REMARK       I    between atoms: C10_18  and  N1_8 
REMARK    3  A    between atoms: C3_11  and  N1_8 
REMARK    4  A    between atoms: C13_21  and  C2_10 
REMARK    5  A    between atoms: C10_18  and  C6_14 
ROOT
HETATM    1  O4  UNK     1      20.155  -5.016  35.097  1.00  0.00    -0.267 OA
HETATM    2  N1  UNK     1      19.734  -4.834  37.411  1.00  0.00    -0.316 N 
HETATM    3  C10 UNK     1      19.844  -4.382  36.104  1.00  0.00     0.262 C 
HETATM    4  H1  UNK     1      19.483  -4.180  38.148  1.00  0.00     0.169 HD
ENDROOT
BRANCH   3   5
HETATM    5  C6  UNK     1      19.531  -2.952  35.990  1.00  0.00     0.108 A 
HETATM    6  C15 UNK     1      20.010  -2.131  34.856  1.00  0.00     0.304 A 
HETATM    7  O1  UNK     1      19.645  -0.787  34.861  1.00  0.00    -0.271 OA
HETATM    8  O6  UNK     1      20.693  -2.605  33.955  1.00  0.00    -0.259 OA
HETATM    9  C7  UNK     1      18.861  -0.233  35.891  1.00  0.00     0.123 A 
HETATM   10  C12 UNK     1      18.548   1.123  35.808  1.00  0.00     0.102 A 
HETATM   11  C5  UNK     1      18.422  -1.023  36.948  1.00  0.00     0.002 A 
HETATM   12  C16 UNK     1      17.775   1.700  36.813  1.00  0.00     0.040 A 
HETATM   13  C17 UNK     1      17.325   0.922  37.883  1.00  0.00     0.004 A 
HETATM   14  C14 UNK     1      17.647  -0.437  37.952  1.00  0.00     0.014 A 
HETATM   15  C9  UNK     1      18.785  -2.432  36.972  1.00  0.00     0.037 A 
BRANCH  10  16
HETATM   16  O2  UNK     1      18.984   1.883  34.769  1.00  0.00    -0.353 OA
HETATM   17  C18 UNK     1      18.055   2.140  33.716  1.00  0.00     0.210 C 
ENDBRANCH  10  16
ENDBRANCH   3   5
BRANCH   2  18
HETATM   18  C3  UNK     1      19.965  -6.140  37.855  1.00  0.00     0.094 A 
HETATM   19  C2  UNK     1      21.082  -6.708  38.379  1.00  0.00     0.080 A 
HETATM   20  C1  UNK     1      20.861  -8.078  38.696  1.00  0.00    -0.030 A 
HETATM   21  C4  UNK     1      19.578  -8.480  38.391  1.00  0.00    -0.012 A 
HETATM   22  C8  UNK     1      21.888  -8.973  39.286  1.00  0.00     0.050 C 
HETATM   23  C11 UNK     1      18.954  -9.810  38.567  1.00  0.00     0.057 C 
HETATM   24  S1  UNK     1      18.648  -7.205  37.727  1.00  0.00    -0.076 SA
BRANCH  19  25
HETATM   25  C13 UNK     1      22.318  -5.991  38.580  1.00  0.00     0.296 C 
HETATM   26  O5  UNK     1      22.613  -4.943  37.988  1.00  0.00    -0.259 OA
BRANCH  25  27
HETATM   27  O3  UNK     1      23.160  -6.577  39.500  1.00  0.00    -0.322 OA
HETATM   28  C19 UNK     1      24.542  -6.674  39.142  1.00  0.00     0.213 C 
ENDBRANCH  25  27
ENDBRANCH  19  25
ENDBRANCH   2  18
TORSDOF 5
ENDMDL
MODEL 10
REMARK VINA RESULT:      -8.2      2.804      8.263
REMARK  5 active torsions:
REMARK  status: ('A' for Active; 'I' for Inactive)
REMARK    1  A    between atoms: C12_20  and  O2_3 
REMARK    2  A    between atoms: C13_21  and  O3_4 
REMARK       I    between atoms: C10_18  and  N1_8 
REMARK    3  A    between atoms: C3_11  and  N1_8 
REMARK    4  A    between atoms: C13_21  and  C2_10 
REMARK    5  A    between atoms: C10_18  and  C6_14 
ROOT
HETATM    1  O4  UNK     1      18.281  -5.237  36.594  1.00  0.00    -0.267 OA
HETATM    2  N1  UNK     1      20.063  -3.702  36.400  1.00  0.00    -0.316 N 
HETATM    3  C10 UNK     1      19.477  -4.950  36.560  1.00  0.00     0.262 C 
HETATM    4  H1  UNK     1      21.076  -3.619  36.412  1.00  0.00     0.169 HD
ENDROOT
BRANCH   3   5
HETATM    5  C6  UNK     1      20.481  -6.012  36.699  1.00  0.00     0.108 A 
HETATM    6  C15 UNK     1      21.601  -5.912  37.661  1.00  0.00     0.304 A 
HETATM    7  O1  UNK     1      22.488  -6.986  37.701  1.00  0.00    -0.271 OA
HETATM    8  O6  UNK     1      21.747  -4.936  38.389  1.00  0.00    -0.259 OA
HETATM    9  C7  UNK     1      22.330  -8.111  36.870  1.00  0.00     0.123 A 
HETATM   10  C12 UNK     1      23.269  -9.135  36.982  1.00  0.00     0.102 A 
HETATM   11  C5  UNK     1      21.270  -8.184  35.972  1.00  0.00     0.002 A 
HETATM   12  C16 UNK     1      23.140 -10.261  36.171  1.00  0.00     0.040 A 
HETATM   13  C17 UNK     1      22.082 -10.352  35.264  1.00  0.00     0.004 A 
HETATM   14  C14 UNK     1      21.148  -9.316  35.163  1.00  0.00     0.014 A 
HETATM   15  C9  UNK     1      20.325  -7.079  35.907  1.00  0.00     0.037 A 
BRANCH  10  16
HETATM   16  O2  UNK     1      24.300  -9.050  37.863  1.00  0.00    -0.353 OA
HETATM   17  C18 UNK     1      25.621  -9.079  37.324  1.00  0.00     0.210 C 
ENDBRANCH  10  16
ENDBRANCH   3   5
BRANCH   2  18
HETATM   18  C3  UNK     1      19.387  -2.488  36.243  1.00  0.00     0.094 A 
HETATM   19  C2  UNK     1      19.293  -1.665  35.166  1.00  0.00     0.080 A 
HETATM   20  C1  UNK     1      18.491  -0.525  35.460  1.00  0.00    -0.030 A 
HETATM   21  C4  UNK     1      18.017  -0.545  36.754  1.00  0.00    -0.012 A 
HETATM   22  C8  UNK     1      18.198   0.559  34.489  1.00  0.00     0.050 C 
HETATM   23  C11 UNK     1      17.158   0.442  37.444  1.00  0.00     0.057 C 
HETATM   24  S1  UNK     1      18.539  -1.935  37.607  1.00  0.00    -0.076 SA
BRANCH  19  25
HETATM   25  C13 UNK     1      19.931  -1.936  33.901  1.00  0.00     0.296 C 
HETATM   26  O5  UNK     1      21.106  -2.314  33.787  1.00  0.00    -0.259 OA
BRANCH  25  27
HETATM   27  O3  UNK     1      19.114  -1.735  32.810  1.00  0.00    -0.322 OA
HETATM   28  C19 UNK     1      19.751  -1.336  31.591  1.00  0.00     0.213 C 
ENDBRANCH  25  27
ENDBRANCH  19  25
ENDBRANCH   2  18
TORSDOF 5
ENDMDL
