MODEL 1
REMARK VINA RESULT:      -9.5      0.000      0.000
REMARK  2 active torsions:
REMARK  status: ('A' for Active; 'I' for Inactive)
REMARK       I    between atoms: C11_16  and  N1_5 
REMARK    1  A    between atoms: C4_9  and  N1_5 
REMARK    2  A    between atoms: C11_16  and  C12_17 
ROOT
HETATM    1  O1  UNK     1      16.628   7.850  32.666  1.00  0.00    -0.275 OA
HETATM    2  O2  UNK     1      15.432   9.604  33.519  1.00  0.00    -0.260 OA
HETATM    3  C1  UNK     1      19.015   7.680  33.156  1.00  0.00     0.004 A 
HETATM    4  C2  UNK     1      17.863   7.187  32.540  1.00  0.00     0.092 A 
HETATM    5  C3  UNK     1      18.916   8.916  33.945  1.00  0.00    -0.043 A 
HETATM    6  C4  UNK     1      19.062   5.320  31.613  1.00  0.00     0.037 A 
HETATM    7  C5  UNK     1      17.871   6.019  31.773  1.00  0.00     0.067 A 
HETATM    8  C6  UNK     1      20.205   6.962  32.983  1.00  0.00     0.017 A 
HETATM    9  C7  UNK     1      20.228   5.790  32.217  1.00  0.00     0.030 A 
HETATM   10  C8  UNK     1      17.725   9.527  34.047  1.00  0.00     0.090 A 
HETATM   11  C9  UNK     1      20.134   9.474  34.619  1.00  0.00     0.049 C 
HETATM   12  C10 UNK     1      16.503   9.018  33.403  1.00  0.00     0.288 A 
ENDROOT
BRANCH   6  13
HETATM   13  N1  UNK     1      19.092   4.151  30.853  1.00  0.00    -0.323 N 
HETATM   14  C11 UNK     1      18.472   2.951  31.178  1.00  0.00     0.256 C 
HETATM   15  O3  UNK     1      17.799   2.694  32.170  1.00  0.00    -0.267 OA
HETATM   16  H5  UNK     1      19.577   4.243  29.965  1.00  0.00     0.169 HD
BRANCH  14  17
HETATM   17  C12 UNK     1      18.642   1.875  30.166  1.00  0.00     0.033 A 
HETATM   18  C13 UNK     1      19.442   0.795  30.470  1.00  0.00     0.036 A 
HETATM   19  C15 UNK     1      19.601  -0.213  29.520  1.00  0.00     0.011 A 
HETATM   20 Br1  UNK     1      20.691  -1.710  29.901  1.00  0.00    -0.051 Br
HETATM   21  C17 UNK     1      18.955  -0.117  28.287  1.00  0.00     0.019 A 
HETATM   22  C16 UNK     1      18.152   0.987  28.005  1.00  0.00     0.002 A 
HETATM   23  C14 UNK     1      17.993   1.995  28.956  1.00  0.00     0.017 A 
ENDBRANCH  14  17
ENDBRANCH   6  13
TORSDOF 2
ENDMDL
MODEL 2
REMARK VINA RESULT:      -9.1      9.856     13.959
REMARK  2 active torsions:
REMARK  status: ('A' for Active; 'I' for Inactive)
REMARK       I    between atoms: C11_16  and  N1_5 
REMARK    1  A    between atoms: C4_9  and  N1_5 
REMARK    2  A    between atoms: C11_16  and  C12_17 
ROOT
HETATM    1  O1  UNK     1      19.104  -8.936  38.348  1.00  0.00    -0.275 OA
HETATM    2  O2  UNK     1      19.179 -11.037  39.249  1.00  0.00    -0.260 OA
HETATM    3  C1  UNK     1      20.280  -8.491  36.253  1.00  0.00     0.004 A 
HETATM    4  C2  UNK     1      19.484  -8.057  37.316  1.00  0.00     0.092 A 
HETATM    5  C3  UNK     1      20.719  -9.893  36.231  1.00  0.00    -0.043 A 
HETATM    6  C4  UNK     1      19.366  -5.828  36.422  1.00  0.00     0.037 A 
HETATM    7  C5  UNK     1      19.024  -6.742  37.413  1.00  0.00     0.067 A 
HETATM    8  C6  UNK     1      20.613  -7.556  35.265  1.00  0.00     0.017 A 
HETATM    9  C7  UNK     1      20.159  -6.233  35.350  1.00  0.00     0.030 A 
HETATM   10  C8  UNK     1      20.342 -10.708  37.228  1.00  0.00     0.090 A 
HETATM   11  C9  UNK     1      21.575 -10.391  35.104  1.00  0.00     0.049 C 
HETATM   12  C10 UNK     1      19.504 -10.264  38.354  1.00  0.00     0.288 A 
ENDROOT
BRANCH   6  13
HETATM   13  N1  UNK     1      18.916  -4.510  36.500  1.00  0.00    -0.323 N 
HETATM   14  C11 UNK     1      19.716  -3.374  36.515  1.00  0.00     0.256 C 
HETATM   15  O3  UNK     1      20.939  -3.313  36.466  1.00  0.00    -0.267 OA
HETATM   16  H5  UNK     1      17.905  -4.414  36.490  1.00  0.00     0.169 HD
BRANCH  14  17
HETATM   17  C12 UNK     1      18.966  -2.092  36.570  1.00  0.00     0.033 A 
HETATM   18  C13 UNK     1      18.947  -1.284  35.453  1.00  0.00     0.036 A 
HETATM   19  C15 UNK     1      18.244  -0.081  35.505  1.00  0.00     0.011 A 
HETATM   20 Br1  UNK     1      18.195   1.053  33.994  1.00  0.00    -0.051 Br
HETATM   21  C17 UNK     1      17.575   0.286  36.673  1.00  0.00     0.019 A 
HETATM   22  C16 UNK     1      17.611  -0.550  37.789  1.00  0.00     0.002 A 
HETATM   23  C14 UNK     1      18.315  -1.754  37.736  1.00  0.00     0.017 A 
ENDBRANCH  14  17
ENDBRANCH   6  13
TORSDOF 2
ENDMDL
MODEL 3
REMARK VINA RESULT:      -9.1      3.293      8.282
REMARK  2 active torsions:
REMARK  status: ('A' for Active; 'I' for Inactive)
REMARK       I    between atoms: C11_16  and  N1_5 
REMARK    1  A    between atoms: C4_9  and  N1_5 
REMARK    2  A    between atoms: C11_16  and  C12_17 
ROOT
HETATM    1  O1  UNK     1      19.265  -0.231  32.750  1.00  0.00    -0.275 OA
HETATM    2  O2  UNK     1      19.957  -2.359  33.221  1.00  0.00    -0.260 OA
HETATM    3  C1  UNK     1      19.360   0.575  30.446  1.00  0.00     0.004 A 
HETATM    4  C2  UNK     1      19.059   0.782  31.794  1.00  0.00     0.092 A 
HETATM    5  C3  UNK     1      19.900  -0.729  30.039  1.00  0.00    -0.043 A 
HETATM    6  C4  UNK     1      18.317   3.029  31.366  1.00  0.00     0.037 A 
HETATM    7  C5  UNK     1      18.542   1.991  32.264  1.00  0.00     0.067 A 
HETATM    8  C6  UNK     1      19.125   1.631  29.557  1.00  0.00     0.017 A 
HETATM    9  C7  UNK     1      18.607   2.850  30.014  1.00  0.00     0.030 A 
HETATM   10  C8  UNK     1      20.086  -1.675  30.972  1.00  0.00     0.090 A 
HETATM   11  C9  UNK     1      20.234  -0.985  28.598  1.00  0.00     0.049 C 
HETATM   12  C10 UNK     1      19.774  -1.471  32.396  1.00  0.00     0.288 A 
ENDROOT
BRANCH   6  13
HETATM   13  N1  UNK     1      17.800   4.244  31.814  1.00  0.00    -0.323 N 
HETATM   14  C11 UNK     1      18.525   5.410  32.028  1.00  0.00     0.256 C 
HETATM   15  O3  UNK     1      19.727   5.590  31.869  1.00  0.00    -0.267 OA
HETATM   16  H5  UNK     1      16.791   4.249  31.934  1.00  0.00     0.169 HD
BRANCH  14  17
HETATM   17  C12 UNK     1      17.710   6.569  32.477  1.00  0.00     0.033 A 
HETATM   18  C13 UNK     1      16.338   6.498  32.372  1.00  0.00     0.036 A 
HETATM   19  C15 UNK     1      15.574   7.586  32.793  1.00  0.00     0.011 A 
HETATM   20 Br1  UNK     1      13.689   7.526  32.665  1.00  0.00    -0.051 Br
HETATM   21  C17 UNK     1      16.201   8.721  33.309  1.00  0.00     0.019 A 
HETATM   22  C16 UNK     1      17.592   8.766  33.404  1.00  0.00     0.002 A 
HETATM   23  C14 UNK     1      18.355   7.677  32.983  1.00  0.00     0.017 A 
ENDBRANCH  14  17
ENDBRANCH   6  13
TORSDOF 2
ENDMDL
MODEL 4
REMARK VINA RESULT:      -9.1      3.467      8.315
REMARK  2 active torsions:
REMARK  status: ('A' for Active; 'I' for Inactive)
REMARK       I    between atoms: C11_16  and  N1_5 
REMARK    1  A    between atoms: C4_9  and  N1_5 
REMARK    2  A    between atoms: C11_16  and  C12_17 
ROOT
HETATM    1  O1  UNK     1      19.235  -0.161  32.751  1.00  0.00    -0.275 OA
HETATM    2  O2  UNK     1      19.940  -2.285  33.220  1.00  0.00    -0.260 OA
HETATM    3  C1  UNK     1      19.319   0.646  30.447  1.00  0.00     0.004 A 
HETATM    4  C2  UNK     1      19.021   0.851  31.795  1.00  0.00     0.092 A 
HETATM    5  C3  UNK     1      19.866  -0.655  30.038  1.00  0.00    -0.043 A 
HETATM    6  C4  UNK     1      18.265   3.094  31.369  1.00  0.00     0.037 A 
HETATM    7  C5  UNK     1      18.498   2.057  32.267  1.00  0.00     0.067 A 
HETATM    8  C6  UNK     1      19.077   1.701  29.558  1.00  0.00     0.017 A 
HETATM    9  C7  UNK     1      18.553   2.916  30.017  1.00  0.00     0.030 A 
HETATM   10  C8  UNK     1      20.060  -1.600  30.971  1.00  0.00     0.090 A 
HETATM   11  C9  UNK     1      20.198  -0.909  28.597  1.00  0.00     0.049 C 
HETATM   12  C10 UNK     1      19.750  -1.398  32.396  1.00  0.00     0.288 A 
ENDROOT
BRANCH   6  13
HETATM   13  N1  UNK     1      17.742   4.306  31.820  1.00  0.00    -0.323 N 
HETATM   14  C11 UNK     1      18.468   5.464  32.071  1.00  0.00     0.256 C 
HETATM   15  O3  UNK     1      19.675   5.639  31.950  1.00  0.00    -0.267 OA
HETATM   16  H5  UNK     1      16.731   4.316  31.910  1.00  0.00     0.169 HD
BRANCH  14  17
HETATM   17  C12 UNK     1      17.647   6.622  32.512  1.00  0.00     0.033 A 
HETATM   18  C13 UNK     1      18.286   7.756  32.965  1.00  0.00     0.036 A 
HETATM   19  C15 UNK     1      17.516   8.842  33.380  1.00  0.00     0.011 A 
HETATM   20 Br1  UNK     1      18.356  10.414  34.008  1.00  0.00    -0.051 Br
HETATM   21  C17 UNK     1      16.123   8.768  33.331  1.00  0.00     0.019 A 
HETATM   22  C16 UNK     1      15.503   7.609  32.868  1.00  0.00     0.002 A 
HETATM   23  C14 UNK     1      16.274   6.523  32.454  1.00  0.00     0.017 A 
ENDBRANCH  14  17
ENDBRANCH   6  13
TORSDOF 2
ENDMDL
MODEL 5
REMARK VINA RESULT:      -9.0      1.546      2.279
REMARK  2 active torsions:
REMARK  status: ('A' for Active; 'I' for Inactive)
REMARK       I    between atoms: C11_16  and  N1_5 
REMARK    1  A    between atoms: C4_9  and  N1_5 
REMARK    2  A    between atoms: C11_16  and  C12_17 
ROOT
HETATM    1  O1  UNK     1      20.239   7.896  33.585  1.00  0.00    -0.275 OA
HETATM    2  O2  UNK     1      20.926   9.753  34.731  1.00  0.00    -0.260 OA
HETATM    3  C1  UNK     1      17.883   7.670  32.978  1.00  0.00     0.004 A 
HETATM    4  C2  UNK     1      19.190   7.177  32.981  1.00  0.00     0.092 A 
HETATM    5  C3  UNK     1      17.619   8.964  33.623  1.00  0.00    -0.043 A 
HETATM    6  C4  UNK     1      18.532   5.202  31.778  1.00  0.00     0.037 A 
HETATM    7  C5  UNK     1      19.527   5.957  32.391  1.00  0.00     0.067 A 
HETATM    8  C6  UNK     1      16.896   6.896  32.355  1.00  0.00     0.017 A 
HETATM    9  C7  UNK     1      17.220   5.670  31.759  1.00  0.00     0.030 A 
HETATM   10  C8  UNK     1      18.638   9.627  34.191  1.00  0.00     0.090 A 
HETATM   11  C9  UNK     1      16.226   9.522  33.637  1.00  0.00     0.049 C 
HETATM   12  C10 UNK     1      20.020   9.119  34.202  1.00  0.00     0.288 A 
ENDROOT
BRANCH   6  13
HETATM   13  N1  UNK     1      18.848   3.981  31.181  1.00  0.00    -0.323 N 
HETATM   14  C11 UNK     1      18.391   2.733  31.586  1.00  0.00     0.256 C 
HETATM   15  O3  UNK     1      17.644   2.471  32.522  1.00  0.00    -0.267 OA
HETATM   16  H5  UNK     1      19.423   4.061  30.348  1.00  0.00     0.169 HD
BRANCH  14  17
HETATM   17  C12 UNK     1      18.861   1.601  30.745  1.00  0.00     0.033 A 
HETATM   18  C13 UNK     1      19.401   0.493  31.362  1.00  0.00     0.036 A 
HETATM   19  C15 UNK     1      19.843  -0.568  30.572  1.00  0.00     0.011 A 
HETATM   20 Br1  UNK     1      20.589  -2.104  31.382  1.00  0.00    -0.051 Br
HETATM   21  C17 UNK     1      19.734  -0.495  29.183  1.00  0.00     0.019 A 
HETATM   22  C16 UNK     1      19.184   0.638  28.585  1.00  0.00     0.002 A 
HETATM   23  C14 UNK     1      18.742   1.699  29.376  1.00  0.00     0.017 A 
ENDBRANCH  14  17
ENDBRANCH   6  13
TORSDOF 2
ENDMDL
MODEL 6
REMARK VINA RESULT:      -9.0      9.920     14.063
REMARK  2 active torsions:
REMARK  status: ('A' for Active; 'I' for Inactive)
REMARK       I    between atoms: C11_16  and  N1_5 
REMARK    1  A    between atoms: C4_9  and  N1_5 
REMARK    2  A    between atoms: C11_16  and  C12_17 
ROOT
HETATM    1  O1  UNK     1      21.222  -8.863  35.112  1.00  0.00    -0.275 OA
HETATM    2  O2  UNK     1      22.300 -10.808  34.579  1.00  0.00    -0.260 OA
HETATM    3  C1  UNK     1      19.767  -8.800  37.073  1.00  0.00     0.004 A 
HETATM    4  C2  UNK     1      20.348  -8.169  35.971  1.00  0.00     0.092 A 
HETATM    5  C3  UNK     1      20.085 -10.213  37.323  1.00  0.00    -0.043 A 
HETATM    6  C4  UNK     1      19.244  -6.094  36.476  1.00  0.00     0.037 A 
HETATM    7  C5  UNK     1      20.099  -6.830  35.663  1.00  0.00     0.067 A 
HETATM    8  C6  UNK     1      18.909  -8.042  37.880  1.00  0.00     0.017 A 
HETATM    9  C7  UNK     1      18.651  -6.698  37.583  1.00  0.00     0.030 A 
HETATM   10  C8  UNK     1      20.921 -10.848  36.487  1.00  0.00     0.090 A 
HETATM   11  C9  UNK     1      19.477 -10.920  38.498  1.00  0.00     0.049 C 
HETATM   12  C10 UNK     1      21.540 -10.196  35.322  1.00  0.00     0.288 A 
ENDROOT
BRANCH   6  13
HETATM   13  N1  UNK     1      18.983  -4.754  36.187  1.00  0.00    -0.323 N 
HETATM   14  C11 UNK     1      19.866  -3.695  36.361  1.00  0.00     0.256 C 
HETATM   15  O3  UNK     1      21.013  -3.733  36.792  1.00  0.00    -0.267 OA
HETATM   16  H5  UNK     1      18.074  -4.588  35.765  1.00  0.00     0.169 HD
BRANCH  14  17
HETATM   17  C12 UNK     1      19.334  -2.373  35.937  1.00  0.00     0.033 A 
HETATM   18  C13 UNK     1      18.770  -1.548  36.886  1.00  0.00     0.036 A 
HETATM   19  C15 UNK     1      18.271  -0.308  36.488  1.00  0.00     0.011 A 
HETATM   20 Br1  UNK     1      17.491   0.851  37.761  1.00  0.00    -0.051 Br
HETATM   21  C17 UNK     1      18.347   0.076  35.149  1.00  0.00     0.019 A 
HETATM   22  C16 UNK     1      18.922  -0.779  34.210  1.00  0.00     0.002 A 
HETATM   23  C14 UNK     1      19.421  -2.018  34.609  1.00  0.00     0.017 A 
ENDBRANCH  14  17
ENDBRANCH   6  13
TORSDOF 2
ENDMDL
MODEL 7
REMARK VINA RESULT:      -8.8      3.599      8.265
REMARK  2 active torsions:
REMARK  status: ('A' for Active; 'I' for Inactive)
REMARK       I    between atoms: C11_16  and  N1_5 
REMARK    1  A    between atoms: C4_9  and  N1_5 
REMARK    2  A    between atoms: C11_16  and  C12_17 
ROOT
HETATM    1  O1  UNK     1      19.590   0.952  29.501  1.00  0.00    -0.275 OA
HETATM    2  O2  UNK     1      20.549  -0.625  28.152  1.00  0.00    -0.260 OA
HETATM    3  C1  UNK     1      19.132   0.408  31.839  1.00  0.00     0.004 A 
HETATM    4  C2  UNK     1      19.100   1.309  30.772  1.00  0.00     0.092 A 
HETATM    5  C3  UNK     1      19.690  -0.932  31.609  1.00  0.00    -0.043 A 
HETATM    6  C4  UNK     1      18.090   3.012  32.138  1.00  0.00     0.037 A 
HETATM    7  C5  UNK     1      18.588   2.602  30.905  1.00  0.00     0.067 A 
HETATM    8  C6  UNK     1      18.628   0.840  33.072  1.00  0.00     0.017 A 
HETATM    9  C7  UNK     1      18.110   2.133  33.219  1.00  0.00     0.030 A 
HETATM   10  C8  UNK     1      20.148  -1.244  30.387  1.00  0.00     0.090 A 
HETATM   11  C9  UNK     1      19.739  -1.924  32.733  1.00  0.00     0.049 C 
HETATM   12  C10 UNK     1      20.121  -0.304  29.255  1.00  0.00     0.288 A 
ENDROOT
BRANCH   6  13
HETATM   13  N1  UNK     1      17.575   4.299  32.292  1.00  0.00    -0.323 N 
HETATM   14  C11 UNK     1      18.259   5.395  32.803  1.00  0.00     0.256 C 
HETATM   15  O3  UNK     1      19.416   5.441  33.207  1.00  0.00    -0.267 OA
HETATM   16  H5  UNK     1      16.630   4.415  31.940  1.00  0.00     0.169 HD
BRANCH  14  17
HETATM   17  C12 UNK     1      17.474   6.657  32.823  1.00  0.00     0.033 A 
HETATM   18  C13 UNK     1      18.063   7.800  33.319  1.00  0.00     0.036 A 
HETATM   19  C15 UNK     1      17.326   8.983  33.339  1.00  0.00     0.011 A 
HETATM   20 Br1  UNK     1      18.101  10.571  34.011  1.00  0.00    -0.051 Br
HETATM   21  C17 UNK     1      16.015   8.996  32.861  1.00  0.00     0.019 A 
HETATM   22  C16 UNK     1      15.443   7.825  32.364  1.00  0.00     0.002 A 
HETATM   23  C14 UNK     1      16.181   6.642  32.346  1.00  0.00     0.017 A 
ENDBRANCH  14  17
ENDBRANCH   6  13
TORSDOF 2
ENDMDL
MODEL 8
REMARK VINA RESULT:      -8.7      9.154     13.157
REMARK  2 active torsions:
REMARK  status: ('A' for Active; 'I' for Inactive)
REMARK       I    between atoms: C11_16  and  N1_5 
REMARK    1  A    between atoms: C4_9  and  N1_5 
REMARK    2  A    between atoms: C11_16  and  C12_17 
ROOT
HETATM    1  O1  UNK     1      20.933  -8.120  34.833  1.00  0.00    -0.275 OA
HETATM    2  O2  UNK     1      21.740 -10.177  34.242  1.00  0.00    -0.260 OA
HETATM    3  C1  UNK     1      20.778  -7.531  37.199  1.00  0.00     0.004 A 
HETATM    4  C2  UNK     1      20.600  -7.207  35.852  1.00  0.00     0.092 A 
HETATM    5  C3  UNK     1      21.322  -8.853  37.538  1.00  0.00    -0.043 A 
HETATM    6  C4  UNK     1      19.744  -5.030  36.407  1.00  0.00     0.037 A 
HETATM    7  C5  UNK     1      20.089  -5.973  35.445  1.00  0.00     0.067 A 
HETATM    8  C6  UNK     1      20.424  -6.568  38.153  1.00  0.00     0.017 A 
HETATM    9  C7  UNK     1      19.911  -5.326  37.758  1.00  0.00     0.030 A 
HETATM   10  C8  UNK     1      21.629  -9.703  36.546  1.00  0.00     0.090 A 
HETATM   11  C9  UNK     1      21.526  -9.233  38.975  1.00  0.00     0.049 C 
HETATM   12  C10 UNK     1      21.447  -9.374  35.122  1.00  0.00     0.288 A 
ENDROOT
BRANCH   6  13
HETATM   13  N1  UNK     1      19.233  -3.790  36.021  1.00  0.00    -0.323 N 
HETATM   14  C11 UNK     1      19.979  -2.652  35.742  1.00  0.00     0.256 C 
HETATM   15  O3  UNK     1      21.197  -2.520  35.781  1.00  0.00    -0.267 OA
HETATM   16  H5  UNK     1      18.225  -3.775  35.894  1.00  0.00     0.169 HD
BRANCH  14  17
HETATM   17  C12 UNK     1      19.174  -1.475  35.320  1.00  0.00     0.033 A 
HETATM   18  C13 UNK     1      18.541  -0.722  36.285  1.00  0.00     0.036 A 
HETATM   19  C15 UNK     1      17.785   0.381  35.890  1.00  0.00     0.011 A 
HETATM   20 Br1  UNK     1      16.902   1.438  37.184  1.00  0.00    -0.051 Br
HETATM   21  C17 UNK     1      17.681   0.705  34.536  1.00  0.00     0.019 A 
HETATM   22  C16 UNK     1      18.333  -0.074  33.581  1.00  0.00     0.002 A 
HETATM   23  C14 UNK     1      19.088  -1.177  33.978  1.00  0.00     0.017 A 
ENDBRANCH  14  17
ENDBRANCH   6  13
TORSDOF 2
ENDMDL
MODEL 9
REMARK VINA RESULT:      -8.6      8.212     10.121
REMARK  2 active torsions:
REMARK  status: ('A' for Active; 'I' for Inactive)
REMARK       I    between atoms: C11_16  and  N1_5 
REMARK    1  A    between atoms: C4_9  and  N1_5 
REMARK    2  A    between atoms: C11_16  and  C12_17 
ROOT
HETATM    1  O1  UNK     1      18.995  -0.464  34.097  1.00  0.00    -0.275 OA
HETATM    2  O2  UNK     1      18.375   1.215  32.673  1.00  0.00    -0.260 OA
HETATM    3  C1  UNK     1      18.195  -0.431  36.405  1.00  0.00     0.004 A 
HETATM    4  C2  UNK     1      18.934  -1.032  35.385  1.00  0.00     0.092 A 
HETATM    5  C3  UNK     1      17.476   0.817  36.112  1.00  0.00    -0.043 A 
HETATM    6  C4  UNK     1      19.623  -2.826  36.830  1.00  0.00     0.037 A 
HETATM    7  C5  UNK     1      19.646  -2.218  35.579  1.00  0.00     0.067 A 
HETATM    8  C6  UNK     1      18.184  -1.059  37.657  1.00  0.00     0.017 A 
HETATM    9  C7  UNK     1      18.893  -2.248  37.867  1.00  0.00     0.030 A 
HETATM   10  C8  UNK     1      17.553   1.335  34.876  1.00  0.00     0.090 A 
HETATM   11  C9  UNK     1      16.673   1.488  37.186  1.00  0.00     0.049 C 
HETATM   12  C10 UNK     1      18.328   0.712  33.791  1.00  0.00     0.288 A 
ENDROOT
BRANCH   6  13
HETATM   13  N1  UNK     1      20.326  -4.012  37.045  1.00  0.00    -0.323 N 
HETATM   14  C11 UNK     1      19.831  -5.297  36.865  1.00  0.00     0.256 C 
HETATM   15  O3  UNK     1      18.711  -5.629  36.492  1.00  0.00    -0.267 OA
HETATM   16  H5  UNK     1      21.298  -3.878  37.308  1.00  0.00     0.169 HD
BRANCH  14  17
HETATM   17  C12 UNK     1      20.813  -6.380  37.138  1.00  0.00     0.033 A 
HETATM   18  C13 UNK     1      20.865  -7.461  36.285  1.00  0.00     0.036 A 
HETATM   19  C15 UNK     1      21.785  -8.477  36.542  1.00  0.00     0.011 A 
HETATM   20 Br1  UNK     1      21.886  -9.975  35.395  1.00  0.00    -0.051 Br
HETATM   21  C17 UNK     1      22.632  -8.386  37.647  1.00  0.00     0.019 A 
HETATM   22  C16 UNK     1      22.558  -7.281  38.494  1.00  0.00     0.002 A 
HETATM   23  C14 UNK     1      21.637  -6.266  38.236  1.00  0.00     0.017 A 
ENDBRANCH  14  17
ENDBRANCH   6  13
TORSDOF 2
ENDMDL
MODEL 10
REMARK VINA RESULT:      -8.5      9.251     13.251
REMARK  2 active torsions:
REMARK  status: ('A' for Active; 'I' for Inactive)
REMARK       I    between atoms: C11_16  and  N1_5 
REMARK    1  A    between atoms: C4_9  and  N1_5 
REMARK    2  A    between atoms: C11_16  and  C12_17 
ROOT
HETATM    1  O1  UNK     1      22.593  -6.777  38.311  1.00  0.00    -0.275 OA
HETATM    2  O2  UNK     1      24.163  -8.218  39.142  1.00  0.00    -0.260 OA
HETATM    3  C1  UNK     1      21.235  -7.462  36.399  1.00  0.00     0.004 A 
HETATM    4  C2  UNK     1      21.584  -6.515  37.365  1.00  0.00     0.092 A 
HETATM    5  C3  UNK     1      21.947  -8.747  36.386  1.00  0.00    -0.043 A 
HETATM    6  C4  UNK     1      19.952  -4.954  36.539  1.00  0.00     0.037 A 
HETATM    7  C5  UNK     1      20.957  -5.269  37.447  1.00  0.00     0.067 A 
HETATM    8  C6  UNK     1      20.220  -7.126  35.495  1.00  0.00     0.017 A 
HETATM    9  C7  UNK     1      19.583  -5.880  35.565  1.00  0.00     0.030 A 
HETATM   10  C8  UNK     1      22.904  -8.969  37.300  1.00  0.00     0.090 A 
HETATM   11  C9  UNK     1      21.597  -9.786  35.362  1.00  0.00     0.049 C 
HETATM   12  C10 UNK     1      23.282  -7.980  38.323  1.00  0.00     0.288 A 
ENDROOT
BRANCH   6  13
HETATM   13  N1  UNK     1      19.312  -3.716  36.604  1.00  0.00    -0.323 N 
HETATM   14  C11 UNK     1      19.763  -2.534  36.030  1.00  0.00     0.256 C 
HETATM   15  O3  UNK     1      20.783  -2.355  35.374  1.00  0.00    -0.267 OA
HETATM   16  H5  UNK     1      18.414  -3.735  37.079  1.00  0.00     0.169 HD
BRANCH  14  17
HETATM   17  C12 UNK     1      18.862  -1.369  36.230  1.00  0.00     0.033 A 
HETATM   18  C13 UNK     1      18.899  -0.335  35.320  1.00  0.00     0.036 A 
HETATM   19  C15 UNK     1      18.055   0.758  35.508  1.00  0.00     0.011 A 
HETATM   20 Br1  UNK     1      18.077   2.195  34.280  1.00  0.00    -0.051 Br
HETATM   21  C17 UNK     1      17.192   0.792  36.604  1.00  0.00     0.019 A 
HETATM   22  C16 UNK     1      17.175  -0.267  37.511  1.00  0.00     0.002 A 
HETATM   23  C14 UNK     1      18.020  -1.361  37.321  1.00  0.00     0.017 A 
ENDBRANCH  14  17
ENDBRANCH   6  13
TORSDOF 2
ENDMDL
