MODEL 1
REMARK VINA RESULT:      -8.1      0.000      0.000
REMARK  2 active torsions:
REMARK  status: ('A' for Active; 'I' for Inactive)
REMARK    1  A    between atoms: C6_11  and  N1_5 
REMARK    2  A    between atoms: C6_11  and  C7_12 
ROOT
HETATM    1  O1  UNK     1      20.264  -1.097  30.390  1.00  0.00    -0.275 OA
HETATM    2  O2  UNK     1      17.997  -0.009  35.270  1.00  0.00    -0.323 OA
HETATM    3  O3  UNK     1      19.264  -2.042  35.011  1.00  0.00    -0.323 OA
HETATM    4  O4  UNK     1      20.699  -0.592  28.203  1.00  0.00    -0.260 OA
HETATM    5  C7  UNK     1      18.804   1.322  30.553  1.00  0.00    -0.011 A 
HETATM    6  C8  UNK     1      18.916   0.450  31.730  1.00  0.00     0.009 A 
HETATM    7  C9  UNK     1      19.650  -0.744  31.611  1.00  0.00     0.093 A 
HETATM    8  C10 UNK     1      19.398   0.955  29.409  1.00  0.00     0.092 A 
HETATM    9  C11 UNK     1      18.329   0.746  32.971  1.00  0.00     0.054 A 
HETATM   10  C12 UNK     1      18.500  -0.149  34.012  1.00  0.00     0.106 A 
HETATM   11  C13 UNK     1      19.816  -1.641  32.669  1.00  0.00     0.078 A 
HETATM   12  C14 UNK     1      19.223  -1.310  33.865  1.00  0.00     0.107 A 
HETATM   13  C15 UNK     1      20.169  -0.291  29.267  1.00  0.00     0.288 A 
HETATM   14  C16 UNK     1      18.483  -1.215  35.896  1.00  0.00     0.352 A 
ENDROOT
BRANCH   5  15
HETATM   15  C6  UNK     1      18.028   2.604  30.644  1.00  0.00     0.312 C 
BRANCH  15  16
HETATM   16  N1  UNK     1      18.856   3.706  31.135  1.00  0.00     0.092 N 
HETATM   17  C1  UNK     1      19.122   4.668  30.055  1.00  0.00     0.272 C 
HETATM   18  C3  UNK     1      20.029   5.801  30.539  1.00  0.00     0.030 C 
HETATM   19  C5  UNK     1      19.441   6.500  31.759  1.00  0.00     0.003 C 
HETATM   20  C4  UNK     1      19.092   5.483  32.839  1.00  0.00     0.030 C 
HETATM   21  C2  UNK     1      18.216   4.359  32.284  1.00  0.00     0.272 C 
ENDBRANCH  15  16
ENDBRANCH   5  15
TORSDOF 2
ENDMDL
MODEL 2
REMARK VINA RESULT:      -8.0     22.931     24.738
REMARK  2 active torsions:
REMARK  status: ('A' for Active; 'I' for Inactive)
REMARK    1  A    between atoms: C6_11  and  N1_5 
REMARK    2  A    between atoms: C6_11  and  C7_12 
ROOT
HETATM    1  O1  UNK     1      16.482   5.811   9.879  1.00  0.00    -0.275 OA
HETATM    2  O2  UNK     1      15.836  11.258   9.654  1.00  0.00    -0.323 OA
HETATM    3  O3  UNK     1      18.066  10.365   9.844  1.00  0.00    -0.323 OA
HETATM    4  O4  UNK     1      15.666   3.675   9.894  1.00  0.00    -0.260 OA
HETATM    5  C7  UNK     1      13.811   6.722   9.657  1.00  0.00    -0.011 A 
HETATM    6  C8  UNK     1      14.917   7.689   9.705  1.00  0.00     0.009 A 
HETATM    7  C9  UNK     1      16.231   7.198   9.815  1.00  0.00     0.093 A 
HETATM    8  C10 UNK     1      14.087   5.412   9.721  1.00  0.00     0.092 A 
HETATM    9  C11 UNK     1      14.731   9.079   9.645  1.00  0.00     0.054 A 
HETATM   10  C12 UNK     1      15.847   9.897   9.699  1.00  0.00     0.106 A 
HETATM   11  C13 UNK     1      17.350   8.033   9.868  1.00  0.00     0.078 A 
HETATM   12  C14 UNK     1      17.120   9.388   9.808  1.00  0.00     0.107 A 
HETATM   13  C15 UNK     1      15.455   4.882   9.837  1.00  0.00     0.288 A 
HETATM   14  C16 UNK     1      17.246  11.547   9.750  1.00  0.00     0.352 A 
ENDROOT
BRANCH   5  15
HETATM   15  C6  UNK     1      12.396   7.210   9.539  1.00  0.00     0.312 C 
BRANCH  15  16
HETATM   16  N1  UNK     1      11.680   6.541   8.454  1.00  0.00     0.092 N 
HETATM   17  C1  UNK     1      10.240   6.828   8.536  1.00  0.00     0.272 C 
HETATM   18  C3  UNK     1       9.469   6.095   7.436  1.00  0.00     0.030 C 
HETATM   19  C5  UNK     1      10.015   6.436   6.055  1.00  0.00     0.003 C 
HETATM   20  C4  UNK     1      11.522   6.213   6.007  1.00  0.00     0.030 C 
HETATM   21  C2  UNK     1      12.229   6.941   7.151  1.00  0.00     0.272 C 
ENDBRANCH  15  16
ENDBRANCH   5  15
TORSDOF 2
ENDMDL
MODEL 3
REMARK VINA RESULT:      -7.9     13.898     15.096
REMARK  2 active torsions:
REMARK  status: ('A' for Active; 'I' for Inactive)
REMARK    1  A    between atoms: C6_11  and  N1_5 
REMARK    2  A    between atoms: C6_11  and  C7_12 
ROOT
HETATM    1  O1  UNK     1      28.398  -5.369  39.393  1.00  0.00    -0.275 OA
HETATM    2  O2  UNK     1      27.443  -9.492  35.897  1.00  0.00    -0.323 OA
HETATM    3  O3  UNK     1      26.068  -9.305  37.867  1.00  0.00    -0.323 OA
HETATM    4  O4  UNK     1      29.545  -3.508  40.062  1.00  0.00    -0.260 OA
HETATM    5  C7  UNK     1      30.086  -5.469  37.122  1.00  0.00    -0.011 A 
HETATM    6  C8  UNK     1      29.036  -6.481  37.305  1.00  0.00     0.009 A 
HETATM    7  C9  UNK     1      28.217  -6.399  38.445  1.00  0.00     0.093 A 
HETATM    8  C10 UNK     1      30.229  -4.506  38.043  1.00  0.00     0.092 A 
HETATM    9  C11 UNK     1      28.807  -7.529  36.398  1.00  0.00     0.054 A 
HETATM   10  C12 UNK     1      27.790  -8.427  36.671  1.00  0.00     0.106 A 
HETATM   11  C13 UNK     1      27.192  -7.312  38.711  1.00  0.00     0.078 A 
HETATM   12  C14 UNK     1      27.005  -8.321  37.795  1.00  0.00     0.107 A 
HETATM   13  C15 UNK     1      29.382  -4.405  39.242  1.00  0.00     0.288 A 
HETATM   14  C16 UNK     1      26.353 -10.045  36.663  1.00  0.00     0.352 A 
ENDROOT
BRANCH   5  15
HETATM   15  C6  UNK     1      30.978  -5.527  35.917  1.00  0.00     0.312 C 
BRANCH  15  16
HETATM   16  N1  UNK     1      32.378  -5.287  36.267  1.00  0.00     0.092 N 
HETATM   17  C1  UNK     1      32.979  -6.502  36.838  1.00  0.00     0.272 C 
HETATM   18  C3  UNK     1      34.430  -6.254  37.256  1.00  0.00     0.030 C 
HETATM   19  C5  UNK     1      35.261  -5.732  36.090  1.00  0.00     0.003 C 
HETATM   20  C4  UNK     1      34.586  -4.523  35.453  1.00  0.00     0.030 C 
HETATM   21  C2  UNK     1      33.130  -4.824  35.093  1.00  0.00     0.272 C 
ENDBRANCH  15  16
ENDBRANCH   5  15
TORSDOF 2
ENDMDL
MODEL 4
REMARK VINA RESULT:      -7.8      1.510      4.230
REMARK  2 active torsions:
REMARK  status: ('A' for Active; 'I' for Inactive)
REMARK    1  A    between atoms: C6_11  and  N1_5 
REMARK    2  A    between atoms: C6_11  and  C7_12 
ROOT
HETATM    1  O1  UNK     1      18.727   0.148  34.089  1.00  0.00    -0.275 OA
HETATM    2  O2  UNK     1      19.661   0.495  28.690  1.00  0.00    -0.323 OA
HETATM    3  O3  UNK     1      20.022  -1.617  29.793  1.00  0.00    -0.323 OA
HETATM    4  O4  UNK     1      18.106   1.048  36.097  1.00  0.00    -0.260 OA
HETATM    5  C7  UNK     1      18.264   2.686  32.923  1.00  0.00    -0.011 A 
HETATM    6  C8  UNK     1      18.724   1.567  32.090  1.00  0.00     0.009 A 
HETATM    7  C9  UNK     1      18.943   0.320  32.705  1.00  0.00     0.093 A 
HETATM    8  C10 UNK     1      18.070   2.487  34.234  1.00  0.00     0.092 A 
HETATM    9  C11 UNK     1      18.957   1.675  30.709  1.00  0.00     0.054 A 
HETATM   10  C12 UNK     1      19.391   0.554  30.023  1.00  0.00     0.106 A 
HETATM   11  C13 UNK     1      19.382  -0.805  32.002  1.00  0.00     0.078 A 
HETATM   12  C14 UNK     1      19.597  -0.651  30.652  1.00  0.00     0.107 A 
HETATM   13  C15 UNK     1      18.295   1.190  34.893  1.00  0.00     0.288 A 
HETATM   14  C16 UNK     1      20.063  -0.884  28.552  1.00  0.00     0.352 A 
ENDROOT
BRANCH   5  15
HETATM   15  C6  UNK     1      18.019   4.030  32.300  1.00  0.00     0.312 C 
BRANCH  15  16
HETATM   16  N1  UNK     1      18.582   5.112  33.108  1.00  0.00     0.092 N 
HETATM   17  C1  UNK     1      19.637   5.814  32.362  1.00  0.00     0.272 C 
HETATM   18  C3  UNK     1      20.271   6.918  33.211  1.00  0.00     0.030 C 
HETATM   19  C5  UNK     1      19.220   7.898  33.720  1.00  0.00     0.003 C 
HETATM   20  C4  UNK     1      18.090   7.151  34.419  1.00  0.00     0.030 C 
HETATM   21  C2  UNK     1      17.525   6.040  33.533  1.00  0.00     0.272 C 
ENDBRANCH  15  16
ENDBRANCH   5  15
TORSDOF 2
ENDMDL
MODEL 5
REMARK VINA RESULT:      -7.7      1.540      2.069
REMARK  2 active torsions:
REMARK  status: ('A' for Active; 'I' for Inactive)
REMARK    1  A    between atoms: C6_11  and  N1_5 
REMARK    2  A    between atoms: C6_11  and  C7_12 
ROOT
HETATM    1  O1  UNK     1      19.013   0.300  31.190  1.00  0.00    -0.275 OA
HETATM    2  O2  UNK     1      17.713   1.699  36.336  1.00  0.00    -0.323 OA
HETATM    3  O3  UNK     1      18.364  -0.577  35.886  1.00  0.00    -0.323 OA
HETATM    4  O4  UNK     1      19.300   0.781  28.973  1.00  0.00    -0.260 OA
HETATM    5  C7  UNK     1      18.267   3.003  31.575  1.00  0.00    -0.011 A 
HETATM    6  C8  UNK     1      18.289   2.076  32.715  1.00  0.00     0.009 A 
HETATM    7  C9  UNK     1      18.665   0.740  32.484  1.00  0.00     0.093 A 
HETATM    8  C10 UNK     1      18.604   2.550  30.360  1.00  0.00     0.092 A 
HETATM    9  C11 UNK     1      17.953   2.453  34.026  1.00  0.00     0.054 A 
HETATM   10  C12 UNK     1      18.007   1.495  35.023  1.00  0.00     0.106 A 
HETATM   11  C13 UNK     1      18.717  -0.220  33.499  1.00  0.00     0.078 A 
HETATM   12  C14 UNK     1      18.379   0.196  34.767  1.00  0.00     0.107 A 
HETATM   13  C15 UNK     1      18.999   1.157  30.101  1.00  0.00     0.288 A 
HETATM   14  C16 UNK     1      17.939   0.380  36.876  1.00  0.00     0.352 A 
ENDROOT
BRANCH   5  15
HETATM   15  C6  UNK     1      17.871   4.436  31.786  1.00  0.00     0.312 C 
BRANCH  15  16
HETATM   16  N1  UNK     1      18.835   5.148  32.624  1.00  0.00     0.092 N 
HETATM   17  C1  UNK     1      19.861   5.792  31.791  1.00  0.00     0.272 C 
HETATM   18  C3  UNK     1      20.907   6.501  32.655  1.00  0.00     0.030 C 
HETATM   19  C5  UNK     1      20.258   7.508  33.596  1.00  0.00     0.003 C 
HETATM   20  C4  UNK     1      19.139   6.849  34.394  1.00  0.00     0.030 C 
HETATM   21  C2  UNK     1      18.150   6.129  33.476  1.00  0.00     0.272 C 
ENDBRANCH  15  16
ENDBRANCH   5  15
TORSDOF 2
ENDMDL
MODEL 6
REMARK VINA RESULT:      -7.7      4.291      8.655
REMARK  2 active torsions:
REMARK  status: ('A' for Active; 'I' for Inactive)
REMARK    1  A    between atoms: C6_11  and  N1_5 
REMARK    2  A    between atoms: C6_11  and  C7_12 
ROOT
HETATM    1  O1  UNK     1      17.910  -0.493  35.602  1.00  0.00    -0.275 OA
HETATM    2  O2  UNK     1      20.914  -2.653  31.547  1.00  0.00    -0.323 OA
HETATM    3  O3  UNK     1      19.383  -0.867  31.027  1.00  0.00    -0.323 OA
HETATM    4  O4  UNK     1      17.253  -0.370  37.789  1.00  0.00    -0.260 OA
HETATM    5  C7  UNK     1      19.666  -2.583  36.355  1.00  0.00    -0.011 A 
HETATM    6  C8  UNK     1      19.602  -2.143  34.954  1.00  0.00     0.009 A 
HETATM    7  C9  UNK     1      18.718  -1.102  34.618  1.00  0.00     0.093 A 
HETATM    8  C10 UNK     1      18.883  -1.983  37.262  1.00  0.00     0.092 A 
HETATM    9  C11 UNK     1      20.380  -2.708  33.930  1.00  0.00     0.054 A 
HETATM   10  C12 UNK     1      20.238  -2.215  32.645  1.00  0.00     0.106 A 
HETATM   11  C13 UNK     1      18.583  -0.611  33.317  1.00  0.00     0.078 A 
HETATM   12  C14 UNK     1      19.364  -1.196  32.347  1.00  0.00     0.107 A 
HETATM   13  C15 UNK     1      17.953  -0.893  36.929  1.00  0.00     0.288 A 
HETATM   14  C16 UNK     1      20.365  -1.796  30.525  1.00  0.00     0.352 A 
ENDROOT
BRANCH   5  15
HETATM   15  C6  UNK     1      20.598  -3.692  36.748  1.00  0.00     0.312 C 
BRANCH  15  16
HETATM   16  N1  UNK     1      19.897  -4.768  37.448  1.00  0.00     0.092 N 
HETATM   17  C1  UNK     1      19.199  -5.636  36.488  1.00  0.00     0.272 C 
HETATM   18  C3  UNK     1      18.419  -6.738  37.207  1.00  0.00     0.030 C 
HETATM   19  C5  UNK     1      19.326  -7.554  38.121  1.00  0.00     0.003 C 
HETATM   20  C4  UNK     1      20.105  -6.636  39.055  1.00  0.00     0.030 C 
HETATM   21  C2  UNK     1      20.832  -5.538  38.279  1.00  0.00     0.272 C 
ENDBRANCH  15  16
ENDBRANCH   5  15
TORSDOF 2
ENDMDL
MODEL 7
REMARK VINA RESULT:      -7.6      2.695      3.689
REMARK  2 active torsions:
REMARK  status: ('A' for Active; 'I' for Inactive)
REMARK    1  A    between atoms: C6_11  and  N1_5 
REMARK    2  A    between atoms: C6_11  and  C7_12 
ROOT
HETATM    1  O1  UNK     1      18.308   1.556  31.715  1.00  0.00    -0.275 OA
HETATM    2  O2  UNK     1      18.162   1.624  37.202  1.00  0.00    -0.323 OA
HETATM    3  O3  UNK     1      18.170  -0.504  36.071  1.00  0.00    -0.323 OA
HETATM    4  O4  UNK     1      18.369   2.596  29.679  1.00  0.00    -0.260 OA
HETATM    5  C7  UNK     1      18.302   4.122  32.911  1.00  0.00    -0.011 A 
HETATM    6  C8  UNK     1      18.267   2.918  33.752  1.00  0.00     0.009 A 
HETATM    7  C9  UNK     1      18.272   1.660  33.121  1.00  0.00     0.093 A 
HETATM    8  C10 UNK     1      18.335   3.986  31.578  1.00  0.00     0.092 A 
HETATM    9  C11 UNK     1      18.231   2.955  35.155  1.00  0.00     0.054 A 
HETATM   10  C12 UNK     1      18.200   1.757  35.847  1.00  0.00     0.106 A 
HETATM   11  C13 UNK     1      18.240   0.456  33.830  1.00  0.00     0.078 A 
HETATM   12  C14 UNK     1      18.204   0.542  35.203  1.00  0.00     0.107 A 
HETATM   13  C15 UNK     1      18.339   2.679  30.902  1.00  0.00     0.288 A 
HETATM   14  C16 UNK     1      18.140   0.187  37.336  1.00  0.00     0.352 A 
ENDROOT
BRANCH   5  15
HETATM   15  C6  UNK     1      18.298   5.480  33.550  1.00  0.00     0.312 C 
BRANCH  15  16
HETATM   16  N1  UNK     1      17.118   6.256  33.169  1.00  0.00     0.092 N 
HETATM   17  C1  UNK     1      16.528   6.905  34.349  1.00  0.00     0.272 C 
HETATM   18  C3  UNK     1      15.263   7.681  33.976  1.00  0.00     0.030 C 
HETATM   19  C5  UNK     1      15.541   8.699  32.875  1.00  0.00     0.003 C 
HETATM   20  C4  UNK     1      16.228   8.029  31.691  1.00  0.00     0.030 C 
HETATM   21  C2  UNK     1      17.462   7.242  32.136  1.00  0.00     0.272 C 
ENDBRANCH  15  16
ENDBRANCH   5  15
TORSDOF 2
ENDMDL
MODEL 8
REMARK VINA RESULT:      -7.4      6.021      9.391
REMARK  2 active torsions:
REMARK  status: ('A' for Active; 'I' for Inactive)
REMARK    1  A    between atoms: C6_11  and  N1_5 
REMARK    2  A    between atoms: C6_11  and  C7_12 
ROOT
HETATM    1  O1  UNK     1      14.280   8.817  32.980  1.00  0.00    -0.275 OA
HETATM    2  O2  UNK     1      18.640  11.753  34.563  1.00  0.00    -0.323 OA
HETATM    3  O3  UNK     1      16.450  12.736  34.762  1.00  0.00    -0.323 OA
HETATM    4  O4  UNK     1      13.314   6.929  32.125  1.00  0.00    -0.260 OA
HETATM    5  C7  UNK     1      16.791   7.540  32.690  1.00  0.00    -0.011 A 
HETATM    6  C8  UNK     1      16.716   8.903  33.236  1.00  0.00     0.009 A 
HETATM    7  C9  UNK     1      15.451   9.504  33.365  1.00  0.00     0.093 A 
HETATM    8  C10 UNK     1      15.658   6.918  32.334  1.00  0.00     0.092 A 
HETATM    9  C11 UNK     1      17.844   9.638  33.636  1.00  0.00     0.054 A 
HETATM   10  C12 UNK     1      17.656  10.915  34.135  1.00  0.00     0.106 A 
HETATM   11  C13 UNK     1      15.273  10.795  33.871  1.00  0.00     0.078 A 
HETATM   12  C14 UNK     1      16.406  11.477  34.249  1.00  0.00     0.107 A 
HETATM   13  C15 UNK     1      14.327   7.532  32.462  1.00  0.00     0.288 A 
HETATM   14  C16 UNK     1      17.868  12.906  34.956  1.00  0.00     0.352 A 
ENDROOT
BRANCH   5  15
HETATM   15  C6  UNK     1      18.124   6.868  32.539  1.00  0.00     0.312 C 
BRANCH  15  16
HETATM   16  N1  UNK     1      18.045   5.696  31.667  1.00  0.00     0.092 N 
HETATM   17  C1  UNK     1      19.035   5.795  30.584  1.00  0.00     0.272 C 
HETATM   18  C3  UNK     1      18.933   4.600  29.633  1.00  0.00     0.030 C 
HETATM   19  C5  UNK     1      19.074   3.281  30.383  1.00  0.00     0.003 C 
HETATM   20  C4  UNK     1      18.099   3.226  31.553  1.00  0.00     0.030 C 
HETATM   21  C2  UNK     1      18.227   4.463  32.444  1.00  0.00     0.272 C 
ENDBRANCH  15  16
ENDBRANCH   5  15
TORSDOF 2
ENDMDL
MODEL 9
REMARK VINA RESULT:      -7.4     13.279     15.496
REMARK  2 active torsions:
REMARK  status: ('A' for Active; 'I' for Inactive)
REMARK    1  A    between atoms: C6_11  and  N1_5 
REMARK    2  A    between atoms: C6_11  and  C7_12 
ROOT
HETATM    1  O1  UNK     1      29.477  -9.526  38.239  1.00  0.00    -0.275 OA
HETATM    2  O2  UNK     1      26.968  -4.674  38.785  1.00  0.00    -0.323 OA
HETATM    3  O3  UNK     1      25.620  -6.668  38.685  1.00  0.00    -0.323 OA
HETATM    4  O4  UNK     1      31.347 -10.824  38.026  1.00  0.00    -0.260 OA
HETATM    5  C7  UNK     1      31.181  -7.267  38.342  1.00  0.00    -0.011 A 
HETATM    6  C8  UNK     1      29.725  -7.095  38.434  1.00  0.00     0.009 A 
HETATM    7  C9  UNK     1      28.910  -8.241  38.379  1.00  0.00     0.093 A 
HETATM    8  C10 UNK     1      31.685  -8.502  38.209  1.00  0.00     0.092 A 
HETATM    9  C11 UNK     1      29.101  -5.845  38.574  1.00  0.00     0.054 A 
HETATM   10  C12 UNK     1      27.720  -5.801  38.650  1.00  0.00     0.106 A 
HETATM   11  C13 UNK     1      27.516  -8.185  38.457  1.00  0.00     0.078 A 
HETATM   12  C14 UNK     1      26.950  -6.938  38.593  1.00  0.00     0.107 A 
HETATM   13  C15 UNK     1      30.848  -9.711  38.149  1.00  0.00     0.288 A 
HETATM   14  C16 UNK     1      25.638  -5.232  38.804  1.00  0.00     0.352 A 
ENDROOT
BRANCH   5  15
HETATM   15  C6  UNK     1      32.080  -6.066  38.397  1.00  0.00     0.312 C 
BRANCH  15  16
HETATM   16  N1  UNK     1      32.752  -5.833  37.119  1.00  0.00     0.092 N 
HETATM   17  C1  UNK     1      32.311  -4.558  36.533  1.00  0.00     0.272 C 
HETATM   18  C3  UNK     1      32.967  -4.322  35.170  1.00  0.00     0.030 C 
HETATM   19  C5  UNK     1      34.487  -4.380  35.269  1.00  0.00     0.003 C 
HETATM   20  C4  UNK     1      34.928  -5.669  35.953  1.00  0.00     0.030 C 
HETATM   21  C2  UNK     1      34.211  -5.863  37.290  1.00  0.00     0.272 C 
ENDBRANCH  15  16
ENDBRANCH   5  15
TORSDOF 2
ENDMDL
MODEL 10
REMARK VINA RESULT:      -7.4     23.194     25.523
REMARK  2 active torsions:
REMARK  status: ('A' for Active; 'I' for Inactive)
REMARK    1  A    between atoms: C6_11  and  N1_5 
REMARK    2  A    between atoms: C6_11  and  C7_12 
ROOT
HETATM    1  O1  UNK     1      11.275   6.402   6.187  1.00  0.00    -0.275 OA
HETATM    2  O2  UNK     1      14.428   5.103  10.489  1.00  0.00    -0.323 OA
HETATM    3  O3  UNK     1      15.494   5.742   8.425  1.00  0.00    -0.323 OA
HETATM    4  O4  UNK     1       9.241   6.694   5.183  1.00  0.00    -0.260 OA
HETATM    5  C7  UNK     1       9.891   5.670   8.546  1.00  0.00    -0.011 A 
HETATM    6  C8  UNK     1      11.361   5.685   8.529  1.00  0.00     0.009 A 
HETATM    7  C9  UNK     1      12.013   6.055   7.338  1.00  0.00     0.093 A 
HETATM    8  C10 UNK     1       9.223   6.005   7.434  1.00  0.00     0.092 A 
HETATM    9  C11 UNK     1      12.151   5.350   9.641  1.00  0.00     0.054 A 
HETATM   10  C12 UNK     1      13.528   5.398   9.511  1.00  0.00     0.106 A 
HETATM   11  C13 UNK     1      13.405   6.100   7.218  1.00  0.00     0.078 A 
HETATM   12  C14 UNK     1      14.137   5.762   8.333  1.00  0.00     0.107 A 
HETATM   13  C15 UNK     1       9.889   6.394   6.181  1.00  0.00     0.288 A 
HETATM   14  C16 UNK     1      15.672   5.321   9.792  1.00  0.00     0.352 A 
ENDROOT
BRANCH   5  15
HETATM   15  C6  UNK     1       9.163   5.280   9.800  1.00  0.00     0.312 C 
BRANCH  15  16
HETATM   16  N1  UNK     1       7.789   5.782   9.807  1.00  0.00     0.092 N 
HETATM   17  C1  UNK     1       6.967   5.012  10.751  1.00  0.00     0.272 C 
HETATM   18  C3  UNK     1       5.513   5.492  10.734  1.00  0.00     0.030 C 
HETATM   19  C5  UNK     1       5.419   6.986  11.022  1.00  0.00     0.003 C 
HETATM   20  C4  UNK     1       6.340   7.767  10.091  1.00  0.00     0.030 C 
HETATM   21  C2  UNK     1       7.766   7.216  10.128  1.00  0.00     0.272 C 
ENDBRANCH  15  16
ENDBRANCH   5  15
TORSDOF 2
ENDMDL
