MODEL 1
REMARK VINA RESULT:      -8.3      0.000      0.000
REMARK  3 active torsions:
REMARK  status: ('A' for Active; 'I' for Inactive)
REMARK    1  A    between atoms: C13_18  and  N1_5 
REMARK    2  A    between atoms: C14_19  and  N1_5 
REMARK    3  A    between atoms: C9_14  and  N1_5 
ROOT
HETATM    1  O1  UNK     1      17.809   3.797  30.831  1.00  0.00    -0.332 OA
HETATM    2  O2  UNK     1      19.767  -0.501  32.007  1.00  0.00    -0.274 OA
HETATM    3  O3  UNK     1      18.202   3.790  34.420  1.00  0.00    -0.289 OA
HETATM    4  O4  UNK     1      20.764  -2.504  32.499  1.00  0.00    -0.260 OA
HETATM    5  C1  UNK     1      18.220   4.378  32.070  1.00  0.00     0.125 C 
HETATM    6  C2  UNK     1      18.384   1.960  32.899  1.00  0.00     0.044 C 
HETATM    7  C3  UNK     1      18.695   1.626  31.499  1.00  0.00     0.048 A 
HETATM    8  C4  UNK     1      18.251   3.405  33.254  1.00  0.00     0.196 C 
HETATM    9  C5  UNK     1      18.360   2.579  30.527  1.00  0.00     0.084 A 
HETATM   10  C6  UNK     1      17.188   5.474  32.366  1.00  0.00     0.055 C 
HETATM   11  C7  UNK     1      19.604   5.019  31.906  1.00  0.00     0.055 C 
HETATM   12  C8  UNK     1      19.313   0.445  31.054  1.00  0.00     0.103 A 
HETATM   13  C9  UNK     1      18.089   1.073  33.860  1.00  0.00     0.101 C 
HETATM   14  C10 UNK     1      19.527   0.183  29.697  1.00  0.00    -0.001 A 
HETATM   15  C11 UNK     1      18.545   2.321  29.165  1.00  0.00     0.039 A 
HETATM   16  C12 UNK     1      19.124   1.124  28.750  1.00  0.00     0.017 A 
HETATM   17  C15 UNK     1      20.165  -1.063  29.300  1.00  0.00     0.020 A 
HETATM   18  C18 UNK     1      20.567  -1.944  30.219  1.00  0.00     0.083 A 
HETATM   19  C19 UNK     1      20.386  -1.695  31.658  1.00  0.00     0.288 A 
ENDROOT
BRANCH  13  20
HETATM   20  N1  UNK     1      17.797   1.324  35.156  1.00  0.00    -0.390 N 
BRANCH  20  21
HETATM   21  C13 UNK     1      18.847   1.504  36.147  1.00  0.00     0.118 C 
HETATM   22  C16 UNK     1      18.264   1.683  37.539  1.00  0.00     0.026 C 
ENDBRANCH  20  21
BRANCH  20  23
HETATM   23  C14 UNK     1      16.441   1.180  35.665  1.00  0.00     0.118 C 
HETATM   24  C17 UNK     1      15.827  -0.137  35.223  1.00  0.00     0.026 C 
ENDBRANCH  20  23
ENDBRANCH  13  20
TORSDOF 3
ENDMDL
MODEL 2
REMARK VINA RESULT:      -7.5     23.406     24.802
REMARK  3 active torsions:
REMARK  status: ('A' for Active; 'I' for Inactive)
REMARK    1  A    between atoms: C13_18  and  N1_5 
REMARK    2  A    between atoms: C14_19  and  N1_5 
REMARK    3  A    between atoms: C9_14  and  N1_5 
ROOT
HETATM    1  O1  UNK     1      12.777  11.100  10.160  1.00  0.00    -0.332 OA
HETATM    2  O2  UNK     1      15.014   6.823   9.535  1.00  0.00    -0.274 OA
HETATM    3  O3  UNK     1      10.182   8.647   9.621  1.00  0.00    -0.289 OA
HETATM    4  O4  UNK     1      16.111   4.822   9.330  1.00  0.00    -0.260 OA
HETATM    5  C1  UNK     1      11.539  10.460  10.480  1.00  0.00     0.125 C 
HETATM    6  C2  UNK     1      12.535   8.422   9.290  1.00  0.00     0.044 C 
HETATM    7  C3  UNK     1      13.836   8.945   9.739  1.00  0.00     0.048 A 
HETATM    8  C4  UNK     1      11.305   9.125   9.766  1.00  0.00     0.196 C 
HETATM    9  C5  UNK     1      13.882  10.289  10.135  1.00  0.00     0.084 A 
HETATM   10  C6  UNK     1      10.448  11.446  10.042  1.00  0.00     0.055 C 
HETATM   11  C7  UNK     1      11.446  10.246  11.997  1.00  0.00     0.055 C 
HETATM   12  C8  UNK     1      15.033   8.210   9.822  1.00  0.00     0.103 A 
HETATM   13  C9  UNK     1      12.361   7.441   8.393  1.00  0.00     0.101 C 
HETATM   14  C10 UNK     1      16.240   8.798  10.210  1.00  0.00    -0.001 A 
HETATM   15  C11 UNK     1      15.087  10.897  10.502  1.00  0.00     0.039 A 
HETATM   16  C12 UNK     1      16.265  10.154  10.537  1.00  0.00     0.017 A 
HETATM   17  C15 UNK     1      17.446   7.985  10.268  1.00  0.00     0.020 A 
HETATM   18  C18 UNK     1      17.403   6.684   9.976  1.00  0.00     0.083 A 
HETATM   19  C19 UNK     1      16.147   6.020   9.590  1.00  0.00     0.288 A 
ENDROOT
BRANCH  13  20
HETATM   20  N1  UNK     1      11.193   6.926   7.947  1.00  0.00    -0.390 N 
BRANCH  20  21
HETATM   21  C13 UNK     1      10.556   5.805   8.622  1.00  0.00     0.118 C 
HETATM   22  C16 UNK     1      11.581   4.939   9.335  1.00  0.00     0.026 C 
ENDBRANCH  20  21
BRANCH  20  23
HETATM   23  C14 UNK     1      10.654   7.295   6.647  1.00  0.00     0.118 C 
HETATM   24  C17 UNK     1       9.866   6.149   6.035  1.00  0.00     0.026 C 
ENDBRANCH  20  23
ENDBRANCH  13  20
TORSDOF 3
ENDMDL
MODEL 3
REMARK VINA RESULT:      -7.4     21.963     24.975
REMARK  3 active torsions:
REMARK  status: ('A' for Active; 'I' for Inactive)
REMARK    1  A    between atoms: C13_18  and  N1_5 
REMARK    2  A    between atoms: C14_19  and  N1_5 
REMARK    3  A    between atoms: C9_14  and  N1_5 
ROOT
HETATM    1  O1  UNK     1      14.192   6.467   8.162  1.00  0.00    -0.332 OA
HETATM    2  O2  UNK     1       9.796   7.958   9.623  1.00  0.00    -0.274 OA
HETATM    3  O3  UNK     1      14.643   7.981  11.409  1.00  0.00    -0.289 OA
HETATM    4  O4  UNK     1       7.693   8.566  10.300  1.00  0.00    -0.260 OA
HETATM    5  C1  UNK     1      14.698   6.493   9.499  1.00  0.00     0.125 C 
HETATM    6  C2  UNK     1      12.732   8.063   9.980  1.00  0.00     0.044 C 
HETATM    7  C3  UNK     1      12.038   7.328   8.910  1.00  0.00     0.048 A 
HETATM    8  C4  UNK     1      14.081   7.571  10.396  1.00  0.00     0.196 C 
HETATM    9  C5  UNK     1      12.831   6.576   8.034  1.00  0.00     0.084 A 
HETATM   10  C6  UNK     1      16.199   6.776   9.358  1.00  0.00     0.055 C 
HETATM   11  C7  UNK     1      14.503   5.118  10.151  1.00  0.00     0.055 C 
HETATM   12  C8  UNK     1      10.647   7.301   8.701  1.00  0.00     0.103 A 
HETATM   13  C9  UNK     1      12.312   9.210  10.533  1.00  0.00     0.101 C 
HETATM   14  C10 UNK     1      10.071   6.618   7.626  1.00  0.00    -0.001 A 
HETATM   15  C11 UNK     1      12.271   5.907   6.940  1.00  0.00     0.039 A 
HETATM   16  C12 UNK     1      10.894   5.930   6.735  1.00  0.00     0.017 A 
HETATM   17  C15 UNK     1       8.625   6.634   7.460  1.00  0.00     0.020 A 
HETATM   18  C18 UNK     1       7.848   7.276   8.334  1.00  0.00     0.083 A 
HETATM   19  C19 UNK     1       8.412   7.985   9.495  1.00  0.00     0.288 A 
ENDROOT
BRANCH  13  20
HETATM   20  N1  UNK     1      12.909   9.923  11.514  1.00  0.00    -0.390 N 
BRANCH  20  21
HETATM   21  C13 UNK     1      12.463   9.830  12.896  1.00  0.00     0.118 C 
HETATM   22  C16 UNK     1      13.479  10.445  13.843  1.00  0.00     0.026 C 
ENDBRANCH  20  21
BRANCH  20  23
HETATM   23  C14 UNK     1      13.847  10.993  11.204  1.00  0.00     0.118 C 
HETATM   24  C17 UNK     1      13.156  12.135  10.479  1.00  0.00     0.026 C 
ENDBRANCH  20  23
ENDBRANCH  13  20
TORSDOF 3
ENDMDL
MODEL 4
REMARK VINA RESULT:      -7.0     13.020     15.258
REMARK  3 active torsions:
REMARK  status: ('A' for Active; 'I' for Inactive)
REMARK    1  A    between atoms: C13_18  and  N1_5 
REMARK    2  A    between atoms: C14_19  and  N1_5 
REMARK    3  A    between atoms: C9_14  and  N1_5 
ROOT
HETATM    1  O1  UNK     1      27.325  -7.535  37.615  1.00  0.00    -0.332 OA
HETATM    2  O2  UNK     1      31.202  -5.521  35.470  1.00  0.00    -0.274 OA
HETATM    3  O3  UNK     1      28.460  -9.884  35.119  1.00  0.00    -0.289 OA
HETATM    4  O4  UNK     1      33.070  -4.565  34.551  1.00  0.00    -0.260 OA
HETATM    5  C1  UNK     1      27.695  -8.841  37.166  1.00  0.00     0.125 C 
HETATM    6  C2  UNK     1      29.100  -7.604  35.417  1.00  0.00     0.044 C 
HETATM    7  C3  UNK     1      29.210  -6.542  36.431  1.00  0.00     0.048 A 
HETATM    8  C4  UNK     1      28.417  -8.873  35.815  1.00  0.00     0.196 C 
HETATM    9  C5  UNK     1      28.280  -6.561  37.479  1.00  0.00     0.084 A 
HETATM   10  C6  UNK     1      26.376  -9.613  37.033  1.00  0.00     0.055 C 
HETATM   11  C7  UNK     1      28.572  -9.521  38.225  1.00  0.00     0.055 C 
HETATM   12  C8  UNK     1      30.176  -5.520  36.448  1.00  0.00     0.103 A 
HETATM   13  C9  UNK     1      29.453  -7.487  34.129  1.00  0.00     0.101 C 
HETATM   14  C10 UNK     1      30.179  -4.517  37.421  1.00  0.00    -0.001 A 
HETATM   15  C11 UNK     1      28.255  -5.550  38.445  1.00  0.00     0.039 A 
HETATM   16  C12 UNK     1      29.201  -4.528  38.415  1.00  0.00     0.017 A 
HETATM   17  C15 UNK     1      31.202  -3.483  37.380  1.00  0.00     0.020 A 
HETATM   18  C18 UNK     1      32.146  -3.497  36.437  1.00  0.00     0.083 A 
HETATM   19  C19 UNK     1      32.196  -4.552  35.410  1.00  0.00     0.288 A 
ENDROOT
BRANCH  13  20
HETATM   20  N1  UNK     1      29.372  -8.427  33.161  1.00  0.00    -0.390 N 
BRANCH  20  21
HETATM   21  C13 UNK     1      30.481  -9.330  32.890  1.00  0.00     0.118 C 
HETATM   22  C16 UNK     1      30.051 -10.469  31.979  1.00  0.00     0.026 C 
ENDBRANCH  20  21
BRANCH  20  23
HETATM   23  C14 UNK     1      28.289  -8.418  32.189  1.00  0.00     0.118 C 
HETATM   24  C17 UNK     1      27.833  -7.000  31.889  1.00  0.00     0.026 C 
ENDBRANCH  20  23
ENDBRANCH  13  20
TORSDOF 3
ENDMDL
MODEL 5
REMARK VINA RESULT:      -7.0     23.188     25.719
REMARK  3 active torsions:
REMARK  status: ('A' for Active; 'I' for Inactive)
REMARK    1  A    between atoms: C13_18  and  N1_5 
REMARK    2  A    between atoms: C14_19  and  N1_5 
REMARK    3  A    between atoms: C9_14  and  N1_5 
ROOT
HETATM    1  O1  UNK     1       9.299   9.726  11.044  1.00  0.00    -0.332 OA
HETATM    2  O2  UNK     1      11.309   7.344   7.306  1.00  0.00    -0.274 OA
HETATM    3  O3  UNK     1      12.611  11.096  10.609  1.00  0.00    -0.289 OA
HETATM    4  O4  UNK     1      12.178   6.251   5.489  1.00  0.00    -0.260 OA
HETATM    5  C1  UNK     1      10.227  10.806  10.916  1.00  0.00     0.125 C 
HETATM    6  C2  UNK     1      11.678   9.123   9.643  1.00  0.00     0.044 C 
HETATM    7  C3  UNK     1      10.402   8.505   9.245  1.00  0.00     0.048 A 
HETATM    8  C4  UNK     1      11.617  10.401  10.416  1.00  0.00     0.196 C 
HETATM    9  C5  UNK     1       9.270   8.835  10.002  1.00  0.00     0.084 A 
HETATM   10  C6  UNK     1      10.367  11.388  12.329  1.00  0.00     0.055 C 
HETATM   11  C7  UNK     1       9.646  11.878   9.985  1.00  0.00     0.055 C 
HETATM   12  C8  UNK     1      10.218   7.625   8.164  1.00  0.00     0.103 A 
HETATM   13  C9  UNK     1      12.891   8.576   9.475  1.00  0.00     0.101 C 
HETATM   14  C10 UNK     1       8.979   7.039   7.886  1.00  0.00    -0.001 A 
HETATM   15  C11 UNK     1       8.030   8.238   9.751  1.00  0.00     0.039 A 
HETATM   16  C12 UNK     1       7.885   7.339   8.697  1.00  0.00     0.017 A 
HETATM   17  C15 UNK     1       8.855   6.130   6.756  1.00  0.00     0.020 A 
HETATM   18  C18 UNK     1       9.904   5.870   5.974  1.00  0.00     0.083 A 
HETATM   19  C19 UNK     1      11.219   6.487   6.216  1.00  0.00     0.288 A 
ENDROOT
BRANCH  13  20
HETATM   20  N1  UNK     1      14.088   9.100   9.821  1.00  0.00    -0.390 N 
BRANCH  20  21
HETATM   21  C13 UNK     1      14.895   9.840   8.862  1.00  0.00     0.118 C 
HETATM   22  C16 UNK     1      15.946  10.683   9.564  1.00  0.00     0.026 C 
ENDBRANCH  20  21
BRANCH  20  23
HETATM   23  C14 UNK     1      14.735   8.740  11.074  1.00  0.00     0.118 C 
HETATM   24  C17 UNK     1      15.429   7.393  10.966  1.00  0.00     0.026 C 
ENDBRANCH  20  23
ENDBRANCH  13  20
TORSDOF 3
ENDMDL
MODEL 6
REMARK VINA RESULT:      -6.9     13.745     15.445
REMARK  3 active torsions:
REMARK  status: ('A' for Active; 'I' for Inactive)
REMARK    1  A    between atoms: C13_18  and  N1_5 
REMARK    2  A    between atoms: C14_19  and  N1_5 
REMARK    3  A    between atoms: C9_14  and  N1_5 
ROOT
HETATM    1  O1  UNK     1      32.184  -5.624  33.670  1.00  0.00    -0.332 OA
HETATM    2  O2  UNK     1      29.312  -6.072  37.574  1.00  0.00    -0.274 OA
HETATM    3  O3  UNK     1      29.889  -8.320  32.959  1.00  0.00    -0.289 OA
HETATM    4  O4  UNK     1      27.935  -6.187  39.401  1.00  0.00    -0.260 OA
HETATM    5  C1  UNK     1      31.247  -6.318  32.842  1.00  0.00     0.125 C 
HETATM    6  C2  UNK     1      30.313  -7.237  35.043  1.00  0.00     0.044 C 
HETATM    7  C3  UNK     1      30.777  -5.969  35.631  1.00  0.00     0.048 A 
HETATM    8  C4  UNK     1      30.434  -7.399  33.562  1.00  0.00     0.196 C 
HETATM    9  C5  UNK     1      31.722  -5.235  34.901  1.00  0.00     0.084 A 
HETATM   10  C6  UNK     1      32.092  -6.989  31.750  1.00  0.00     0.055 C 
HETATM   11  C7  UNK     1      30.290  -5.312  32.191  1.00  0.00     0.055 C 
HETATM   12  C8  UNK     1      30.343  -5.423  36.852  1.00  0.00     0.103 A 
HETATM   13  C9  UNK     1      29.902  -8.308  35.736  1.00  0.00     0.101 C 
HETATM   14  C10 UNK     1      30.875  -4.236  37.365  1.00  0.00    -0.001 A 
HETATM   15  C11 UNK     1      32.281  -4.060  35.413  1.00  0.00     0.039 A 
HETATM   16  C12 UNK     1      31.860  -3.562  36.644  1.00  0.00     0.017 A 
HETATM   17  C15 UNK     1      30.389  -3.725  38.638  1.00  0.00     0.020 A 
HETATM   18  C18 UNK     1      29.429  -4.368  39.306  1.00  0.00     0.083 A 
HETATM   19  C19 UNK     1      28.823  -5.605  38.787  1.00  0.00     0.288 A 
ENDROOT
BRANCH  13  20
HETATM   20  N1  UNK     1      29.467  -9.492  35.247  1.00  0.00    -0.390 N 
BRANCH  20  21
HETATM   21  C13 UNK     1      28.051  -9.827  35.225  1.00  0.00     0.118 C 
HETATM   22  C16 UNK     1      27.370  -9.417  36.520  1.00  0.00     0.026 C 
ENDBRANCH  20  21
BRANCH  20  23
HETATM   23  C14 UNK     1      30.397 -10.574  34.958  1.00  0.00     0.118 C 
HETATM   24  C17 UNK     1      31.557 -10.578  35.938  1.00  0.00     0.026 C 
ENDBRANCH  20  23
ENDBRANCH  13  20
TORSDOF 3
ENDMDL
MODEL 7
REMARK VINA RESULT:      -6.8     13.191     15.894
REMARK  3 active torsions:
REMARK  status: ('A' for Active; 'I' for Inactive)
REMARK    1  A    between atoms: C13_18  and  N1_5 
REMARK    2  A    between atoms: C14_19  and  N1_5 
REMARK    3  A    between atoms: C9_14  and  N1_5 
ROOT
HETATM    1  O1  UNK     1      31.919  -3.933  36.547  1.00  0.00    -0.332 OA
HETATM    2  O2  UNK     1      33.177  -7.610  33.617  1.00  0.00    -0.274 OA
HETATM    3  O3  UNK     1      29.513  -6.566  37.105  1.00  0.00    -0.289 OA
HETATM    4  O4  UNK     1      33.860  -9.341  32.281  1.00  0.00    -0.260 OA
HETATM    5  C1  UNK     1      31.145  -4.799  37.381  1.00  0.00     0.125 C 
HETATM    6  C2  UNK     1      31.129  -6.372  35.360  1.00  0.00     0.044 C 
HETATM    7  C3  UNK     1      32.434  -5.773  35.033  1.00  0.00     0.048 A 
HETATM    8  C4  UNK     1      30.486  -5.972  36.648  1.00  0.00     0.196 C 
HETATM    9  C5  UNK     1      32.746  -4.551  35.645  1.00  0.00     0.084 A 
HETATM   10  C6  UNK     1      30.042  -3.912  37.973  1.00  0.00     0.055 C 
HETATM   11  C7  UNK     1      32.022  -5.340  38.518  1.00  0.00     0.055 C 
HETATM   12  C8  UNK     1      33.400  -6.327  34.175  1.00  0.00     0.103 A 
HETATM   13  C9  UNK     1      30.410  -7.156  34.544  1.00  0.00     0.101 C 
HETATM   14  C10 UNK     1      34.596  -5.666  33.877  1.00  0.00    -0.001 A 
HETATM   15  C11 UNK     1      33.926  -3.867  35.337  1.00  0.00     0.039 A 
HETATM   16  C12 UNK     1      34.849  -4.421  34.453  1.00  0.00     0.017 A 
HETATM   17  C15 UNK     1      35.553  -6.289  32.975  1.00  0.00     0.020 A 
HETATM   18  C18 UNK     1      35.309  -7.491  32.450  1.00  0.00     0.083 A 
HETATM   19  C19 UNK     1      34.076  -8.233  32.760  1.00  0.00     0.288 A 
ENDROOT
BRANCH  13  20
HETATM   20  N1  UNK     1      29.211  -7.729  34.793  1.00  0.00    -0.390 N 
BRANCH  20  21
HETATM   21  C13 UNK     1      29.109  -9.126  35.189  1.00  0.00     0.118 C 
HETATM   22  C16 UNK     1      27.754  -9.422  35.812  1.00  0.00     0.026 C 
ENDBRANCH  20  21
BRANCH  20  23
HETATM   23  C14 UNK     1      27.967  -7.061  34.440  1.00  0.00     0.118 C 
HETATM   24  C17 UNK     1      28.119  -6.262  33.156  1.00  0.00     0.026 C 
ENDBRANCH  20  23
ENDBRANCH  13  20
TORSDOF 3
ENDMDL
MODEL 8
REMARK VINA RESULT:      -6.7     12.712     15.870
REMARK  3 active torsions:
REMARK  status: ('A' for Active; 'I' for Inactive)
REMARK    1  A    between atoms: C13_18  and  N1_5 
REMARK    2  A    between atoms: C14_19  and  N1_5 
REMARK    3  A    between atoms: C9_14  and  N1_5 
ROOT
HETATM    1  O1  UNK     1      33.490  -5.959  36.221  1.00  0.00    -0.332 OA
HETATM    2  O2  UNK     1      29.114  -8.090  36.144  1.00  0.00    -0.274 OA
HETATM    3  O3  UNK     1      31.643  -4.426  33.524  1.00  0.00    -0.289 OA
HETATM    4  O4  UNK     1      27.042  -9.065  36.204  1.00  0.00    -0.260 OA
HETATM    5  C1  UNK     1      33.008  -4.834  35.483  1.00  0.00     0.125 C 
HETATM    6  C2  UNK     1      31.110  -6.395  34.762  1.00  0.00     0.044 C 
HETATM    7  C3  UNK     1      31.317  -7.053  36.063  1.00  0.00     0.048 A 
HETATM    8  C4  UNK     1      31.895  -5.155  34.480  1.00  0.00     0.196 C 
HETATM    9  C5  UNK     1      32.532  -6.806  36.717  1.00  0.00     0.084 A 
HETATM   10  C6  UNK     1      34.224  -4.307  34.710  1.00  0.00     0.055 C 
HETATM   11  C7  UNK     1      32.519  -3.751  36.453  1.00  0.00     0.055 C 
HETATM   12  C8  UNK     1      30.397  -7.894  36.714  1.00  0.00     0.103 A 
HETATM   13  C9  UNK     1      30.365  -6.880  33.757  1.00  0.00     0.101 C 
HETATM   14  C10 UNK     1      30.694  -8.523  37.927  1.00  0.00    -0.001 A 
HETATM   15  C11 UNK     1      32.853  -7.446  37.918  1.00  0.00     0.039 A 
HETATM   16  C12 UNK     1      31.937  -8.306  38.521  1.00  0.00     0.017 A 
HETATM   17  C15 UNK     1      29.701  -9.388  38.547  1.00  0.00     0.020 A 
HETATM   18  C18 UNK     1      28.507  -9.568  37.979  1.00  0.00     0.083 A 
HETATM   19  C19 UNK     1      28.144  -8.903  36.717  1.00  0.00     0.288 A 
ENDROOT
BRANCH  13  20
HETATM   20  N1  UNK     1      30.143  -6.319  32.548  1.00  0.00    -0.390 N 
BRANCH  20  21
HETATM   21  C13 UNK     1      28.977  -5.482  32.305  1.00  0.00     0.118 C 
HETATM   22  C16 UNK     1      27.726  -6.097  32.909  1.00  0.00     0.026 C 
ENDBRANCH  20  21
BRANCH  20  23
HETATM   23  C14 UNK     1      30.910  -6.721  31.378  1.00  0.00     0.118 C 
HETATM   24  C17 UNK     1      30.545  -5.879  30.167  1.00  0.00     0.026 C 
ENDBRANCH  20  23
ENDBRANCH  13  20
TORSDOF 3
ENDMDL
MODEL 9
REMARK VINA RESULT:      -6.7     22.698     24.436
REMARK  3 active torsions:
REMARK  status: ('A' for Active; 'I' for Inactive)
REMARK    1  A    between atoms: C13_18  and  N1_5 
REMARK    2  A    between atoms: C14_19  and  N1_5 
REMARK    3  A    between atoms: C9_14  and  N1_5 
ROOT
HETATM    1  O1  UNK     1      11.287   6.169   9.319  1.00  0.00    -0.332 OA
HETATM    2  O2  UNK     1      15.368   8.710  10.075  1.00  0.00    -0.274 OA
HETATM    3  O3  UNK     1      10.345   9.654   9.328  1.00  0.00    -0.289 OA
HETATM    4  O4  UNK     1      17.329   9.862  10.351  1.00  0.00    -0.260 OA
HETATM    5  C1  UNK     1      10.619   7.311   8.779  1.00  0.00     0.125 C 
HETATM    6  C2  UNK     1      12.409   8.669  10.009  1.00  0.00     0.044 C 
HETATM    7  C3  UNK     1      13.275   7.498   9.794  1.00  0.00     0.048 A 
HETATM    8  C4  UNK     1      11.052   8.652   9.383  1.00  0.00     0.196 C 
HETATM    9  C5  UNK     1      12.644   6.287   9.477  1.00  0.00     0.084 A 
HETATM   10  C6  UNK     1       9.132   7.095   9.090  1.00  0.00     0.055 C 
HETATM   11  C7  UNK     1      10.815   7.354   7.259  1.00  0.00     0.055 C 
HETATM   12  C8  UNK     1      14.680   7.491   9.863  1.00  0.00     0.103 A 
HETATM   13  C9  UNK     1      12.687   9.700  10.820  1.00  0.00     0.101 C 
HETATM   14  C10 UNK     1      15.426   6.320   9.696  1.00  0.00    -0.001 A 
HETATM   15  C11 UNK     1      13.375   5.104   9.332  1.00  0.00     0.039 A 
HETATM   16  C12 UNK     1      14.764   5.119   9.444  1.00  0.00     0.017 A 
HETATM   17  C15 UNK     1      16.877   6.378   9.787  1.00  0.00     0.020 A 
HETATM   18  C18 UNK     1      17.499   7.538  10.005  1.00  0.00     0.083 A 
HETATM   19  C19 UNK     1      16.753   8.798  10.159  1.00  0.00     0.288 A 
ENDROOT
BRANCH  13  20
HETATM   20  N1  UNK     1      11.929  10.795  11.053  1.00  0.00    -0.390 N 
BRANCH  20  21
HETATM   21  C13 UNK     1      12.166  12.043  10.342  1.00  0.00     0.118 C 
HETATM   22  C16 UNK     1      13.644  12.397  10.334  1.00  0.00     0.026 C 
ENDBRANCH  20  21
BRANCH  20  23
HETATM   23  C14 UNK     1      11.019  10.856  12.188  1.00  0.00     0.118 C 
HETATM   24  C17 UNK     1      11.762  10.652  13.497  1.00  0.00     0.026 C 
ENDBRANCH  20  23
ENDBRANCH  13  20
TORSDOF 3
ENDMDL
MODEL 10
REMARK VINA RESULT:      -6.7     14.089     15.754
REMARK  3 active torsions:
REMARK  status: ('A' for Active; 'I' for Inactive)
REMARK    1  A    between atoms: C13_18  and  N1_5 
REMARK    2  A    between atoms: C14_19  and  N1_5 
REMARK    3  A    between atoms: C9_14  and  N1_5 
ROOT
HETATM    1  O1  UNK     1      30.714  -5.186  36.289  1.00  0.00    -0.332 OA
HETATM    2  O2  UNK     1      31.295  -9.941  35.428  1.00  0.00    -0.274 OA
HETATM    3  O3  UNK     1      29.143  -6.931  39.032  1.00  0.00    -0.289 OA
HETATM    4  O4  UNK     1      31.667 -12.164  35.018  1.00  0.00    -0.260 OA
HETATM    5  C1  UNK     1      30.464  -5.419  37.677  1.00  0.00     0.125 C 
HETATM    6  C2  UNK     1      29.912  -7.813  36.952  1.00  0.00     0.044 C 
HETATM    7  C3  UNK     1      30.882  -7.581  35.869  1.00  0.00     0.048 A 
HETATM    8  C4  UNK     1      29.762  -6.745  37.988  1.00  0.00     0.196 C 
HETATM    9  C5  UNK     1      31.213  -6.250  35.583  1.00  0.00     0.084 A 
HETATM   10  C6  UNK     1      29.552  -4.269  38.123  1.00  0.00     0.055 C 
HETATM   11  C7  UNK     1      31.782  -5.349  38.458  1.00  0.00     0.055 C 
HETATM   12  C8  UNK     1      31.516  -8.579  35.107  1.00  0.00     0.103 A 
HETATM   13  C9  UNK     1      29.064  -8.848  37.025  1.00  0.00     0.101 C 
HETATM   14  C10 UNK     1      32.387  -8.271  34.057  1.00  0.00    -0.001 A 
HETATM   15  C11 UNK     1      32.063  -5.926  34.521  1.00  0.00     0.039 A 
HETATM   16  C12 UNK     1      32.648  -6.934  33.757  1.00  0.00     0.017 A 
HETATM   17  C15 UNK     1      33.006  -9.349  33.301  1.00  0.00     0.020 A 
HETATM   18  C18 UNK     1      32.767 -10.623  33.614  1.00  0.00     0.083 A 
HETATM   19  C19 UNK     1      31.878 -10.991  34.729  1.00  0.00     0.288 A 
ENDROOT
BRANCH  13  20
HETATM   20  N1  UNK     1      28.157  -9.107  37.995  1.00  0.00    -0.390 N 
BRANCH  20  21
HETATM   21  C13 UNK     1      28.511  -9.885  39.173  1.00  0.00     0.118 C 
HETATM   22  C16 UNK     1      27.389  -9.870  40.197  1.00  0.00     0.026 C 
ENDBRANCH  20  21
BRANCH  20  23
HETATM   23  C14 UNK     1      26.740  -8.842  37.792  1.00  0.00     0.118 C 
HETATM   24  C17 UNK     1      26.145  -9.794  36.768  1.00  0.00     0.026 C 
ENDBRANCH  20  23
ENDBRANCH  13  20
TORSDOF 3
ENDMDL
