MODEL 1
REMARK VINA RESULT:      -9.6      0.000      0.000
REMARK  6 active torsions:
REMARK  status: ('A' for Active; 'I' for Inactive)
REMARK    1  A    between atoms: C13_19  and  O2_3 
REMARK    2  A    between atoms: C18_24  and  O2_3 
REMARK    3  A    between atoms: C12_18  and  N1_5 
REMARK    4  A    between atoms: C4_10  and  N1_5 
REMARK    5  A    between atoms: C11_17  and  N2_6 
REMARK    6  A    between atoms: C12_18  and  N2_6 
ROOT
HETATM    1  S1  UNK     1      17.912   1.696  28.695  1.00  0.00    -0.041 SA
HETATM    2  C12 UNK     1      18.777   1.488  30.127  1.00  0.00     0.176 C 
ENDROOT
BRANCH   2   3
HETATM    3  N1  UNK     1      19.014   0.271  30.772  1.00  0.00    -0.333 N 
HETATM    4  H8  UNK     1      18.902  -0.531  30.162  1.00  0.00     0.168 HD
BRANCH   3   5
HETATM    5  C4  UNK     1      18.905  -0.108  32.110  1.00  0.00     0.036 A 
HETATM    6  C5  UNK     1      18.308   0.746  33.032  1.00  0.00     0.067 A 
HETATM    7  C2  UNK     1      18.209   0.348  34.365  1.00  0.00     0.092 A 
HETATM    8  C1  UNK     1      18.689  -0.884  34.813  1.00  0.00     0.004 A 
HETATM    9  O1  UNK     1      17.593   1.254  35.251  1.00  0.00    -0.275 OA
HETATM   10  C3  UNK     1      18.542  -1.222  36.236  1.00  0.00    -0.043 A 
HETATM   11  C6  UNK     1      19.288  -1.730  33.870  1.00  0.00     0.017 A 
HETATM   12  C8  UNK     1      17.953  -0.340  37.055  1.00  0.00     0.090 A 
HETATM   13  C9  UNK     1      19.049  -2.538  36.748  1.00  0.00     0.049 C 
HETATM   14  C10 UNK     1      17.441   0.963  36.597  1.00  0.00     0.288 A 
HETATM   15  O3  UNK     1      16.908   1.746  37.377  1.00  0.00    -0.260 OA
HETATM   16  C7  UNK     1      19.394  -1.344  32.529  1.00  0.00     0.030 A 
ENDBRANCH   3   5
ENDBRANCH   2   3
BRANCH   2  17
HETATM   17  N2  UNK     1      19.404   2.611  30.643  1.00  0.00    -0.333 N 
HETATM   18  H9  UNK     1      20.298   2.415  31.089  1.00  0.00     0.168 HD
BRANCH  17  19
HETATM   19  C11 UNK     1      18.933   3.933  30.848  1.00  0.00     0.034 A 
HETATM   20  C14 UNK     1      18.190   4.216  31.981  1.00  0.00     0.032 A 
HETATM   21  C16 UNK     1      17.725   5.516  32.182  1.00  0.00     0.039 A 
HETATM   22  C13 UNK     1      18.012   6.511  31.248  1.00  0.00     0.076 A 
HETATM   23  C17 UNK     1      18.763   6.207  30.112  1.00  0.00     0.039 A 
HETATM   24  C15 UNK     1      19.227   4.906  29.911  1.00  0.00     0.032 A 
BRANCH  22  25
HETATM   25  O2  UNK     1      17.561   7.780  31.445  1.00  0.00    -0.311 OA
BRANCH  25  26
HETATM   26  C18 UNK     1      16.474   7.954  32.286  1.00  0.00     0.076 A 
HETATM   27  C19 UNK     1      15.232   7.500  31.883  1.00  0.00     0.037 A 
HETATM   28  C21 UNK     1      14.137   7.676  32.729  1.00  0.00     0.003 A 
HETATM   29  C23 UNK     1      14.303   8.303  33.964  1.00  0.00     0.000 A 
HETATM   30  C22 UNK     1      15.565   8.754  34.352  1.00  0.00     0.003 A 
HETATM   31  C20 UNK     1      16.660   8.578  33.505  1.00  0.00     0.037 A 
ENDBRANCH  25  26
ENDBRANCH  22  25
ENDBRANCH  17  19
ENDBRANCH   2  17
TORSDOF 6
ENDMDL
MODEL 2
REMARK VINA RESULT:      -9.6      5.935      8.880
REMARK  6 active torsions:
REMARK  status: ('A' for Active; 'I' for Inactive)
REMARK    1  A    between atoms: C13_19  and  O2_3 
REMARK    2  A    between atoms: C18_24  and  O2_3 
REMARK    3  A    between atoms: C12_18  and  N1_5 
REMARK    4  A    between atoms: C4_10  and  N1_5 
REMARK    5  A    between atoms: C11_17  and  N2_6 
REMARK    6  A    between atoms: C12_18  and  N2_6 
ROOT
HETATM    1  S1  UNK     1      20.706  -3.527  37.457  1.00  0.00    -0.041 SA
HETATM    2  C12 UNK     1      19.823  -3.778  36.044  1.00  0.00     0.176 C 
ENDROOT
BRANCH   2   3
HETATM    3  N1  UNK     1      19.428  -5.018  35.532  1.00  0.00    -0.333 N 
HETATM    4  H8  UNK     1      18.603  -4.961  34.945  1.00  0.00     0.168 HD
BRANCH   3   5
HETATM    5  C4  UNK     1      19.610  -6.318  36.003  1.00  0.00     0.036 A 
HETATM    6  C5  UNK     1      20.556  -7.149  35.412  1.00  0.00     0.067 A 
HETATM    7  C2  UNK     1      20.723  -8.446  35.899  1.00  0.00     0.092 A 
HETATM    8  C1  UNK     1      19.971  -8.945  36.964  1.00  0.00     0.004 A 
HETATM    9  O1  UNK     1      21.697  -9.240  35.260  1.00  0.00    -0.275 OA
HETATM   10  C3  UNK     1      20.214 -10.323  37.412  1.00  0.00    -0.043 A 
HETATM   11  C6  UNK     1      19.023  -8.092  37.546  1.00  0.00     0.017 A 
HETATM   12  C8  UNK     1      21.146 -11.055  36.785  1.00  0.00     0.090 A 
HETATM   13  C9  UNK     1      19.422 -10.889  38.554  1.00  0.00     0.049 C 
HETATM   14  C10 UNK     1      21.947 -10.543  35.661  1.00  0.00     0.288 A 
HETATM   15  O3  UNK     1      22.791 -11.242  35.111  1.00  0.00    -0.260 OA
HETATM   16  C7  UNK     1      18.845  -6.790  37.068  1.00  0.00     0.030 A 
ENDBRANCH   3   5
ENDBRANCH   2   3
BRANCH   2  17
HETATM   17  N2  UNK     1      19.349  -2.647  35.397  1.00  0.00    -0.333 N 
HETATM   18  H9  UNK     1      18.586  -2.183  35.886  1.00  0.00     0.168 HD
BRANCH  17  19
HETATM   19  C11 UNK     1      19.588  -2.148  34.091  1.00  0.00     0.034 A 
HETATM   20  C14 UNK     1      20.675  -2.621  33.378  1.00  0.00     0.032 A 
HETATM   21  C16 UNK     1      20.912  -2.129  32.093  1.00  0.00     0.039 A 
HETATM   22  C13 UNK     1      20.056  -1.174  31.545  1.00  0.00     0.076 A 
HETATM   23  C17 UNK     1      18.965  -0.709  32.279  1.00  0.00     0.039 A 
HETATM   24  C15 UNK     1      18.729  -1.201  33.564  1.00  0.00     0.032 A 
BRANCH  22  25
HETATM   25  O2  UNK     1      20.285  -0.695  30.291  1.00  0.00    -0.311 OA
BRANCH  25  26
HETATM   26  C18 UNK     1      19.506   0.363  29.853  1.00  0.00     0.076 A 
HETATM   27  C19 UNK     1      18.813   0.243  28.663  1.00  0.00     0.037 A 
HETATM   28  C21 UNK     1      18.030   1.309  28.222  1.00  0.00     0.003 A 
HETATM   29  C23 UNK     1      17.952   2.478  28.980  1.00  0.00     0.000 A 
HETATM   30  C22 UNK     1      18.659   2.580  30.178  1.00  0.00     0.003 A 
HETATM   31  C20 UNK     1      19.443   1.513  30.619  1.00  0.00     0.037 A 
ENDBRANCH  25  26
ENDBRANCH  22  25
ENDBRANCH  17  19
ENDBRANCH   2  17
TORSDOF 6
ENDMDL
MODEL 3
REMARK VINA RESULT:      -9.5      3.697     10.108
REMARK  6 active torsions:
REMARK  status: ('A' for Active; 'I' for Inactive)
REMARK    1  A    between atoms: C13_19  and  O2_3 
REMARK    2  A    between atoms: C18_24  and  O2_3 
REMARK    3  A    between atoms: C12_18  and  N1_5 
REMARK    4  A    between atoms: C4_10  and  N1_5 
REMARK    5  A    between atoms: C11_17  and  N2_6 
REMARK    6  A    between atoms: C12_18  and  N2_6 
ROOT
HETATM    1  S1  UNK     1      16.336   1.469  37.269  1.00  0.00    -0.041 SA
HETATM    2  C12 UNK     1      17.400   1.313  35.971  1.00  0.00     0.176 C 
ENDROOT
BRANCH   2   3
HETATM    3  N1  UNK     1      18.240   2.313  35.473  1.00  0.00    -0.333 N 
HETATM    4  H8  UNK     1      18.561   2.956  36.190  1.00  0.00     0.168 HD
BRANCH   3   5
HETATM    5  C4  UNK     1      18.351   2.889  34.208  1.00  0.00     0.036 A 
HETATM    6  C5  UNK     1      18.275   2.094  33.069  1.00  0.00     0.067 A 
HETATM    7  C2  UNK     1      18.387   2.690  31.813  1.00  0.00     0.092 A 
HETATM    8  C1  UNK     1      18.574   4.065  31.654  1.00  0.00     0.004 A 
HETATM    9  O1  UNK     1      18.301   1.834  30.697  1.00  0.00    -0.275 OA
HETATM   10  C3  UNK     1      18.682   4.607  30.293  1.00  0.00    -0.043 A 
HETATM   11  C6  UNK     1      18.649   4.848  32.813  1.00  0.00     0.017 A 
HETATM   12  C8  UNK     1      18.597   3.769  29.250  1.00  0.00     0.090 A 
HETATM   13  C9  UNK     1      18.884   6.080  30.089  1.00  0.00     0.049 C 
HETATM   14  C10 UNK     1      18.400   2.317  29.402  1.00  0.00     0.288 A 
HETATM   15  O3  UNK     1      18.327   1.580  28.425  1.00  0.00    -0.260 OA
HETATM   16  C7  UNK     1      18.538   4.264  34.079  1.00  0.00     0.030 A 
ENDBRANCH   3   5
ENDBRANCH   2   3
BRANCH   2  17
HETATM   17  N2  UNK     1      17.536   0.044  35.427  1.00  0.00    -0.333 N 
HETATM   18  H9  UNK     1      16.786  -0.212  34.788  1.00  0.00     0.168 HD
BRANCH  17  19
HETATM   19  C11 UNK     1      18.403  -1.027  35.759  1.00  0.00     0.034 A 
HETATM   20  C14 UNK     1      18.403  -1.519  37.052  1.00  0.00     0.032 A 
HETATM   21  C16 UNK     1      19.258  -2.572  37.381  1.00  0.00     0.039 A 
HETATM   22  C13 UNK     1      20.098  -3.115  36.409  1.00  0.00     0.076 A 
HETATM   23  C17 UNK     1      20.085  -2.606  35.110  1.00  0.00     0.039 A 
HETATM   24  C15 UNK     1      19.230  -1.553  34.783  1.00  0.00     0.032 A 
BRANCH  22  25
HETATM   25  O2  UNK     1      20.931  -4.144  36.728  1.00  0.00    -0.311 OA
BRANCH  25  26
HETATM   26  C18 UNK     1      20.361  -5.301  37.233  1.00  0.00     0.076 A 
HETATM   27  C19 UNK     1      20.735  -5.742  38.489  1.00  0.00     0.037 A 
HETATM   28  C21 UNK     1      20.163  -6.908  38.997  1.00  0.00     0.003 A 
HETATM   29  C23 UNK     1      19.224  -7.611  38.243  1.00  0.00     0.000 A 
HETATM   30  C22 UNK     1      18.859  -7.149  36.978  1.00  0.00     0.003 A 
HETATM   31  C20 UNK     1      19.433  -5.983  36.469  1.00  0.00     0.037 A 
ENDBRANCH  25  26
ENDBRANCH  22  25
ENDBRANCH  17  19
ENDBRANCH   2  17
TORSDOF 6
ENDMDL
MODEL 4
REMARK VINA RESULT:      -9.5      4.052      9.344
REMARK  6 active torsions:
REMARK  status: ('A' for Active; 'I' for Inactive)
REMARK    1  A    between atoms: C13_19  and  O2_3 
REMARK    2  A    between atoms: C18_24  and  O2_3 
REMARK    3  A    between atoms: C12_18  and  N1_5 
REMARK    4  A    between atoms: C4_10  and  N1_5 
REMARK    5  A    between atoms: C11_17  and  N2_6 
REMARK    6  A    between atoms: C12_18  and  N2_6 
ROOT
HETATM    1  S1  UNK     1      19.735   8.786  34.326  1.00  0.00    -0.041 SA
HETATM    2  C12 UNK     1      18.828   7.554  33.618  1.00  0.00     0.176 C 
ENDROOT
BRANCH   2   3
HETATM    3  N1  UNK     1      17.435   7.438  33.650  1.00  0.00    -0.333 N 
HETATM    4  H8  UNK     1      17.097   6.594  33.201  1.00  0.00     0.168 HD
BRANCH   3   5
HETATM    5  C4  UNK     1      16.425   8.396  33.727  1.00  0.00     0.036 A 
HETATM    6  C5  UNK     1      16.135   9.010  34.941  1.00  0.00     0.067 A 
HETATM    7  C2  UNK     1      15.120   9.966  34.996  1.00  0.00     0.092 A 
HETATM    8  C1  UNK     1      14.380  10.333  33.871  1.00  0.00     0.004 A 
HETATM    9  O1  UNK     1      14.874  10.554  36.253  1.00  0.00    -0.275 OA
HETATM   10  C3  UNK     1      13.329  11.350  34.021  1.00  0.00    -0.043 A 
HETATM   11  C6  UNK     1      14.686   9.703  32.657  1.00  0.00     0.017 A 
HETATM   12  C8  UNK     1      13.117  11.891  35.229  1.00  0.00     0.090 A 
HETATM   13  C9  UNK     1      12.515  11.765  32.830  1.00  0.00     0.049 C 
HETATM   14  C10 UNK     1      13.890  11.515  36.424  1.00  0.00     0.288 A 
HETATM   15  O3  UNK     1      13.667  12.032  37.514  1.00  0.00    -0.260 OA
HETATM   16  C7  UNK     1      15.701   8.742  32.587  1.00  0.00     0.030 A 
ENDBRANCH   3   5
ENDBRANCH   2   3
BRANCH   2  17
HETATM   17  N2  UNK     1      19.521   6.641  32.838  1.00  0.00    -0.333 N 
HETATM   18  H9  UNK     1      20.453   6.952  32.571  1.00  0.00     0.168 HD
BRANCH  17  19
HETATM   19  C11 UNK     1      19.093   5.462  32.177  1.00  0.00     0.034 A 
HETATM   20  C14 UNK     1      19.343   5.319  30.824  1.00  0.00     0.032 A 
HETATM   21  C16 UNK     1      18.920   4.160  30.172  1.00  0.00     0.039 A 
HETATM   22  C13 UNK     1      18.255   3.163  30.886  1.00  0.00     0.076 A 
HETATM   23  C17 UNK     1      18.011   3.325  32.250  1.00  0.00     0.039 A 
HETATM   24  C15 UNK     1      18.434   4.485  32.901  1.00  0.00     0.032 A 
BRANCH  22  25
HETATM   25  O2  UNK     1      17.844   2.031  30.252  1.00  0.00    -0.311 OA
BRANCH  25  26
HETATM   26  C18 UNK     1      18.795   1.057  29.992  1.00  0.00     0.076 A 
HETATM   27  C19 UNK     1      18.931   0.576  28.703  1.00  0.00     0.037 A 
HETATM   28  C21 UNK     1      19.887  -0.405  28.442  1.00  0.00     0.003 A 
HETATM   29  C23 UNK     1      20.692  -0.887  29.473  1.00  0.00     0.000 A 
HETATM   30  C22 UNK     1      20.539  -0.389  30.767  1.00  0.00     0.003 A 
HETATM   31  C20 UNK     1      19.582   0.592  31.029  1.00  0.00     0.037 A 
ENDBRANCH  25  26
ENDBRANCH  22  25
ENDBRANCH  17  19
ENDBRANCH   2  17
TORSDOF 6
ENDMDL
MODEL 5
REMARK VINA RESULT:      -9.5      1.516      2.328
REMARK  6 active torsions:
REMARK  status: ('A' for Active; 'I' for Inactive)
REMARK    1  A    between atoms: C13_19  and  O2_3 
REMARK    2  A    between atoms: C18_24  and  O2_3 
REMARK    3  A    between atoms: C12_18  and  N1_5 
REMARK    4  A    between atoms: C4_10  and  N1_5 
REMARK    5  A    between atoms: C11_17  and  N2_6 
REMARK    6  A    between atoms: C12_18  and  N2_6 
ROOT
HETATM    1  S1  UNK     1      17.915   1.683  28.654  1.00  0.00    -0.041 SA
HETATM    2  C12 UNK     1      18.725   1.451  30.114  1.00  0.00     0.176 C 
ENDROOT
BRANCH   2   3
HETATM    3  N1  UNK     1      18.876   0.233  30.784  1.00  0.00    -0.333 N 
HETATM    4  H8  UNK     1      18.642  -0.569  30.208  1.00  0.00     0.168 HD
BRANCH   3   5
HETATM    5  C4  UNK     1      18.816  -0.096  32.138  1.00  0.00     0.036 A 
HETATM    6  C5  UNK     1      19.450  -1.241  32.608  1.00  0.00     0.067 A 
HETATM    7  C2  UNK     1      19.378  -1.551  33.966  1.00  0.00     0.092 A 
HETATM    8  C1  UNK     1      18.687  -0.750  34.878  1.00  0.00     0.004 A 
HETATM    9  O1  UNK     1      20.042  -2.722  34.383  1.00  0.00    -0.275 OA
HETATM   10  C3  UNK     1      18.663  -1.153  36.291  1.00  0.00    -0.043 A 
HETATM   11  C6  UNK     1      18.054   0.398  34.385  1.00  0.00     0.017 A 
HETATM   12  C8  UNK     1      19.303  -2.273  36.658  1.00  0.00     0.090 A 
HETATM   13  C9  UNK     1      17.929  -0.315  37.296  1.00  0.00     0.049 C 
HETATM   14  C10 UNK     1      20.036  -3.126  35.708  1.00  0.00     0.288 A 
HETATM   15  O3  UNK     1      20.610  -4.145  36.081  1.00  0.00    -0.260 OA
HETATM   16  C7  UNK     1      18.118   0.722  33.026  1.00  0.00     0.030 A 
ENDBRANCH   3   5
ENDBRANCH   2   3
BRANCH   2  17
HETATM   17  N2  UNK     1      19.400   2.546  30.632  1.00  0.00    -0.333 N 
HETATM   18  H9  UNK     1      20.333   2.329  30.977  1.00  0.00     0.168 HD
BRANCH  17  19
HETATM   19  C11 UNK     1      18.951   3.850  30.958  1.00  0.00     0.034 A 
HETATM   20  C14 UNK     1      18.269   4.052  32.145  1.00  0.00     0.032 A 
HETATM   21  C16 UNK     1      17.825   5.335  32.467  1.00  0.00     0.039 A 
HETATM   22  C13 UNK     1      18.071   6.396  31.595  1.00  0.00     0.076 A 
HETATM   23  C17 UNK     1      18.761   6.174  30.402  1.00  0.00     0.039 A 
HETATM   24  C15 UNK     1      19.204   4.890  30.082  1.00  0.00     0.032 A 
BRANCH  22  25
HETATM   25  O2  UNK     1      17.641   7.648  31.909  1.00  0.00    -0.311 OA
BRANCH  25  26
HETATM   26  C18 UNK     1      16.372   7.777  32.448  1.00  0.00     0.076 A 
HETATM   27  C19 UNK     1      16.203   8.522  33.601  1.00  0.00     0.037 A 
HETATM   28  C21 UNK     1      14.924   8.651  34.144  1.00  0.00     0.003 A 
HETATM   29  C23 UNK     1      13.837   8.035  33.525  1.00  0.00     0.000 A 
HETATM   30  C22 UNK     1      14.029   7.288  32.362  1.00  0.00     0.003 A 
HETATM   31  C20 UNK     1      15.308   7.158  31.819  1.00  0.00     0.037 A 
ENDBRANCH  25  26
ENDBRANCH  22  25
ENDBRANCH  17  19
ENDBRANCH   2  17
TORSDOF 6
ENDMDL
MODEL 6
REMARK VINA RESULT:      -9.4      1.712      6.991
REMARK  6 active torsions:
REMARK  status: ('A' for Active; 'I' for Inactive)
REMARK    1  A    between atoms: C13_19  and  O2_3 
REMARK    2  A    between atoms: C18_24  and  O2_3 
REMARK    3  A    between atoms: C12_18  and  N1_5 
REMARK    4  A    between atoms: C4_10  and  N1_5 
REMARK    5  A    between atoms: C11_17  and  N2_6 
REMARK    6  A    between atoms: C12_18  and  N2_6 
ROOT
HETATM    1  S1  UNK     1      17.714   1.841  28.440  1.00  0.00    -0.041 SA
HETATM    2  C12 UNK     1      18.932   2.525  29.384  1.00  0.00     0.176 C 
ENDROOT
BRANCH   2   3
HETATM    3  N1  UNK     1      19.235   3.887  29.472  1.00  0.00    -0.333 N 
HETATM    4  H8  UNK     1      19.952   4.178  28.816  1.00  0.00     0.168 HD
BRANCH   3   5
HETATM    5  C4  UNK     1      19.132   4.795  30.526  1.00  0.00     0.036 A 
HETATM    6  C5  UNK     1      17.898   5.040  31.119  1.00  0.00     0.067 A 
HETATM    7  C2  UNK     1      17.818   5.951  32.172  1.00  0.00     0.092 A 
HETATM    8  C1  UNK     1      18.936   6.633  32.656  1.00  0.00     0.004 A 
HETATM    9  O1  UNK     1      16.541   6.156  32.734  1.00  0.00    -0.275 OA
HETATM   10  C3  UNK     1      18.758   7.576  33.769  1.00  0.00    -0.043 A 
HETATM   11  C6  UNK     1      20.169   6.374  32.044  1.00  0.00     0.017 A 
HETATM   12  C8  UNK     1      17.532   7.751  34.283  1.00  0.00     0.090 A 
HETATM   13  C9  UNK     1      19.940   8.325  34.311  1.00  0.00     0.049 C 
HETATM   14  C10 UNK     1      16.344   7.039  33.784  1.00  0.00     0.288 A 
HETATM   15  O3  UNK     1      15.237   7.224  34.279  1.00  0.00    -0.260 OA
HETATM   16  C7  UNK     1      20.266   5.462  30.987  1.00  0.00     0.030 A 
ENDBRANCH   3   5
ENDBRANCH   2   3
BRANCH   2  17
HETATM   17  N2  UNK     1      19.614   1.669  30.235  1.00  0.00    -0.333 N 
HETATM   18  H9  UNK     1      20.507   1.348  29.866  1.00  0.00     0.168 HD
BRANCH  17  19
HETATM   19  C11 UNK     1      19.201   1.001  31.415  1.00  0.00     0.034 A 
HETATM   20  C14 UNK     1      19.320  -0.376  31.488  1.00  0.00     0.032 A 
HETATM   21  C16 UNK     1      18.913  -1.034  32.649  1.00  0.00     0.039 A 
HETATM   22  C13 UNK     1      18.394  -0.304  33.718  1.00  0.00     0.076 A 
HETATM   23  C17 UNK     1      18.281   1.084  33.627  1.00  0.00     0.039 A 
HETATM   24  C15 UNK     1      18.689   1.742  32.465  1.00  0.00     0.032 A 
BRANCH  22  25
HETATM   25  O2  UNK     1      17.998  -0.945  34.852  1.00  0.00    -0.311 OA
BRANCH  25  26
HETATM   26  C18 UNK     1      17.364  -0.194  35.828  1.00  0.00     0.076 A 
HETATM   27  C19 UNK     1      18.085   0.224  36.931  1.00  0.00     0.037 A 
HETATM   28  C21 UNK     1      17.446   0.978  37.914  1.00  0.00     0.003 A 
HETATM   29  C23 UNK     1      16.097   1.304  37.778  1.00  0.00     0.000 A 
HETATM   30  C22 UNK     1      15.386   0.872  36.657  1.00  0.00     0.003 A 
HETATM   31  C20 UNK     1      16.026   0.117  35.673  1.00  0.00     0.037 A 
ENDBRANCH  25  26
ENDBRANCH  22  25
ENDBRANCH  17  19
ENDBRANCH   2  17
TORSDOF 6
ENDMDL
MODEL 7
REMARK VINA RESULT:      -9.4      4.799      6.961
REMARK  6 active torsions:
REMARK  status: ('A' for Active; 'I' for Inactive)
REMARK    1  A    between atoms: C13_19  and  O2_3 
REMARK    2  A    between atoms: C18_24  and  O2_3 
REMARK    3  A    between atoms: C12_18  and  N1_5 
REMARK    4  A    between atoms: C4_10  and  N1_5 
REMARK    5  A    between atoms: C11_17  and  N2_6 
REMARK    6  A    between atoms: C12_18  and  N2_6 
ROOT
HETATM    1  S1  UNK     1      17.886  -1.455  37.548  1.00  0.00    -0.041 SA
HETATM    2  C12 UNK     1      19.001  -1.952  36.386  1.00  0.00     0.176 C 
ENDROOT
BRANCH   2   3
HETATM    3  N1  UNK     1      19.278  -3.274  36.026  1.00  0.00    -0.333 N 
HETATM    4  H8  UNK     1      18.710  -3.602  35.251  1.00  0.00     0.168 HD
BRANCH   3   5
HETATM    5  C4  UNK     1      19.787  -4.349  36.755  1.00  0.00     0.036 A 
HETATM    6  C5  UNK     1      19.101  -5.558  36.788  1.00  0.00     0.067 A 
HETATM    7  C2  UNK     1      19.628  -6.620  37.522  1.00  0.00     0.092 A 
HETATM    8  C1  UNK     1      20.827  -6.515  38.231  1.00  0.00     0.004 A 
HETATM    9  O1  UNK     1      18.889  -7.820  37.517  1.00  0.00    -0.275 OA
HETATM   10  C3  UNK     1      21.308  -7.685  38.978  1.00  0.00    -0.043 A 
HETATM   11  C6  UNK     1      21.502  -5.288  38.186  1.00  0.00     0.017 A 
HETATM   12  C8  UNK     1      20.583  -8.813  38.955  1.00  0.00     0.090 A 
HETATM   13  C9  UNK     1      22.592  -7.604  39.750  1.00  0.00     0.049 C 
HETATM   14  C10 UNK     1      19.319  -8.940  38.212  1.00  0.00     0.288 A 
HETATM   15  O3  UNK     1      18.682  -9.988  38.215  1.00  0.00    -0.260 OA
HETATM   16  C7  UNK     1      20.986  -4.214  37.453  1.00  0.00     0.030 A 
ENDBRANCH   3   5
ENDBRANCH   2   3
BRANCH   2  17
HETATM   17  N2  UNK     1      19.612  -0.953  35.643  1.00  0.00    -0.333 N 
HETATM   18  H9  UNK     1      20.625  -1.040  35.589  1.00  0.00     0.168 HD
BRANCH  17  19
HETATM   19  C11 UNK     1      19.109   0.270  35.130  1.00  0.00     0.034 A 
HETATM   20  C14 UNK     1      18.491   0.279  33.892  1.00  0.00     0.032 A 
HETATM   21  C16 UNK     1      17.997   1.482  33.387  1.00  0.00     0.039 A 
HETATM   22  C13 UNK     1      18.129   2.656  34.128  1.00  0.00     0.076 A 
HETATM   23  C17 UNK     1      18.755   2.627  35.375  1.00  0.00     0.039 A 
HETATM   24  C15 UNK     1      19.249   1.424  35.880  1.00  0.00     0.032 A 
BRANCH  22  25
HETATM   25  O2  UNK     1      17.646   3.829  33.637  1.00  0.00    -0.311 OA
BRANCH  25  26
HETATM   26  C18 UNK     1      18.450   4.542  32.763  1.00  0.00     0.076 A 
HETATM   27  C19 UNK     1      19.264   5.542  33.261  1.00  0.00     0.037 A 
HETATM   28  C21 UNK     1      20.073   6.261  32.381  1.00  0.00     0.003 A 
HETATM   29  C23 UNK     1      20.055   5.966  31.018  1.00  0.00     0.000 A 
HETATM   30  C22 UNK     1      19.227   4.952  30.535  1.00  0.00     0.003 A 
HETATM   31  C20 UNK     1      18.417   4.234  31.416  1.00  0.00     0.037 A 
ENDBRANCH  25  26
ENDBRANCH  22  25
ENDBRANCH  17  19
ENDBRANCH   2  17
TORSDOF 6
ENDMDL
MODEL 8
REMARK VINA RESULT:      -9.3      5.788      8.514
REMARK  6 active torsions:
REMARK  status: ('A' for Active; 'I' for Inactive)
REMARK    1  A    between atoms: C13_19  and  O2_3 
REMARK    2  A    between atoms: C18_24  and  O2_3 
REMARK    3  A    between atoms: C12_18  and  N1_5 
REMARK    4  A    between atoms: C4_10  and  N1_5 
REMARK    5  A    between atoms: C11_17  and  N2_6 
REMARK    6  A    between atoms: C12_18  and  N2_6 
ROOT
HETATM    1  S1  UNK     1      20.490  -3.358  37.291  1.00  0.00    -0.041 SA
HETATM    2  C12 UNK     1      18.919  -3.687  36.776  1.00  0.00     0.176 C 
ENDROOT
BRANCH   2   3
HETATM    3  N1  UNK     1      18.408  -4.947  36.451  1.00  0.00    -0.333 N 
HETATM    4  H8  UNK     1      17.423  -5.045  36.673  1.00  0.00     0.168 HD
BRANCH   3   5
HETATM    5  C4  UNK     1      19.017  -6.197  36.343  1.00  0.00     0.036 A 
HETATM    6  C5  UNK     1      18.704  -7.207  37.246  1.00  0.00     0.067 A 
HETATM    7  C2  UNK     1      19.324  -8.450  37.119  1.00  0.00     0.092 A 
HETATM    8  C1  UNK     1      20.255  -8.720  36.114  1.00  0.00     0.004 A 
HETATM    9  O1  UNK     1      18.966  -9.434  38.062  1.00  0.00    -0.275 OA
HETATM   10  C3  UNK     1      20.859 -10.059  36.056  1.00  0.00    -0.043 A 
HETATM   11  C6  UNK     1      20.557  -7.689  35.215  1.00  0.00     0.017 A 
HETATM   12  C8  UNK     1      20.499 -10.974  36.967  1.00  0.00     0.090 A 
HETATM   13  C9  UNK     1      21.863 -10.380  34.988  1.00  0.00     0.049 C 
HETATM   14  C10 UNK     1      19.519 -10.704  38.032  1.00  0.00     0.288 A 
HETATM   15  O3  UNK     1      19.214 -11.567  38.849  1.00  0.00    -0.260 OA
HETATM   16  C7  UNK     1      19.943  -6.438  35.330  1.00  0.00     0.030 A 
ENDBRANCH   3   5
ENDBRANCH   2   3
BRANCH   2  17
HETATM   17  N2  UNK     1      18.026  -2.626  36.789  1.00  0.00    -0.333 N 
HETATM   18  H9  UNK     1      17.206  -2.785  37.372  1.00  0.00     0.168 HD
BRANCH  17  19
HETATM   19  C11 UNK     1      17.944  -1.464  35.980  1.00  0.00     0.034 A 
HETATM   20  C14 UNK     1      16.771  -1.198  35.297  1.00  0.00     0.032 A 
HETATM   21  C16 UNK     1      16.690  -0.056  34.500  1.00  0.00     0.039 A 
HETATM   22  C13 UNK     1      17.785   0.802  34.400  1.00  0.00     0.076 A 
HETATM   23  C17 UNK     1      18.961   0.518  35.096  1.00  0.00     0.039 A 
HETATM   24  C15 UNK     1      19.040  -0.625  35.893  1.00  0.00     0.032 A 
BRANCH  22  25
HETATM   25  O2  UNK     1      17.707   1.918  33.625  1.00  0.00    -0.311 OA
BRANCH  25  26
HETATM   26  C18 UNK     1      18.221   1.848  32.341  1.00  0.00     0.076 A 
HETATM   27  C19 UNK     1      18.096   2.942  31.505  1.00  0.00     0.037 A 
HETATM   28  C21 UNK     1      18.612   2.871  30.211  1.00  0.00     0.003 A 
HETATM   29  C23 UNK     1      19.245   1.707  29.776  1.00  0.00     0.000 A 
HETATM   30  C22 UNK     1      19.361   0.614  30.635  1.00  0.00     0.003 A 
HETATM   31  C20 UNK     1      18.844   0.685  31.929  1.00  0.00     0.037 A 
ENDBRANCH  25  26
ENDBRANCH  22  25
ENDBRANCH  17  19
ENDBRANCH   2  17
TORSDOF 6
ENDMDL
MODEL 9
REMARK VINA RESULT:      -9.2      5.203     11.951
REMARK  6 active torsions:
REMARK  status: ('A' for Active; 'I' for Inactive)
REMARK    1  A    between atoms: C13_19  and  O2_3 
REMARK    2  A    between atoms: C18_24  and  O2_3 
REMARK    3  A    between atoms: C12_18  and  N1_5 
REMARK    4  A    between atoms: C4_10  and  N1_5 
REMARK    5  A    between atoms: C11_17  and  N2_6 
REMARK    6  A    between atoms: C12_18  and  N2_6 
ROOT
HETATM    1  S1  UNK     1      18.355  -1.421  37.949  1.00  0.00    -0.041 SA
HETATM    2  C12 UNK     1      18.716  -2.031  36.420  1.00  0.00     0.176 C 
ENDROOT
BRANCH   2   3
HETATM    3  N1  UNK     1      18.058  -1.705  35.230  1.00  0.00    -0.333 N 
HETATM    4  H8  UNK     1      17.750  -2.520  34.711  1.00  0.00     0.168 HD
BRANCH   3   5
HETATM    5  C4  UNK     1      18.144  -0.591  34.395  1.00  0.00     0.036 A 
HETATM    6  C5  UNK     1      18.522  -0.742  33.065  1.00  0.00     0.067 A 
HETATM    7  C2  UNK     1      18.601   0.386  32.248  1.00  0.00     0.092 A 
HETATM    8  C1  UNK     1      18.314   1.669  32.717  1.00  0.00     0.004 A 
HETATM    9  O1  UNK     1      18.988   0.170  30.910  1.00  0.00    -0.275 OA
HETATM   10  C3  UNK     1      18.423   2.800  31.785  1.00  0.00    -0.043 A 
HETATM   11  C6  UNK     1      17.936   1.800  34.060  1.00  0.00     0.017 A 
HETATM   12  C8  UNK     1      18.794   2.565  30.518  1.00  0.00     0.090 A 
HETATM   13  C9  UNK     1      18.122   4.192  32.259  1.00  0.00     0.049 C 
HETATM   14  C10 UNK     1      19.099   1.218  30.009  1.00  0.00     0.288 A 
HETATM   15  O3  UNK     1      19.436   1.040  28.843  1.00  0.00    -0.260 OA
HETATM   16  C7  UNK     1      17.852   0.678  34.892  1.00  0.00     0.030 A 
ENDBRANCH   3   5
ENDBRANCH   2   3
BRANCH   2  17
HETATM   17  N2  UNK     1      19.840  -2.836  36.321  1.00  0.00    -0.333 N 
HETATM   18  H9  UNK     1      20.500  -2.537  35.607  1.00  0.00     0.168 HD
BRANCH  17  19
HETATM   19  C11 UNK     1      20.131  -4.106  36.881  1.00  0.00     0.034 A 
HETATM   20  C14 UNK     1      21.292  -4.270  37.614  1.00  0.00     0.032 A 
HETATM   21  C16 UNK     1      21.580  -5.519  38.165  1.00  0.00     0.039 A 
HETATM   22  C13 UNK     1      20.700  -6.584  37.972  1.00  0.00     0.076 A 
HETATM   23  C17 UNK     1      19.533  -6.401  37.230  1.00  0.00     0.039 A 
HETATM   24  C15 UNK     1      19.247  -5.151  36.680  1.00  0.00     0.032 A 
BRANCH  22  25
HETATM   25  O2  UNK     1      20.979  -7.803  38.511  1.00  0.00    -0.311 OA
BRANCH  25  26
HETATM   26  C18 UNK     1      21.170  -8.863  37.640  1.00  0.00     0.076 A 
HETATM   27  C19 UNK     1      22.154  -8.771  36.673  1.00  0.00     0.037 A 
HETATM   28  C21 UNK     1      22.346  -9.838  35.796  1.00  0.00     0.003 A 
HETATM   29  C23 UNK     1      21.552 -10.980  35.901  1.00  0.00     0.000 A 
HETATM   30  C22 UNK     1      20.564 -11.053  36.884  1.00  0.00     0.003 A 
HETATM   31  C20 UNK     1      20.372  -9.986  37.761  1.00  0.00     0.037 A 
ENDBRANCH  25  26
ENDBRANCH  22  25
ENDBRANCH  17  19
ENDBRANCH   2  17
TORSDOF 6
ENDMDL
MODEL 10
REMARK VINA RESULT:      -9.2      5.151     11.939
REMARK  6 active torsions:
REMARK  status: ('A' for Active; 'I' for Inactive)
REMARK    1  A    between atoms: C13_19  and  O2_3 
REMARK    2  A    between atoms: C18_24  and  O2_3 
REMARK    3  A    between atoms: C12_18  and  N1_5 
REMARK    4  A    between atoms: C4_10  and  N1_5 
REMARK    5  A    between atoms: C11_17  and  N2_6 
REMARK    6  A    between atoms: C12_18  and  N2_6 
ROOT
HETATM    1  S1  UNK     1      18.317  -0.757  36.532  1.00  0.00    -0.041 SA
HETATM    2  C12 UNK     1      18.907  -2.219  35.935  1.00  0.00     0.176 C 
ENDROOT
BRANCH   2   3
HETATM    3  N1  UNK     1      19.825  -2.369  34.892  1.00  0.00    -0.333 N 
HETATM    4  H8  UNK     1      20.758  -2.604  35.215  1.00  0.00     0.168 HD
BRANCH   3   5
HETATM    5  C4  UNK     1      19.869  -1.828  33.608  1.00  0.00     0.036 A 
HETATM    6  C5  UNK     1      19.134  -0.687  33.305  1.00  0.00     0.067 A 
HETATM    7  C2  UNK     1      19.193  -0.161  32.014  1.00  0.00     0.092 A 
HETATM    8  C1  UNK     1      19.966  -0.742  31.007  1.00  0.00     0.004 A 
HETATM    9  O1  UNK     1      18.428   0.997  31.767  1.00  0.00    -0.275 OA
HETATM   10  C3  UNK     1      19.969  -0.121  29.675  1.00  0.00    -0.043 A 
HETATM   11  C6  UNK     1      20.699  -1.891  31.331  1.00  0.00     0.017 A 
HETATM   12  C8  UNK     1      19.231   0.980  29.470  1.00  0.00     0.090 A 
HETATM   13  C9  UNK     1      20.789  -0.721  28.571  1.00  0.00     0.049 C 
HETATM   14  C10 UNK     1      18.411   1.604  30.522  1.00  0.00     0.288 A 
HETATM   15  O3  UNK     1      17.748   2.611  30.297  1.00  0.00    -0.260 OA
HETATM   16  C7  UNK     1      20.650  -2.429  32.622  1.00  0.00     0.030 A 
ENDBRANCH   3   5
ENDBRANCH   2   3
BRANCH   2  17
HETATM   17  N2  UNK     1      18.533  -3.366  36.619  1.00  0.00    -0.333 N 
HETATM   18  H9  UNK     1      17.598  -3.321  37.018  1.00  0.00     0.168 HD
BRANCH  17  19
HETATM   19  C11 UNK     1      19.288  -4.491  37.038  1.00  0.00     0.034 A 
HETATM   20  C14 UNK     1      20.548  -4.296  37.575  1.00  0.00     0.032 A 
HETATM   21  C16 UNK     1      21.292  -5.402  37.986  1.00  0.00     0.039 A 
HETATM   22  C13 UNK     1      20.762  -6.685  37.855  1.00  0.00     0.076 A 
HETATM   23  C17 UNK     1      19.489  -6.863  37.311  1.00  0.00     0.039 A 
HETATM   24  C15 UNK     1      18.746  -5.756  36.900  1.00  0.00     0.032 A 
BRANCH  22  25
HETATM   25  O2  UNK     1      21.486  -7.766  38.258  1.00  0.00    -0.311 OA
BRANCH  25  26
HETATM   26  C18 UNK     1      21.479  -8.886  37.444  1.00  0.00     0.076 A 
HETATM   27  C19 UNK     1      22.126  -8.834  36.223  1.00  0.00     0.037 A 
HETATM   28  C21 UNK     1      22.119  -9.962  35.402  1.00  0.00     0.003 A 
HETATM   29  C23 UNK     1      21.466 -11.123  35.817  1.00  0.00     0.000 A 
HETATM   30  C22 UNK     1      20.818 -11.154  37.052  1.00  0.00     0.003 A 
HETATM   31  C20 UNK     1      20.825 -10.026  37.873  1.00  0.00     0.037 A 
ENDBRANCH  25  26
ENDBRANCH  22  25
ENDBRANCH  17  19
ENDBRANCH   2  17
TORSDOF 6
ENDMDL
