MODEL 1
REMARK VINA RESULT:      -9.6      0.000      0.000
REMARK  4 active torsions:
REMARK  status: ('A' for Active; 'I' for Inactive)
REMARK       I    between atoms: C15_23  and  N1_7 
REMARK    1  A    between atoms: C5_13  and  N1_7 
REMARK       I    between atoms: C13_21  and  N2_8 
REMARK    2  A    between atoms: C1_9  and  C2_10 
REMARK    3  A    between atoms: C13_21  and  C3_11 
REMARK    4  A    between atoms: C12_20  and  C15_23 
ROOT
HETATM    1  S1  UNK     1      20.214   6.581  33.830  1.00  0.00    -0.082 SA
HETATM    2  C2  UNK     1      18.378   8.367  33.645  1.00  0.00    -0.000 A 
HETATM    3  C3  UNK     1      18.056   7.368  32.681  1.00  0.00     0.077 A 
HETATM    4  C5  UNK     1      18.971   6.364  32.693  1.00  0.00     0.093 A 
HETATM    5  C8  UNK     1      19.528   8.065  34.339  1.00  0.00     0.065 A 
ENDROOT
BRANCH   4   6
HETATM    6  N1  UNK     1      19.047   5.198  31.926  1.00  0.00    -0.316 N 
HETATM    7  C15 UNK     1      18.337   4.025  32.147  1.00  0.00     0.262 C 
HETATM    8  O3  UNK     1      17.521   3.778  33.032  1.00  0.00    -0.267 OA
HETATM    9  H8  UNK     1      19.709   5.246  31.156  1.00  0.00     0.169 HD
BRANCH   7  10
HETATM   10  C12 UNK     1      18.657   2.996  31.151  1.00  0.00     0.108 A 
HETATM   11  C17 UNK     1      19.083   1.822  31.631  1.00  0.00     0.037 A 
HETATM   12  C14 UNK     1      19.426   0.738  30.721  1.00  0.00     0.001 A 
HETATM   13  C18 UNK     1      19.302   0.945  29.351  1.00  0.00     0.089 A 
HETATM   14  C20 UNK     1      19.875  -0.503  31.178  1.00  0.00     0.038 A 
HETATM   15  O1  UNK     1      18.852   2.184  28.853  1.00  0.00    -0.274 OA
HETATM   16  C21 UNK     1      19.613  -0.050  28.428  1.00  0.00     0.040 A 
HETATM   17  C19 UNK     1      18.518   3.238  29.698  1.00  0.00     0.304 A 
HETATM   18  O4  UNK     1      18.127   4.313  29.254  1.00  0.00    -0.259 OA
HETATM   19  C23 UNK     1      20.060  -1.285  28.890  1.00  0.00     0.026 A 
HETATM   20  C22 UNK     1      20.191  -1.512  30.263  1.00  0.00     0.035 A 
HETATM   21 Cl1  UNK     1      20.743  -3.041  30.829  1.00  0.00    -0.084 Cl
ENDBRANCH   7  10
ENDBRANCH   4   6
BRANCH   3  22
HETATM   22  C13 UNK     1      16.917   7.391  31.797  1.00  0.00     0.253 C 
HETATM   23  O2  UNK     1      16.814   8.180  30.840  1.00  0.00    -0.268 OA
HETATM   24  N2  UNK     1      15.907   6.461  32.029  1.00  0.00    -0.366 N 
HETATM   25  H16 UNK     1      15.953   5.795  32.794  1.00  0.00     0.159 HD
HETATM   26  H17 UNK     1      15.085   6.424  31.436  1.00  0.00     0.159 HD
ENDBRANCH   3  22
BRANCH   2  27
HETATM   27  C1  UNK     1      17.654   9.579  33.931  1.00  0.00    -0.018 A 
HETATM   28  C4  UNK     1      16.379   9.538  34.492  1.00  0.00    -0.051 A 
HETATM   29  C11 UNK     1      15.710   8.242  34.823  1.00  0.00     0.049 C 
HETATM   30  C9  UNK     1      15.697  10.726  34.759  1.00  0.00     0.008 A 
HETATM   31  C10 UNK     1      16.292  11.952  34.463  1.00  0.00     0.007 A 
HETATM   32  C7  UNK     1      17.568  11.992  33.902  1.00  0.00    -0.061 A 
HETATM   33  C16 UNK     1      18.202  13.303  33.586  1.00  0.00     0.048 C 
HETATM   34  C6  UNK     1      18.249  10.804  33.635  1.00  0.00     0.019 A 
ENDBRANCH   2  27
TORSDOF 4
ENDMDL
MODEL 2
REMARK VINA RESULT:      -9.5     15.256     18.040
REMARK  4 active torsions:
REMARK  status: ('A' for Active; 'I' for Inactive)
REMARK       I    between atoms: C15_23  and  N1_7 
REMARK    1  A    between atoms: C5_13  and  N1_7 
REMARK       I    between atoms: C13_21  and  N2_8 
REMARK    2  A    between atoms: C1_9  and  C2_10 
REMARK    3  A    between atoms: C13_21  and  C3_11 
REMARK    4  A    between atoms: C12_20  and  C15_23 
ROOT
HETATM    1  S1  UNK     1      28.994  -8.191  35.554  1.00  0.00    -0.082 SA
HETATM    2  C2  UNK     1      31.000  -6.738  36.234  1.00  0.00    -0.000 A 
HETATM    3  C3  UNK     1      29.892  -6.261  36.992  1.00  0.00     0.077 A 
HETATM    4  C5  UNK     1      28.765  -6.965  36.709  1.00  0.00     0.093 A 
HETATM    5  C8  UNK     1      30.651  -7.786  35.410  1.00  0.00     0.065 A 
ENDROOT
BRANCH   4   6
HETATM    6  N1  UNK     1      27.468  -6.840  37.212  1.00  0.00    -0.316 N 
HETATM    7  C15 UNK     1      26.952  -7.498  38.321  1.00  0.00     0.262 C 
HETATM    8  O3  UNK     1      27.512  -8.301  39.064  1.00  0.00    -0.267 OA
HETATM    9  H8  UNK     1      26.871  -6.214  36.678  1.00  0.00     0.169 HD
BRANCH   7  10
HETATM   10  C12 UNK     1      25.552  -7.136  38.571  1.00  0.00     0.108 A 
HETATM   11  C17 UNK     1      24.673  -8.144  38.577  1.00  0.00     0.037 A 
HETATM   12  C14 UNK     1      23.261  -7.884  38.816  1.00  0.00     0.001 A 
HETATM   13  C18 UNK     1      22.846  -6.574  39.038  1.00  0.00     0.089 A 
HETATM   14  C20 UNK     1      22.308  -8.905  38.831  1.00  0.00     0.038 A 
HETATM   15  O1  UNK     1      23.778  -5.518  39.031  1.00  0.00    -0.274 OA
HETATM   16  C21 UNK     1      21.510  -6.259  39.273  1.00  0.00     0.040 A 
HETATM   17  C19 UNK     1      25.133  -5.736  38.804  1.00  0.00     0.304 A 
HETATM   18  O4  UNK     1      25.938  -4.809  38.801  1.00  0.00    -0.259 OA
HETATM   19  C23 UNK     1      20.565  -7.282  39.286  1.00  0.00     0.026 A 
HETATM   20  C22 UNK     1      20.963  -8.603  39.066  1.00  0.00     0.035 A 
HETATM   21 Cl1  UNK     1      19.791  -9.864  39.084  1.00  0.00    -0.084 Cl
ENDBRANCH   7  10
ENDBRANCH   4   6
BRANCH   3  22
HETATM   22  C13 UNK     1      29.930  -5.176  37.941  1.00  0.00     0.253 C 
HETATM   23  O2  UNK     1      29.768  -5.337  39.165  1.00  0.00    -0.268 OA
HETATM   24  N2  UNK     1      30.185  -3.900  37.446  1.00  0.00    -0.366 N 
HETATM   25  H16 UNK     1      30.329  -3.725  36.456  1.00  0.00     0.159 HD
HETATM   26  H17 UNK     1      30.230  -3.099  38.066  1.00  0.00     0.159 HD
ENDBRANCH   3  22
BRANCH   2  27
HETATM   27  C1  UNK     1      32.355  -6.252  36.255  1.00  0.00    -0.018 A 
HETATM   28  C4  UNK     1      33.269  -6.712  37.201  1.00  0.00    -0.051 A 
HETATM   29  C11 UNK     1      32.887  -7.727  38.231  1.00  0.00     0.049 C 
HETATM   30  C9  UNK     1      34.576  -6.224  37.202  1.00  0.00     0.008 A 
HETATM   31  C10 UNK     1      34.967  -5.276  36.256  1.00  0.00     0.007 A 
HETATM   32  C7  UNK     1      34.052  -4.817  35.310  1.00  0.00    -0.061 A 
HETATM   33  C16 UNK     1      34.471  -3.804  34.299  1.00  0.00     0.048 C 
HETATM   34  C6  UNK     1      32.745  -5.305  35.309  1.00  0.00     0.019 A 
ENDBRANCH   2  27
TORSDOF 4
ENDMDL
MODEL 3
REMARK VINA RESULT:      -9.4      4.709     10.438
REMARK  4 active torsions:
REMARK  status: ('A' for Active; 'I' for Inactive)
REMARK       I    between atoms: C15_23  and  N1_7 
REMARK    1  A    between atoms: C5_13  and  N1_7 
REMARK       I    between atoms: C13_21  and  N2_8 
REMARK    2  A    between atoms: C1_9  and  C2_10 
REMARK    3  A    between atoms: C13_21  and  C3_11 
REMARK    4  A    between atoms: C12_20  and  C15_23 
ROOT
HETATM    1  S1  UNK     1      19.546   8.566  34.322  1.00  0.00    -0.082 SA
HETATM    2  C2  UNK     1      18.651   6.583  32.957  1.00  0.00    -0.000 A 
HETATM    3  C3  UNK     1      17.732   7.652  32.749  1.00  0.00     0.077 A 
HETATM    4  C5  UNK     1      18.112   8.764  33.432  1.00  0.00     0.093 A 
HETATM    5  C8  UNK     1      19.685   6.944  33.792  1.00  0.00     0.065 A 
ENDROOT
BRANCH   4   6
HETATM    6  N1  UNK     1      17.516  10.025  33.515  1.00  0.00    -0.316 N 
HETATM    7  C15 UNK     1      16.473  10.383  34.359  1.00  0.00     0.262 C 
HETATM    8  O3  UNK     1      15.879   9.689  35.181  1.00  0.00    -0.267 OA
HETATM    9  H8  UNK     1      17.896  10.711  32.868  1.00  0.00     0.169 HD
BRANCH   7  10
HETATM   10  C12 UNK     1      16.089  11.789  34.188  1.00  0.00     0.108 A 
HETATM   11  C17 UNK     1      14.882  12.011  33.654  1.00  0.00     0.037 A 
HETATM   12  C14 UNK     1      14.412  13.372  33.444  1.00  0.00     0.001 A 
HETATM   13  C18 UNK     1      15.236  14.433  33.808  1.00  0.00     0.089 A 
HETATM   14  C20 UNK     1      13.160  13.650  32.890  1.00  0.00     0.038 A 
HETATM   15  O1  UNK     1      16.505  14.192  34.371  1.00  0.00    -0.274 OA
HETATM   16  C21 UNK     1      14.845  15.758  33.634  1.00  0.00     0.040 A 
HETATM   17  C19 UNK     1      16.982  12.902  34.582  1.00  0.00     0.304 A 
HETATM   18  O4  UNK     1      18.089  12.702  35.073  1.00  0.00    -0.259 OA
HETATM   19  C23 UNK     1      13.596  16.027  33.081  1.00  0.00     0.026 A 
HETATM   20  C22 UNK     1      12.754  14.976  32.709  1.00  0.00     0.035 A 
HETATM   21 Cl1  UNK     1      11.211  15.315  32.026  1.00  0.00    -0.084 Cl
ENDBRANCH   7  10
ENDBRANCH   4   6
BRANCH   3  22
HETATM   22  C13 UNK     1      16.547   7.594  31.929  1.00  0.00     0.253 C 
HETATM   23  O2  UNK     1      16.422   8.234  30.869  1.00  0.00    -0.268 OA
HETATM   24  N2  UNK     1      15.517   6.758  32.351  1.00  0.00    -0.366 N 
HETATM   25  H16 UNK     1      15.581   6.213  33.206  1.00  0.00     0.159 HD
HETATM   26  H17 UNK     1      14.662   6.670  31.812  1.00  0.00     0.159 HD
ENDBRANCH   3  22
BRANCH   2  27
HETATM   27  C1  UNK     1      18.592   5.254  32.406  1.00  0.00    -0.018 A 
HETATM   28  C4  UNK     1      18.847   5.024  31.055  1.00  0.00    -0.051 A 
HETATM   29  C11 UNK     1      19.193   6.140  30.122  1.00  0.00     0.049 C 
HETATM   30  C9  UNK     1      18.782   3.727  30.545  1.00  0.00     0.008 A 
HETATM   31  C10 UNK     1      18.462   2.662  31.387  1.00  0.00     0.007 A 
HETATM   32  C7  UNK     1      18.207   2.893  32.739  1.00  0.00    -0.061 A 
HETATM   33  C16 UNK     1      17.864   1.754  33.638  1.00  0.00     0.048 C 
HETATM   34  C6  UNK     1      18.272   4.190  33.248  1.00  0.00     0.019 A 
ENDBRANCH   2  27
TORSDOF 4
ENDMDL
MODEL 4
REMARK VINA RESULT:      -9.2      2.206      3.386
REMARK  4 active torsions:
REMARK  status: ('A' for Active; 'I' for Inactive)
REMARK       I    between atoms: C15_23  and  N1_7 
REMARK    1  A    between atoms: C5_13  and  N1_7 
REMARK       I    between atoms: C13_21  and  N2_8 
REMARK    2  A    between atoms: C1_9  and  C2_10 
REMARK    3  A    between atoms: C13_21  and  C3_11 
REMARK    4  A    between atoms: C12_20  and  C15_23 
ROOT
HETATM    1  S1  UNK     1      18.973   5.130  29.557  1.00  0.00    -0.082 SA
HETATM    2  C2  UNK     1      18.208   6.406  31.651  1.00  0.00    -0.000 A 
HETATM    3  C3  UNK     1      18.450   5.066  32.071  1.00  0.00     0.077 A 
HETATM    4  C5  UNK     1      18.863   4.294  31.032  1.00  0.00     0.093 A 
HETATM    5  C8  UNK     1      18.454   6.579  30.307  1.00  0.00     0.065 A 
ENDROOT
BRANCH   4   6
HETATM    6  N1  UNK     1      19.207   2.940  30.989  1.00  0.00    -0.316 N 
HETATM    7  C15 UNK     1      18.525   1.943  30.304  1.00  0.00     0.262 C 
HETATM    8  O3  UNK     1      17.511   2.043  29.616  1.00  0.00    -0.267 OA
HETATM    9  H8  UNK     1      20.028   2.699  31.539  1.00  0.00     0.169 HD
BRANCH   7  10
HETATM   10  C12 UNK     1      19.159   0.630  30.474  1.00  0.00     0.108 A 
HETATM   11  C17 UNK     1      19.163   0.132  31.715  1.00  0.00     0.037 A 
HETATM   12  C14 UNK     1      19.768  -1.164  31.983  1.00  0.00     0.001 A 
HETATM   13  C18 UNK     1      20.338  -1.871  30.929  1.00  0.00     0.089 A 
HETATM   14  C20 UNK     1      19.796  -1.722  33.264  1.00  0.00     0.038 A 
HETATM   15  O1  UNK     1      20.329  -1.341  29.624  1.00  0.00    -0.274 OA
HETATM   16  C21 UNK     1      20.934  -3.117  31.119  1.00  0.00     0.040 A 
HETATM   17  C19 UNK     1      19.759  -0.104  29.338  1.00  0.00     0.304 A 
HETATM   18  O4  UNK     1      19.756   0.349  28.198  1.00  0.00    -0.259 OA
HETATM   19  C23 UNK     1      20.957  -3.667  32.398  1.00  0.00     0.026 A 
HETATM   20  C22 UNK     1      20.390  -2.972  33.468  1.00  0.00     0.035 A 
HETATM   21 Cl1  UNK     1      20.421  -3.657  35.048  1.00  0.00    -0.084 Cl
ENDBRANCH   7  10
ENDBRANCH   4   6
BRANCH   3  22
HETATM   22  C13 UNK     1      18.286   4.564  33.413  1.00  0.00     0.253 C 
HETATM   23  O2  UNK     1      17.700   3.497  33.674  1.00  0.00    -0.268 OA
HETATM   24  N2  UNK     1      18.838   5.314  34.449  1.00  0.00    -0.366 N 
HETATM   25  H16 UNK     1      19.330   6.186  34.280  1.00  0.00     0.159 HD
HETATM   26  H17 UNK     1      18.761   5.008  35.413  1.00  0.00     0.159 HD
ENDBRANCH   3  22
BRANCH   2  27
HETATM   27  C1  UNK     1      17.762   7.513  32.456  1.00  0.00    -0.018 A 
HETATM   28  C4  UNK     1      16.404   7.755  32.655  1.00  0.00    -0.051 A 
HETATM   29  C11 UNK     1      15.355   6.881  32.048  1.00  0.00     0.049 C 
HETATM   30  C9  UNK     1      15.997   8.835  33.439  1.00  0.00     0.008 A 
HETATM   31  C10 UNK     1      16.949   9.672  34.022  1.00  0.00     0.007 A 
HETATM   32  C7  UNK     1      18.308   9.429  33.822  1.00  0.00    -0.061 A 
HETATM   33  C16 UNK     1      19.324  10.323  34.445  1.00  0.00     0.048 C 
HETATM   34  C6  UNK     1      18.714   8.348  33.038  1.00  0.00     0.019 A 
ENDBRANCH   2  27
TORSDOF 4
ENDMDL
MODEL 5
REMARK VINA RESULT:      -9.1      2.567      3.520
REMARK  4 active torsions:
REMARK  status: ('A' for Active; 'I' for Inactive)
REMARK       I    between atoms: C15_23  and  N1_7 
REMARK    1  A    between atoms: C5_13  and  N1_7 
REMARK       I    between atoms: C13_21  and  N2_8 
REMARK    2  A    between atoms: C1_9  and  C2_10 
REMARK    3  A    between atoms: C13_21  and  C3_11 
REMARK    4  A    between atoms: C12_20  and  C15_23 
ROOT
HETATM    1  S1  UNK     1      15.520   7.666  31.533  1.00  0.00    -0.082 SA
HETATM    2  C2  UNK     1      15.982   9.217  33.528  1.00  0.00    -0.000 A 
HETATM    3  C3  UNK     1      16.634   7.985  33.825  1.00  0.00     0.077 A 
HETATM    4  C5  UNK     1      16.454   7.082  32.827  1.00  0.00     0.093 A 
HETATM    5  C8  UNK     1      15.337   9.180  32.311  1.00  0.00     0.065 A 
ENDROOT
BRANCH   4   6
HETATM    6  N1  UNK     1      16.910   5.767  32.701  1.00  0.00    -0.316 N 
HETATM    7  C15 UNK     1      18.195   5.376  32.350  1.00  0.00     0.262 C 
HETATM    8  O3  UNK     1      19.166   6.083  32.088  1.00  0.00    -0.267 OA
HETATM    9  H8  UNK     1      16.199   5.060  32.870  1.00  0.00     0.169 HD
BRANCH   7  10
HETATM   10  C12 UNK     1      18.331   3.915  32.310  1.00  0.00     0.108 A 
HETATM   11  C17 UNK     1      18.219   3.279  33.482  1.00  0.00     0.037 A 
HETATM   12  C14 UNK     1      18.339   1.830  33.543  1.00  0.00     0.001 A 
HETATM   13  C18 UNK     1      18.571   1.123  32.367  1.00  0.00     0.089 A 
HETATM   14  C20 UNK     1      18.229   1.124  34.744  1.00  0.00     0.038 A 
HETATM   15  O1  UNK     1      18.687   1.800  31.137  1.00  0.00    -0.274 OA
HETATM   16  C21 UNK     1      18.696  -0.265  32.359  1.00  0.00     0.040 A 
HETATM   17  C19 UNK     1      18.578   3.184  31.047  1.00  0.00     0.304 A 
HETATM   18  O4  UNK     1      18.681   3.764  29.971  1.00  0.00    -0.259 OA
HETATM   19  C23 UNK     1      18.585  -0.961  33.559  1.00  0.00     0.026 A 
HETATM   20  C22 UNK     1      18.352  -0.269  34.750  1.00  0.00     0.035 A 
HETATM   21 Cl1  UNK     1      18.215  -1.135  36.232  1.00  0.00    -0.084 Cl
ENDBRANCH   7  10
ENDBRANCH   4   6
BRANCH   3  22
HETATM   22  C13 UNK     1      17.393   7.704  35.019  1.00  0.00     0.253 C 
HETATM   23  O2  UNK     1      18.634   7.788  35.072  1.00  0.00    -0.268 OA
HETATM   24  N2  UNK     1      16.681   7.347  36.161  1.00  0.00    -0.366 N 
HETATM   25  H16 UNK     1      15.668   7.273  36.164  1.00  0.00     0.159 HD
HETATM   26  H17 UNK     1      17.159   7.144  37.033  1.00  0.00     0.159 HD
ENDBRANCH   3  22
BRANCH   2  27
HETATM   27  C1  UNK     1      15.943  10.409  34.335  1.00  0.00    -0.018 A 
HETATM   28  C4  UNK     1      17.040  11.266  34.402  1.00  0.00    -0.051 A 
HETATM   29  C11 UNK     1      18.298  10.990  33.642  1.00  0.00     0.049 C 
HETATM   30  C9  UNK     1      16.979  12.415  35.192  1.00  0.00     0.008 A 
HETATM   31  C10 UNK     1      15.820  12.703  35.914  1.00  0.00     0.007 A 
HETATM   32  C7  UNK     1      14.724  11.844  35.846  1.00  0.00    -0.061 A 
HETATM   33  C16 UNK     1      13.487  12.153  36.618  1.00  0.00     0.048 C 
HETATM   34  C6  UNK     1      14.785  10.696  35.056  1.00  0.00     0.019 A 
ENDBRANCH   2  27
TORSDOF 4
ENDMDL
MODEL 6
REMARK VINA RESULT:      -9.1      4.629     10.471
REMARK  4 active torsions:
REMARK  status: ('A' for Active; 'I' for Inactive)
REMARK       I    between atoms: C15_23  and  N1_7 
REMARK    1  A    between atoms: C5_13  and  N1_7 
REMARK       I    between atoms: C13_21  and  N2_8 
REMARK    2  A    between atoms: C1_9  and  C2_10 
REMARK    3  A    between atoms: C13_21  and  C3_11 
REMARK    4  A    between atoms: C12_20  and  C15_23 
ROOT
HETATM    1  S1  UNK     1      19.527   8.569  34.271  1.00  0.00    -0.082 SA
HETATM    2  C2  UNK     1      18.641   6.574  32.917  1.00  0.00    -0.000 A 
HETATM    3  C3  UNK     1      17.713   7.636  32.710  1.00  0.00     0.077 A 
HETATM    4  C5  UNK     1      18.087   8.753  33.387  1.00  0.00     0.093 A 
HETATM    5  C8  UNK     1      19.676   6.946  33.747  1.00  0.00     0.065 A 
ENDROOT
BRANCH   4   6
HETATM    6  N1  UNK     1      17.482  10.009  33.468  1.00  0.00    -0.316 N 
HETATM    7  C15 UNK     1      16.478  10.378  34.354  1.00  0.00     0.262 C 
HETATM    8  O3  UNK     1      15.933   9.699  35.221  1.00  0.00    -0.267 OA
HETATM    9  H8  UNK     1      17.821  10.682  32.786  1.00  0.00     0.169 HD
BRANCH   7  10
HETATM   10  C12 UNK     1      16.069  11.776  34.166  1.00  0.00     0.108 A 
HETATM   11  C17 UNK     1      17.039  12.692  34.261  1.00  0.00     0.037 A 
HETATM   12  C14 UNK     1      16.732  14.105  34.090  1.00  0.00     0.001 A 
HETATM   13  C18 UNK     1      15.418  14.481  33.826  1.00  0.00     0.089 A 
HETATM   14  C20 UNK     1      17.712  15.096  34.181  1.00  0.00     0.038 A 
HETATM   15  O1  UNK     1      14.402  13.510  33.727  1.00  0.00    -0.274 OA
HETATM   16  C21 UNK     1      15.058  15.816  33.653  1.00  0.00     0.040 A 
HETATM   17  C19 UNK     1      14.665  12.153  33.887  1.00  0.00     0.304 A 
HETATM   18  O4  UNK     1      13.774  11.314  33.798  1.00  0.00    -0.259 OA
HETATM   19  C23 UNK     1      16.041  16.798  33.745  1.00  0.00     0.026 A 
HETATM   20  C22 UNK     1      17.365  16.440  34.008  1.00  0.00     0.035 A 
HETATM   21 Cl1  UNK     1      18.576  17.659  34.121  1.00  0.00    -0.084 Cl
ENDBRANCH   7  10
ENDBRANCH   4   6
BRANCH   3  22
HETATM   22  C13 UNK     1      16.525   7.565  31.895  1.00  0.00     0.253 C 
HETATM   23  O2  UNK     1      16.407   8.167  30.812  1.00  0.00    -0.268 OA
HETATM   24  N2  UNK     1      15.483   6.761  32.350  1.00  0.00    -0.366 N 
HETATM   25  H16 UNK     1      15.541   6.248  33.224  1.00  0.00     0.159 HD
HETATM   26  H17 UNK     1      14.626   6.667  31.816  1.00  0.00     0.159 HD
ENDBRANCH   3  22
BRANCH   2  27
HETATM   27  C1  UNK     1      18.590   5.243  32.372  1.00  0.00    -0.018 A 
HETATM   28  C4  UNK     1      18.858   5.008  31.024  1.00  0.00    -0.051 A 
HETATM   29  C11 UNK     1      19.211   6.121  30.090  1.00  0.00     0.049 C 
HETATM   30  C9  UNK     1      18.801   3.709  30.519  1.00  0.00     0.008 A 
HETATM   31  C10 UNK     1      18.475   2.646  31.362  1.00  0.00     0.007 A 
HETATM   32  C7  UNK     1      18.207   2.882  32.710  1.00  0.00    -0.061 A 
HETATM   33  C16 UNK     1      17.858   1.747  33.611  1.00  0.00     0.048 C 
HETATM   34  C6  UNK     1      18.264   4.182  33.215  1.00  0.00     0.019 A 
ENDBRANCH   2  27
TORSDOF 4
ENDMDL
MODEL 7
REMARK VINA RESULT:      -9.0      2.134      3.333
REMARK  4 active torsions:
REMARK  status: ('A' for Active; 'I' for Inactive)
REMARK       I    between atoms: C15_23  and  N1_7 
REMARK    1  A    between atoms: C5_13  and  N1_7 
REMARK       I    between atoms: C13_21  and  N2_8 
REMARK    2  A    between atoms: C1_9  and  C2_10 
REMARK    3  A    between atoms: C13_21  and  C3_11 
REMARK    4  A    between atoms: C12_20  and  C15_23 
ROOT
HETATM    1  S1  UNK     1      15.473   7.685  31.520  1.00  0.00    -0.082 SA
HETATM    2  C2  UNK     1      15.868   9.218  33.543  1.00  0.00    -0.000 A 
HETATM    3  C3  UNK     1      16.583   8.015  33.813  1.00  0.00     0.077 A 
HETATM    4  C5  UNK     1      16.442   7.123  32.797  1.00  0.00     0.093 A 
HETATM    5  C8  UNK     1      15.219   9.173  32.329  1.00  0.00     0.065 A 
ENDROOT
BRANCH   4   6
HETATM    6  N1  UNK     1      16.962   5.836  32.643  1.00  0.00    -0.316 N 
HETATM    7  C15 UNK     1      18.021   5.473  31.821  1.00  0.00     0.262 C 
HETATM    8  O3  UNK     1      18.698   6.187  31.084  1.00  0.00    -0.267 OA
HETATM    9  H8  UNK     1      16.481   5.122  33.185  1.00  0.00     0.169 HD
BRANCH   7  10
HETATM   10  C12 UNK     1      18.308   4.036  31.899  1.00  0.00     0.108 A 
HETATM   11  C17 UNK     1      18.582   3.425  30.741  1.00  0.00     0.037 A 
HETATM   12  C14 UNK     1      18.879   2.000  30.716  1.00  0.00     0.001 A 
HETATM   13  C18 UNK     1      18.873   1.290  31.913  1.00  0.00     0.089 A 
HETATM   14  C20 UNK     1      19.171   1.321  29.530  1.00  0.00     0.038 A 
HETATM   15  O1  UNK     1      18.584   1.941  33.129  1.00  0.00    -0.274 OA
HETATM   16  C21 UNK     1      19.149  -0.074  31.957  1.00  0.00     0.040 A 
HETATM   17  C19 UNK     1      18.296   3.301  33.183  1.00  0.00     0.304 A 
HETATM   18  O4  UNK     1      18.046   3.859  34.247  1.00  0.00    -0.259 OA
HETATM   19  C23 UNK     1      19.439  -0.745  30.772  1.00  0.00     0.026 A 
HETATM   20  C22 UNK     1      19.450  -0.049  29.560  1.00  0.00     0.035 A 
HETATM   21 Cl1  UNK     1      19.809  -0.882  28.097  1.00  0.00    -0.084 Cl
ENDBRANCH   7  10
ENDBRANCH   4   6
BRANCH   3  22
HETATM   22  C13 UNK     1      17.361   7.748  34.997  1.00  0.00     0.253 C 
HETATM   23  O2  UNK     1      18.605   7.695  34.996  1.00  0.00    -0.268 OA
HETATM   24  N2  UNK     1      16.669   7.570  36.192  1.00  0.00    -0.366 N 
HETATM   25  H16 UNK     1      15.655   7.612  36.240  1.00  0.00     0.159 HD
HETATM   26  H17 UNK     1      17.162   7.387  37.059  1.00  0.00     0.159 HD
ENDBRANCH   3  22
BRANCH   2  27
HETATM   27  C1  UNK     1      15.775  10.390  34.374  1.00  0.00    -0.018 A 
HETATM   28  C4  UNK     1      16.838  11.285  34.475  1.00  0.00    -0.051 A 
HETATM   29  C11 UNK     1      18.116  11.071  33.729  1.00  0.00     0.049 C 
HETATM   30  C9  UNK     1      16.724  12.414  35.288  1.00  0.00     0.008 A 
HETATM   31  C10 UNK     1      15.546  12.644  35.998  1.00  0.00     0.007 A 
HETATM   32  C7  UNK     1      14.482  11.748  35.896  1.00  0.00    -0.061 A 
HETATM   33  C16 UNK     1      13.224  11.996  36.656  1.00  0.00     0.048 C 
HETATM   34  C6  UNK     1      14.597  10.620  35.083  1.00  0.00     0.019 A 
ENDBRANCH   2  27
TORSDOF 4
ENDMDL
MODEL 8
REMARK VINA RESULT:      -9.0     16.088     18.170
REMARK  4 active torsions:
REMARK  status: ('A' for Active; 'I' for Inactive)
REMARK       I    between atoms: C15_23  and  N1_7 
REMARK    1  A    between atoms: C5_13  and  N1_7 
REMARK       I    between atoms: C13_21  and  N2_8 
REMARK    2  A    between atoms: C1_9  and  C2_10 
REMARK    3  A    between atoms: C13_21  and  C3_11 
REMARK    4  A    between atoms: C12_20  and  C15_23 
ROOT
HETATM    1  S1  UNK     1      29.126  -4.936  38.859  1.00  0.00    -0.082 SA
HETATM    2  C2  UNK     1      31.132  -5.587  37.393  1.00  0.00    -0.000 A 
HETATM    3  C3  UNK     1      30.060  -6.437  36.995  1.00  0.00     0.077 A 
HETATM    4  C5  UNK     1      28.936  -6.177  37.713  1.00  0.00     0.093 A 
HETATM    5  C8  UNK     1      30.761  -4.722  38.398  1.00  0.00     0.065 A 
ENDROOT
BRANCH   4   6
HETATM    6  N1  UNK     1      27.669  -6.762  37.658  1.00  0.00    -0.316 N 
HETATM    7  C15 UNK     1      27.142  -7.665  38.572  1.00  0.00     0.262 C 
HETATM    8  O3  UNK     1      27.665  -8.120  39.588  1.00  0.00    -0.267 OA
HETATM    9  H8  UNK     1      27.118  -6.492  36.846  1.00  0.00     0.169 HD
BRANCH   7  10
HETATM   10  C12 UNK     1      25.783  -8.081  38.210  1.00  0.00     0.108 A 
HETATM   11  C17 UNK     1      24.786  -7.488  38.876  1.00  0.00     0.037 A 
HETATM   12  C14 UNK     1      23.402  -7.835  38.587  1.00  0.00     0.001 A 
HETATM   13  C18 UNK     1      23.138  -8.790  37.610  1.00  0.00     0.089 A 
HETATM   14  C20 UNK     1      22.330  -7.242  39.258  1.00  0.00     0.038 A 
HETATM   15  O1  UNK     1      24.193  -9.410  36.911  1.00  0.00    -0.274 OA
HETATM   16  C21 UNK     1      21.836  -9.166  37.286  1.00  0.00     0.040 A 
HETATM   17  C19 UNK     1      25.525  -9.099  37.166  1.00  0.00     0.304 A 
HETATM   18  O4  UNK     1      26.437  -9.644  36.553  1.00  0.00    -0.259 OA
HETATM   19  C23 UNK     1      20.773  -8.571  37.959  1.00  0.00     0.026 A 
HETATM   20  C22 UNK     1      21.018  -7.610  38.943  1.00  0.00     0.035 A 
HETATM   21 Cl1  UNK     1      19.700  -6.877  39.772  1.00  0.00    -0.084 Cl
ENDBRANCH   7  10
ENDBRANCH   4   6
BRANCH   3  22
HETATM   22  C13 UNK     1      30.127  -7.449  35.970  1.00  0.00     0.253 C 
HETATM   23  O2  UNK     1      29.999  -8.665  36.204  1.00  0.00    -0.268 OA
HETATM   24  N2  UNK     1      30.320  -7.020  34.659  1.00  0.00    -0.366 N 
HETATM   25  H16 UNK     1      30.422  -6.038  34.422  1.00  0.00     0.159 HD
HETATM   26  H17 UNK     1      30.369  -7.685  33.894  1.00  0.00     0.159 HD
ENDBRANCH   3  22
BRANCH   2  27
HETATM   27  C1  UNK     1      32.473  -5.559  36.868  1.00  0.00    -0.018 A 
HETATM   28  C4  UNK     1      33.402  -6.536  37.221  1.00  0.00    -0.051 A 
HETATM   29  C11 UNK     1      33.051  -7.652  38.151  1.00  0.00     0.049 C 
HETATM   30  C9  UNK     1      34.696  -6.486  36.700  1.00  0.00     0.008 A 
HETATM   31  C10 UNK     1      35.058  -5.458  35.829  1.00  0.00     0.007 A 
HETATM   32  C7  UNK     1      34.127  -4.482  35.477  1.00  0.00    -0.061 A 
HETATM   33  C16 UNK     1      34.515  -3.384  34.546  1.00  0.00     0.048 C 
HETATM   34  C6  UNK     1      32.834  -4.532  35.998  1.00  0.00     0.019 A 
ENDBRANCH   2  27
TORSDOF 4
ENDMDL
MODEL 9
REMARK VINA RESULT:      -8.8     15.053     18.705
REMARK  4 active torsions:
REMARK  status: ('A' for Active; 'I' for Inactive)
REMARK       I    between atoms: C15_23  and  N1_7 
REMARK    1  A    between atoms: C5_13  and  N1_7 
REMARK       I    between atoms: C13_21  and  N2_8 
REMARK    2  A    between atoms: C1_9  and  C2_10 
REMARK    3  A    between atoms: C13_21  and  C3_11 
REMARK    4  A    between atoms: C12_20  and  C15_23 
ROOT
HETATM    1  S1  UNK     1      29.806  -9.290  38.124  1.00  0.00    -0.082 SA
HETATM    2  C2  UNK     1      31.540  -7.767  36.997  1.00  0.00    -0.000 A 
HETATM    3  C3  UNK     1      30.328  -7.019  37.044  1.00  0.00     0.077 A 
HETATM    4  C5  UNK     1      29.332  -7.736  37.627  1.00  0.00     0.093 A 
HETATM    5  C8  UNK     1      31.397  -9.020  37.551  1.00  0.00     0.065 A 
ENDROOT
BRANCH   4   6
HETATM    6  N1  UNK     1      28.000  -7.399  37.878  1.00  0.00    -0.316 N 
HETATM    7  C15 UNK     1      27.271  -7.728  39.013  1.00  0.00     0.262 C 
HETATM    8  O3  UNK     1      27.636  -8.362  40.001  1.00  0.00    -0.267 OA
HETATM    9  H8  UNK     1      27.551  -6.882  37.126  1.00  0.00     0.169 HD
BRANCH   7  10
HETATM   10  C12 UNK     1      25.897  -7.216  38.949  1.00  0.00     0.108 A 
HETATM   11  C17 UNK     1      24.922  -8.125  39.062  1.00  0.00     0.037 A 
HETATM   12  C14 UNK     1      23.527  -7.715  39.011  1.00  0.00     0.001 A 
HETATM   13  C18 UNK     1      23.228  -6.366  38.844  1.00  0.00     0.089 A 
HETATM   14  C20 UNK     1      22.477  -8.629  39.123  1.00  0.00     0.038 A 
HETATM   15  O1  UNK     1      24.260  -5.414  38.727  1.00  0.00    -0.274 OA
HETATM   16  C21 UNK     1      21.914  -5.908  38.787  1.00  0.00     0.040 A 
HETATM   17  C19 UNK     1      25.603  -5.777  38.772  1.00  0.00     0.304 A 
HETATM   18  O4  UNK     1      26.494  -4.940  38.669  1.00  0.00    -0.259 OA
HETATM   19  C23 UNK     1      20.872  -6.825  38.900  1.00  0.00     0.026 A 
HETATM   20  C22 UNK     1      21.153  -8.183  39.068  1.00  0.00     0.035 A 
HETATM   21 Cl1  UNK     1      19.861  -9.313  39.208  1.00  0.00    -0.084 Cl
ENDBRANCH   7  10
ENDBRANCH   4   6
BRANCH   3  22
HETATM   22  C13 UNK     1      30.150  -5.677  36.548  1.00  0.00     0.253 C 
HETATM   23  O2  UNK     1      29.894  -4.707  37.285  1.00  0.00    -0.268 OA
HETATM   24  N2  UNK     1      30.301  -5.475  35.178  1.00  0.00    -0.366 N 
HETATM   25  H16 UNK     1      30.517  -6.237  34.542  1.00  0.00     0.159 HD
HETATM   26  H17 UNK     1      30.195  -4.552  34.772  1.00  0.00     0.159 HD
ENDBRANCH   3  22
BRANCH   2  27
HETATM   27  C1  UNK     1      32.809  -7.352  36.458  1.00  0.00    -0.018 A 
HETATM   28  C4  UNK     1      33.583  -6.390  37.104  1.00  0.00    -0.051 A 
HETATM   29  C11 UNK     1      33.136  -5.750  38.379  1.00  0.00     0.049 C 
HETATM   30  C9  UNK     1      34.810  -6.003  36.561  1.00  0.00     0.008 A 
HETATM   31  C10 UNK     1      35.258  -6.580  35.372  1.00  0.00     0.007 A 
HETATM   32  C7  UNK     1      34.483  -7.542  34.727  1.00  0.00    -0.061 A 
HETATM   33  C16 UNK     1      34.963  -8.158  33.457  1.00  0.00     0.048 C 
HETATM   34  C6  UNK     1      33.257  -7.929  35.271  1.00  0.00     0.019 A 
ENDBRANCH   2  27
TORSDOF 4
ENDMDL
MODEL 10
REMARK VINA RESULT:      -8.7     16.972     22.596
REMARK  4 active torsions:
REMARK  status: ('A' for Active; 'I' for Inactive)
REMARK       I    between atoms: C15_23  and  N1_7 
REMARK    1  A    between atoms: C5_13  and  N1_7 
REMARK       I    between atoms: C13_21  and  N2_8 
REMARK    2  A    between atoms: C1_9  and  C2_10 
REMARK    3  A    between atoms: C13_21  and  C3_11 
REMARK    4  A    between atoms: C12_20  and  C15_23 
ROOT
HETATM    1  S1  UNK     1      20.061  -5.836  14.215  1.00  0.00    -0.082 SA
HETATM    2  C2  UNK     1      19.633  -6.206  11.710  1.00  0.00    -0.000 A 
HETATM    3  C3  UNK     1      19.433  -4.815  11.943  1.00  0.00     0.077 A 
HETATM    4  C5  UNK     1      19.635  -4.503  13.250  1.00  0.00     0.093 A 
HETATM    5  C8  UNK     1      19.978  -6.880  12.861  1.00  0.00     0.065 A 
ENDROOT
BRANCH   4   6
HETATM    6  N1  UNK     1      19.549  -3.277  13.913  1.00  0.00    -0.316 N 
HETATM    7  C15 UNK     1      18.572  -2.907  14.827  1.00  0.00     0.262 C 
HETATM    8  O3  UNK     1      17.612  -3.561  15.230  1.00  0.00    -0.267 OA
HETATM    9  H8  UNK     1      20.277  -2.613  13.661  1.00  0.00     0.169 HD
BRANCH   7  10
HETATM   10  C12 UNK     1      18.782  -1.545  15.333  1.00  0.00     0.108 A 
HETATM   11  C17 UNK     1      18.654  -1.379  16.654  1.00  0.00     0.037 A 
HETATM   12  C14 UNK     1      18.844  -0.065  17.249  1.00  0.00     0.001 A 
HETATM   13  C18 UNK     1      19.160   1.010  16.423  1.00  0.00     0.089 A 
HETATM   14  C20 UNK     1      18.719   0.155  18.623  1.00  0.00     0.038 A 
HETATM   15  O1  UNK     1      19.295   0.827  15.033  1.00  0.00    -0.274 OA
HETATM   16  C21 UNK     1      19.354   2.292  16.930  1.00  0.00     0.040 A 
HETATM   17  C19 UNK     1      19.118  -0.417  14.435  1.00  0.00     0.304 A 
HETATM   18  O4  UNK     1      19.238  -0.567  13.223  1.00  0.00    -0.259 OA
HETATM   19  C23 UNK     1      19.229   2.504  18.301  1.00  0.00     0.026 A 
HETATM   20  C22 UNK     1      18.911   1.438  19.146  1.00  0.00     0.035 A 
HETATM   21 Cl1  UNK     1      18.758   1.705  20.840  1.00  0.00    -0.084 Cl
ENDBRANCH   7  10
ENDBRANCH   4   6
BRANCH   3  22
HETATM   22  C13 UNK     1      19.065  -3.841  10.945  1.00  0.00     0.253 C 
HETATM   23  O2  UNK     1      18.058  -3.955  10.221  1.00  0.00    -0.268 OA
HETATM   24  N2  UNK     1      19.875  -2.715  10.819  1.00  0.00    -0.366 N 
HETATM   25  H16 UNK     1      20.701  -2.579  11.394  1.00  0.00     0.159 HD
HETATM   26  H17 UNK     1      19.662  -1.993  10.140  1.00  0.00     0.159 HD
ENDBRANCH   3  22
BRANCH   2  27
HETATM   27  C1  UNK     1      19.512  -6.915  10.462  1.00  0.00    -0.018 A 
HETATM   28  C4  UNK     1      18.305  -7.495  10.079  1.00  0.00    -0.051 A 
HETATM   29  C11 UNK     1      17.085  -7.407  10.940  1.00  0.00     0.049 C 
HETATM   30  C9  UNK     1      18.213  -8.178   8.865  1.00  0.00     0.008 A 
HETATM   31  C10 UNK     1      19.332  -8.280   8.037  1.00  0.00     0.007 A 
HETATM   32  C7  UNK     1      20.540  -7.699   8.421  1.00  0.00    -0.061 A 
HETATM   33  C16 UNK     1      21.734  -7.808   7.536  1.00  0.00     0.048 C 
HETATM   34  C6  UNK     1      20.630  -7.016   9.635  1.00  0.00     0.019 A 
ENDBRANCH   2  27
TORSDOF 4
ENDMDL
