MODEL 1
REMARK VINA RESULT:      -9.6      0.000      0.000
REMARK  5 active torsions:
REMARK  status: ('A' for Active; 'I' for Inactive)
REMARK       I    between atoms: C11_18  and  N1_6 
REMARK    1  A    between atoms: C3_10  and  N1_6 
REMARK    2  A    between atoms: C18_25  and  N2_7 
REMARK    3  A    between atoms: C10_17  and  C7_14 
REMARK    4  A    between atoms: C11_18  and  C7_14 
REMARK    5  A    between atoms: C12_19  and  C13_20 
ROOT
HETATM    1  C7  UNK     1      18.332   4.938  33.396  1.00  0.00     0.043 C 
HETATM    2  C12 UNK     1      17.920   5.836  34.316  1.00  0.00     0.029 C 
ENDROOT
BRANCH   1   3
HETATM    3  C10 UNK     1      18.981   5.337  32.132  1.00  0.00    -0.021 A 
HETATM    4  C14 UNK     1      18.199   5.563  31.012  1.00  0.00     0.012 A 
HETATM    5  C19 UNK     1      18.813   5.939  29.817  1.00  0.00     0.001 A 
HETATM    6  C23 UNK     1      20.199   6.084  29.760  1.00  0.00     0.000 A 
HETATM    7  C20 UNK     1      20.972   5.852  30.899  1.00  0.00     0.001 A 
HETATM    8  C15 UNK     1      20.358   5.475  32.094  1.00  0.00     0.012 A 
ENDBRANCH   1   3
BRANCH   1   9
HETATM    9  C11 UNK     1      18.120   3.484  33.754  1.00  0.00     0.257 C 
HETATM   10  O3  UNK     1      17.731   2.687  32.904  1.00  0.00    -0.267 OA
HETATM   11  N1  UNK     1      18.414   3.184  35.091  1.00  0.00    -0.323 N 
HETATM   12  H8  UNK     1      18.733   3.938  35.693  1.00  0.00     0.169 HD
BRANCH  11  13
HETATM   13  C3  UNK     1      18.326   1.950  35.739  1.00  0.00     0.037 A 
HETATM   14  C6  UNK     1      19.075   0.867  35.279  1.00  0.00     0.069 A 
HETATM   15  C1  UNK     1      18.990  -0.362  35.935  1.00  0.00     0.104 A 
HETATM   16  O1  UNK     1      19.766  -1.382  35.451  1.00  0.00    -0.346 OA
HETATM   17  C2  UNK     1      18.135  -0.514  37.030  1.00  0.00     0.102 A 
HETATM   18  C4  UNK     1      19.867  -2.463  36.382  1.00  0.00     0.202 C 
HETATM   19  C5  UNK     1      18.500  -2.805  36.941  1.00  0.00     0.202 C 
HETATM   20  O2  UNK     1      17.984  -1.702  37.693  1.00  0.00    -0.346 OA
HETATM   21  C8  UNK     1      17.397   0.574  37.495  1.00  0.00     0.042 A 
HETATM   22  C9  UNK     1      17.492   1.806  36.848  1.00  0.00     0.032 A 
ENDBRANCH  11  13
ENDBRANCH   1   9
BRANCH   2  23
HETATM   23  C13 UNK     1      18.057   7.297  34.220  1.00  0.00    -0.033 A 
HETATM   24  C16 UNK     1      16.946   8.068  33.912  1.00  0.00     0.047 A 
HETATM   25  C18 UNK     1      17.076   9.454  33.823  1.00  0.00     0.103 A 
HETATM   26  C22 UNK     1      18.316  10.053  34.044  1.00  0.00     0.036 A 
HETATM   27  C21 UNK     1      19.427   9.266  34.352  1.00  0.00     0.003 A 
HETATM   28  C17 UNK     1      19.295   7.880  34.442  1.00  0.00     0.011 A 
BRANCH  25  29
HETATM   29  N2  UNK     1      15.948  10.255  33.508  1.00  0.00    -0.116 N 
HETATM   30  O4  UNK     1      15.224   9.932  32.537  1.00  0.00    -0.532 OA
HETATM   31  O5  UNK     1      15.705  11.266  34.211  1.00  0.00    -0.532 OA
ENDBRANCH  25  29
ENDBRANCH   2  23
TORSDOF 5
ENDMDL
MODEL 2
REMARK VINA RESULT:      -9.0      5.074      7.591
REMARK  5 active torsions:
REMARK  status: ('A' for Active; 'I' for Inactive)
REMARK       I    between atoms: C11_18  and  N1_6 
REMARK    1  A    between atoms: C3_10  and  N1_6 
REMARK    2  A    between atoms: C18_25  and  N2_7 
REMARK    3  A    between atoms: C10_17  and  C7_14 
REMARK    4  A    between atoms: C11_18  and  C7_14 
REMARK    5  A    between atoms: C12_19  and  C13_20 
ROOT
HETATM    1  C7  UNK     1      19.140  -1.255  34.077  1.00  0.00     0.043 C 
HETATM    2  C12 UNK     1      19.546  -0.822  32.865  1.00  0.00     0.029 C 
ENDROOT
BRANCH   1   3
HETATM    3  C10 UNK     1      18.111  -0.552  34.869  1.00  0.00    -0.021 A 
HETATM    4  C14 UNK     1      18.506   0.323  35.865  1.00  0.00     0.012 A 
HETATM    5  C19 UNK     1      17.534   0.988  36.614  1.00  0.00     0.001 A 
HETATM    6  C23 UNK     1      16.182   0.766  36.353  1.00  0.00     0.000 A 
HETATM    7  C20 UNK     1      15.802  -0.120  35.344  1.00  0.00     0.001 A 
HETATM    8  C15 UNK     1      16.774  -0.784  34.597  1.00  0.00     0.012 A 
ENDBRANCH   1   3
BRANCH   1   9
HETATM    9  C11 UNK     1      19.780  -2.535  34.568  1.00  0.00     0.257 C 
HETATM   10  O3  UNK     1      20.615  -3.113  33.879  1.00  0.00    -0.267 OA
HETATM   11  N1  UNK     1      19.330  -2.941  35.832  1.00  0.00    -0.323 N 
HETATM   12  H8  UNK     1      18.635  -2.366  36.301  1.00  0.00     0.169 HD
BRANCH  11  13
HETATM   13  C3  UNK     1      19.714  -4.065  36.565  1.00  0.00     0.037 A 
HETATM   14  C6  UNK     1      18.908  -5.203  36.570  1.00  0.00     0.069 A 
HETATM   15  C1  UNK     1      19.301  -6.327  37.297  1.00  0.00     0.104 A 
HETATM   16  O1  UNK     1      18.479  -7.422  37.246  1.00  0.00    -0.346 OA
HETATM   17  C2  UNK     1      20.482  -6.302  38.042  1.00  0.00     0.102 A 
HETATM   18  C4  UNK     1      19.130  -8.602  37.724  1.00  0.00     0.202 C 
HETATM   19  C5  UNK     1      19.856  -8.310  39.023  1.00  0.00     0.202 C 
HETATM   20  O2  UNK     1      20.904  -7.361  38.802  1.00  0.00    -0.346 OA
HETATM   21  C8  UNK     1      21.293  -5.167  38.026  1.00  0.00     0.042 A 
HETATM   22  C9  UNK     1      20.907  -4.048  37.288  1.00  0.00     0.032 A 
ENDBRANCH  11  13
ENDBRANCH   1   9
BRANCH   2  23
HETATM   23  C13 UNK     1      19.042   0.364  32.157  1.00  0.00    -0.033 A 
HETATM   24  C16 UNK     1      18.964   0.350  30.773  1.00  0.00     0.047 A 
HETATM   25  C18 UNK     1      18.484   1.475  30.101  1.00  0.00     0.103 A 
HETATM   26  C22 UNK     1      18.088   2.601  30.823  1.00  0.00     0.036 A 
HETATM   27  C21 UNK     1      18.173   2.603  32.216  1.00  0.00     0.003 A 
HETATM   28  C17 UNK     1      18.651   1.477  32.886  1.00  0.00     0.011 A 
BRANCH  25  29
HETATM   29  N2  UNK     1      18.399   1.475  28.684  1.00  0.00    -0.116 N 
HETATM   30  O4  UNK     1      18.799   0.469  28.051  1.00  0.00    -0.532 OA
HETATM   31  O5  UNK     1      17.925   2.482  28.104  1.00  0.00    -0.532 OA
ENDBRANCH  25  29
ENDBRANCH   2  23
TORSDOF 5
ENDMDL
MODEL 3
REMARK VINA RESULT:      -8.8     14.811     16.566
REMARK  5 active torsions:
REMARK  status: ('A' for Active; 'I' for Inactive)
REMARK       I    between atoms: C11_18  and  N1_6 
REMARK    1  A    between atoms: C3_10  and  N1_6 
REMARK    2  A    between atoms: C18_25  and  N2_7 
REMARK    3  A    between atoms: C10_17  and  C7_14 
REMARK    4  A    between atoms: C11_18  and  C7_14 
REMARK    5  A    between atoms: C12_19  and  C13_20 
ROOT
HETATM    1  C7  UNK     1      27.434  -7.828  38.097  1.00  0.00     0.043 C 
HETATM    2  C12 UNK     1      28.204  -7.155  38.979  1.00  0.00     0.029 C 
ENDROOT
BRANCH   1   3
HETATM    3  C10 UNK     1      27.831  -8.032  36.689  1.00  0.00    -0.021 A 
HETATM    4  C14 UNK     1      28.110  -9.312  36.244  1.00  0.00     0.012 A 
HETATM    5  C19 UNK     1      28.485  -9.505  34.915  1.00  0.00     0.001 A 
HETATM    6  C23 UNK     1      28.576  -8.414  34.051  1.00  0.00     0.000 A 
HETATM    7  C20 UNK     1      28.291  -7.129  34.517  1.00  0.00     0.001 A 
HETATM    8  C15 UNK     1      27.917  -6.937  35.846  1.00  0.00     0.012 A 
ENDBRANCH   1   3
BRANCH   1   9
HETATM    9  C11 UNK     1      26.145  -8.397  38.646  1.00  0.00     0.257 C 
HETATM   10  O3  UNK     1      26.171  -9.237  39.542  1.00  0.00    -0.267 OA
HETATM   11  N1  UNK     1      24.994  -7.869  38.045  1.00  0.00    -0.323 N 
HETATM   12  H8  UNK     1      25.112  -7.173  37.314  1.00  0.00     0.169 HD
BRANCH  11  13
HETATM   13  C3  UNK     1      23.660  -8.176  38.316  1.00  0.00     0.037 A 
HETATM   14  C6  UNK     1      22.927  -8.952  37.419  1.00  0.00     0.069 A 
HETATM   15  C1  UNK     1      21.596  -9.264  37.698  1.00  0.00     0.104 A 
HETATM   16  O1  UNK     1      20.934 -10.048  36.790  1.00  0.00    -0.346 OA
HETATM   17  C2  UNK     1      20.991  -8.775  38.859  1.00  0.00     0.102 A 
HETATM   18  C4  UNK     1      19.723 -10.584  37.330  1.00  0.00     0.202 C 
HETATM   19  C5  UNK     1      18.942  -9.499  38.045  1.00  0.00     0.202 C 
HETATM   20  O2  UNK     1      19.680  -9.019  39.172  1.00  0.00    -0.346 OA
HETATM   21  C8  UNK     1      21.730  -8.010  39.762  1.00  0.00     0.042 A 
HETATM   22  C9  UNK     1      23.065  -7.710  39.488  1.00  0.00     0.032 A 
ENDBRANCH  11  13
ENDBRANCH   1   9
BRANCH   2  23
HETATM   23  C13 UNK     1      29.515  -6.552  38.699  1.00  0.00    -0.033 A 
HETATM   24  C16 UNK     1      30.575  -7.366  38.329  1.00  0.00     0.047 A 
HETATM   25  C18 UNK     1      31.819  -6.793  38.063  1.00  0.00     0.103 A 
HETATM   26  C22 UNK     1      31.987  -5.412  38.168  1.00  0.00     0.036 A 
HETATM   27  C21 UNK     1      30.912  -4.604  38.541  1.00  0.00     0.003 A 
HETATM   28  C17 UNK     1      29.669  -5.178  38.807  1.00  0.00     0.011 A 
BRANCH  25  29
HETATM   29  N2  UNK     1      32.914  -7.613  37.684  1.00  0.00    -0.116 N 
HETATM   30  O4  UNK     1      34.080  -7.208  37.899  1.00  0.00    -0.532 OA
HETATM   31  O5  UNK     1      32.683  -8.722  37.143  1.00  0.00    -0.532 OA
ENDBRANCH  25  29
ENDBRANCH   2  23
TORSDOF 5
ENDMDL
MODEL 4
REMARK VINA RESULT:      -8.7      5.615     13.419
REMARK  5 active torsions:
REMARK  status: ('A' for Active; 'I' for Inactive)
REMARK       I    between atoms: C11_18  and  N1_6 
REMARK    1  A    between atoms: C3_10  and  N1_6 
REMARK    2  A    between atoms: C18_25  and  N2_7 
REMARK    3  A    between atoms: C10_17  and  C7_14 
REMARK    4  A    between atoms: C11_18  and  C7_14 
REMARK    5  A    between atoms: C12_19  and  C13_20 
ROOT
HETATM    1  C7  UNK     1      20.533  -5.408  37.132  1.00  0.00     0.043 C 
HETATM    2  C12 UNK     1      19.790  -6.213  36.344  1.00  0.00     0.029 C 
ENDROOT
BRANCH   1   3
HETATM    3  C10 UNK     1      21.407  -5.929  38.201  1.00  0.00    -0.021 A 
HETATM    4  C14 UNK     1      20.885  -6.812  39.130  1.00  0.00     0.012 A 
HETATM    5  C19 UNK     1      21.710  -7.305  40.142  1.00  0.00     0.001 A 
HETATM    6  C23 UNK     1      23.046  -6.907  40.207  1.00  0.00     0.000 A 
HETATM    7  C20 UNK     1      23.555  -6.016  39.262  1.00  0.00     0.001 A 
HETATM    8  C15 UNK     1      22.729  -5.523  38.252  1.00  0.00     0.012 A 
ENDBRANCH   1   3
BRANCH   1   9
HETATM    9  C11 UNK     1      20.447  -3.928  36.831  1.00  0.00     0.257 C 
HETATM   10  O3  UNK     1      21.445  -3.310  36.471  1.00  0.00    -0.267 OA
HETATM   11  N1  UNK     1      19.161  -3.393  36.997  1.00  0.00    -0.323 N 
HETATM   12  H8  UNK     1      18.418  -4.017  37.296  1.00  0.00     0.169 HD
BRANCH  11  13
HETATM   13  C3  UNK     1      18.743  -2.076  36.804  1.00  0.00     0.037 A 
HETATM   14  C6  UNK     1      18.985  -1.439  35.587  1.00  0.00     0.069 A 
HETATM   15  C1  UNK     1      18.557  -0.125  35.395  1.00  0.00     0.104 A 
HETATM   16  O1  UNK     1      18.804   0.440  34.171  1.00  0.00    -0.346 OA
HETATM   17  C2  UNK     1      17.915   0.560  36.430  1.00  0.00     0.102 A 
HETATM   18  C4  UNK     1      18.035   1.629  33.967  1.00  0.00     0.202 C 
HETATM   19  C5  UNK     1      18.105   2.517  35.194  1.00  0.00     0.202 C 
HETATM   20  O2  UNK     1      17.502   1.861  36.313  1.00  0.00    -0.346 OA
HETATM   21  C8  UNK     1      17.663  -0.082  37.641  1.00  0.00     0.042 A 
HETATM   22  C9  UNK     1      18.079  -1.401  37.828  1.00  0.00     0.032 A 
ENDBRANCH  11  13
ENDBRANCH   1   9
BRANCH   2  23
HETATM   23  C13 UNK     1      19.740  -7.680  36.409  1.00  0.00    -0.033 A 
HETATM   24  C16 UNK     1      20.736  -8.425  35.796  1.00  0.00     0.047 A 
HETATM   25  C18 UNK     1      20.689  -9.818  35.860  1.00  0.00     0.103 A 
HETATM   26  C22 UNK     1      19.646 -10.450  36.536  1.00  0.00     0.036 A 
HETATM   27  C21 UNK     1      18.649  -9.689  37.148  1.00  0.00     0.003 A 
HETATM   28  C17 UNK     1      18.697  -8.297  37.085  1.00  0.00     0.011 A 
BRANCH  25  29
HETATM   29  N2  UNK     1      21.703 -10.593  35.237  1.00  0.00    -0.116 N 
HETATM   30  O4  UNK     1      22.427 -11.330  35.947  1.00  0.00    -0.532 OA
HETATM   31  O5  UNK     1      21.846 -10.518  33.992  1.00  0.00    -0.532 OA
ENDBRANCH  25  29
ENDBRANCH   2  23
TORSDOF 5
ENDMDL
MODEL 5
REMARK VINA RESULT:      -8.7      3.583      8.868
REMARK  5 active torsions:
REMARK  status: ('A' for Active; 'I' for Inactive)
REMARK       I    between atoms: C11_18  and  N1_6 
REMARK    1  A    between atoms: C3_10  and  N1_6 
REMARK    2  A    between atoms: C18_25  and  N2_7 
REMARK    3  A    between atoms: C10_17  and  C7_14 
REMARK    4  A    between atoms: C11_18  and  C7_14 
REMARK    5  A    between atoms: C12_19  and  C13_20 
ROOT
HETATM    1  C7  UNK     1      18.041   6.011  31.917  1.00  0.00     0.043 C 
HETATM    2  C12 UNK     1      17.336   4.860  31.948  1.00  0.00     0.029 C 
ENDROOT
BRANCH   1   3
HETATM    3  C10 UNK     1      19.510   6.040  31.782  1.00  0.00    -0.021 A 
HETATM    4  C14 UNK     1      20.077   5.887  30.528  1.00  0.00     0.012 A 
HETATM    5  C19 UNK     1      21.466   5.914  30.400  1.00  0.00     0.001 A 
HETATM    6  C23 UNK     1      22.267   6.095  31.528  1.00  0.00     0.000 A 
HETATM    7  C20 UNK     1      21.678   6.248  32.784  1.00  0.00     0.001 A 
HETATM    8  C15 UNK     1      20.289   6.220  32.912  1.00  0.00     0.012 A 
ENDBRANCH   1   3
BRANCH   1   9
HETATM    9  C11 UNK     1      17.227   7.284  31.994  1.00  0.00     0.257 C 
HETATM   10  O3  UNK     1      16.833   7.831  30.968  1.00  0.00    -0.267 OA
HETATM   11  N1  UNK     1      16.990   7.722  33.305  1.00  0.00    -0.323 N 
HETATM   12  H8  UNK     1      17.370   7.172  34.071  1.00  0.00     0.169 HD
BRANCH  11  13
HETATM   13  C3  UNK     1      16.281   8.849  33.723  1.00  0.00     0.037 A 
HETATM   14  C6  UNK     1      16.964  10.021  34.050  1.00  0.00     0.069 A 
HETATM   15  C1  UNK     1      16.250  11.148  34.459  1.00  0.00     0.104 A 
HETATM   16  O1  UNK     1      16.975  12.275  34.746  1.00  0.00    -0.346 OA
HETATM   17  C2  UNK     1      14.859  11.094  34.570  1.00  0.00     0.102 A 
HETATM   18  C4  UNK     1      16.147  13.439  34.812  1.00  0.00     0.202 C 
HETATM   19  C5  UNK     1      14.906  13.155  35.636  1.00  0.00     0.202 C 
HETATM   20  O2  UNK     1      14.106  12.156  34.997  1.00  0.00    -0.346 OA
HETATM   21  C8  UNK     1      14.176   9.925  34.230  1.00  0.00     0.042 A 
HETATM   22  C9  UNK     1      14.889   8.803  33.808  1.00  0.00     0.032 A 
ENDBRANCH  11  13
ENDBRANCH   1   9
BRANCH   2  23
HETATM   23  C13 UNK     1      17.892   3.503  31.842  1.00  0.00    -0.033 A 
HETATM   24  C16 UNK     1      18.213   2.993  30.593  1.00  0.00     0.047 A 
HETATM   25  C18 UNK     1      18.741   1.705  30.494  1.00  0.00     0.103 A 
HETATM   26  C22 UNK     1      18.944   0.944  31.645  1.00  0.00     0.036 A 
HETATM   27  C21 UNK     1      18.616   1.469  32.896  1.00  0.00     0.003 A 
HETATM   28  C17 UNK     1      18.089   2.756  32.994  1.00  0.00     0.011 A 
BRANCH  25  29
HETATM   29  N2  UNK     1      19.074   1.169  29.222  1.00  0.00    -0.116 N 
HETATM   30  O4  UNK     1      18.362   1.464  28.233  1.00  0.00    -0.532 OA
HETATM   31  O5  UNK     1      20.072   0.415  29.123  1.00  0.00    -0.532 OA
ENDBRANCH  25  29
ENDBRANCH   2  23
TORSDOF 5
ENDMDL
MODEL 6
REMARK VINA RESULT:      -8.6      5.299     12.476
REMARK  5 active torsions:
REMARK  status: ('A' for Active; 'I' for Inactive)
REMARK       I    between atoms: C11_18  and  N1_6 
REMARK    1  A    between atoms: C3_10  and  N1_6 
REMARK    2  A    between atoms: C18_25  and  N2_7 
REMARK    3  A    between atoms: C10_17  and  C7_14 
REMARK    4  A    between atoms: C11_18  and  C7_14 
REMARK    5  A    between atoms: C12_19  and  C13_20 
ROOT
HETATM    1  C7  UNK     1      19.854  -4.212  36.946  1.00  0.00     0.043 C 
HETATM    2  C12 UNK     1      20.810  -4.327  37.892  1.00  0.00     0.029 C 
ENDROOT
BRANCH   1   3
HETATM    3  C10 UNK     1      19.185  -5.382  36.346  1.00  0.00    -0.021 A 
HETATM    4  C14 UNK     1      19.875  -6.162  35.435  1.00  0.00     0.012 A 
HETATM    5  C19 UNK     1      19.242  -7.269  34.867  1.00  0.00     0.001 A 
HETATM    6  C23 UNK     1      17.928  -7.578  35.221  1.00  0.00     0.000 A 
HETATM    7  C20 UNK     1      17.248  -6.780  36.142  1.00  0.00     0.001 A 
HETATM    8  C15 UNK     1      17.881  -5.674  36.708  1.00  0.00     0.012 A 
ENDBRANCH   1   3
BRANCH   1   9
HETATM    9  C11 UNK     1      19.479  -2.799  36.557  1.00  0.00     0.257 C 
HETATM   10  O3  UNK     1      19.338  -1.936  37.419  1.00  0.00    -0.267 OA
HETATM   11  N1  UNK     1      19.333  -2.615  35.175  1.00  0.00    -0.323 N 
HETATM   12  H8  UNK     1      19.483  -3.415  34.566  1.00  0.00     0.169 HD
BRANCH  11  13
HETATM   13  C3  UNK     1      18.996  -1.446  34.490  1.00  0.00     0.037 A 
HETATM   14  C6  UNK     1      19.376  -1.285  33.158  1.00  0.00     0.069 A 
HETATM   15  C1  UNK     1      19.030  -0.119  32.475  1.00  0.00     0.104 A 
HETATM   16  O1  UNK     1      19.412  -0.027  31.162  1.00  0.00    -0.346 OA
HETATM   17  C2  UNK     1      18.331   0.897  33.133  1.00  0.00     0.102 A 
HETATM   18  C4  UNK     1      18.721   1.022  30.478  1.00  0.00     0.202 C 
HETATM   19  C5  UNK     1      18.723   2.286  31.315  1.00  0.00     0.202 C 
HETATM   20  O2  UNK     1      17.991   2.077  32.527  1.00  0.00    -0.346 OA
HETATM   21  C8  UNK     1      17.941   0.728  34.461  1.00  0.00     0.042 A 
HETATM   22  C9  UNK     1      18.275  -0.444  35.140  1.00  0.00     0.032 A 
ENDBRANCH  11  13
ENDBRANCH   1   9
BRANCH   2  23
HETATM   23  C13 UNK     1      21.311  -5.584  38.467  1.00  0.00    -0.033 A 
HETATM   24  C16 UNK     1      22.668  -5.865  38.415  1.00  0.00     0.047 A 
HETATM   25  C18 UNK     1      23.143  -7.058  38.961  1.00  0.00     0.103 A 
HETATM   26  C22 UNK     1      22.255  -7.955  39.554  1.00  0.00     0.036 A 
HETATM   27  C21 UNK     1      20.891  -7.661  39.600  1.00  0.00     0.003 A 
HETATM   28  C17 UNK     1      20.418  -6.468  39.054  1.00  0.00     0.011 A 
BRANCH  25  29
HETATM   29  N2  UNK     1      24.530  -7.359  38.915  1.00  0.00    -0.116 N 
HETATM   30  O4  UNK     1      25.341  -6.447  38.629  1.00  0.00    -0.532 OA
HETATM   31  O5  UNK     1      24.905  -8.531  39.161  1.00  0.00    -0.532 OA
ENDBRANCH  25  29
ENDBRANCH   2  23
TORSDOF 5
ENDMDL
MODEL 7
REMARK VINA RESULT:      -8.5     14.654     16.520
REMARK  5 active torsions:
REMARK  status: ('A' for Active; 'I' for Inactive)
REMARK       I    between atoms: C11_18  and  N1_6 
REMARK    1  A    between atoms: C3_10  and  N1_6 
REMARK    2  A    between atoms: C18_25  and  N2_7 
REMARK    3  A    between atoms: C10_17  and  C7_14 
REMARK    4  A    between atoms: C11_18  and  C7_14 
REMARK    5  A    between atoms: C12_19  and  C13_20 
ROOT
HETATM    1  C7  UNK     1      27.353  -8.866  36.984  1.00  0.00     0.043 C 
HETATM    2  C12 UNK     1      28.056  -8.596  38.105  1.00  0.00     0.029 C 
ENDROOT
BRANCH   1   3
HETATM    3  C10 UNK     1      27.944  -8.776  35.634  1.00  0.00    -0.021 A 
HETATM    4  C14 UNK     1      28.027  -7.541  35.014  1.00  0.00     0.012 A 
HETATM    5  C19 UNK     1      28.585  -7.455  33.738  1.00  0.00     0.001 A 
HETATM    6  C23 UNK     1      29.053  -8.606  33.103  1.00  0.00     0.000 A 
HETATM    7  C20 UNK     1      28.962  -9.842  33.744  1.00  0.00     0.001 A 
HETATM    8  C15 UNK     1      28.403  -9.928  35.019  1.00  0.00     0.012 A 
ENDBRANCH   1   3
BRANCH   1   9
HETATM    9  C11 UNK     1      25.921  -9.305  37.193  1.00  0.00     0.257 C 
HETATM   10  O3  UNK     1      25.556 -10.420  36.833  1.00  0.00    -0.267 OA
HETATM   11  N1  UNK     1      25.121  -8.338  37.820  1.00  0.00    -0.323 N 
HETATM   12  H8  UNK     1      25.550  -7.452  38.073  1.00  0.00     0.169 HD
BRANCH  11  13
HETATM   13  C3  UNK     1      23.769  -8.422  38.156  1.00  0.00     0.037 A 
HETATM   14  C6  UNK     1      22.838  -8.830  37.201  1.00  0.00     0.069 A 
HETATM   15  C1  UNK     1      21.488  -8.921  37.544  1.00  0.00     0.104 A 
HETATM   16  O1  UNK     1      20.624  -9.348  36.571  1.00  0.00    -0.346 OA
HETATM   17  C2  UNK     1      21.068  -8.576  38.832  1.00  0.00     0.102 A 
HETATM   18  C4  UNK     1      19.357  -9.732  37.112  1.00  0.00     0.202 C 
HETATM   19  C5  UNK     1      18.869  -8.688  38.097  1.00  0.00     0.202 C 
HETATM   20  O2  UNK     1      19.755  -8.614  39.218  1.00  0.00    -0.346 OA
HETATM   21  C8  UNK     1      22.003  -8.181  39.788  1.00  0.00     0.042 A 
HETATM   22  C9  UNK     1      23.354  -8.103  39.449  1.00  0.00     0.032 A 
ENDBRANCH  11  13
ENDBRANCH   1   9
BRANCH   2  23
HETATM   23  C13 UNK     1      29.469  -8.198  38.164  1.00  0.00    -0.033 A 
HETATM   24  C16 UNK     1      29.796  -6.856  38.293  1.00  0.00     0.047 A 
HETATM   25  C18 UNK     1      31.138  -6.479  38.351  1.00  0.00     0.103 A 
HETATM   26  C22 UNK     1      32.138  -7.448  38.279  1.00  0.00     0.036 A 
HETATM   27  C21 UNK     1      31.796  -8.796  38.149  1.00  0.00     0.003 A 
HETATM   28  C17 UNK     1      30.455  -9.171  38.092  1.00  0.00     0.011 A 
BRANCH  25  29
HETATM   29  N2  UNK     1      31.487  -5.109  38.483  1.00  0.00    -0.116 N 
HETATM   30  O4  UNK     1      32.579  -4.712  38.012  1.00  0.00    -0.532 OA
HETATM   31  O5  UNK     1      30.692  -4.333  39.067  1.00  0.00    -0.532 OA
ENDBRANCH  25  29
ENDBRANCH   2  23
TORSDOF 5
ENDMDL
MODEL 8
REMARK VINA RESULT:      -8.4      5.436      8.318
REMARK  5 active torsions:
REMARK  status: ('A' for Active; 'I' for Inactive)
REMARK       I    between atoms: C11_18  and  N1_6 
REMARK    1  A    between atoms: C3_10  and  N1_6 
REMARK    2  A    between atoms: C18_25  and  N2_7 
REMARK    3  A    between atoms: C10_17  and  C7_14 
REMARK    4  A    between atoms: C11_18  and  C7_14 
REMARK    5  A    between atoms: C12_19  and  C13_20 
ROOT
HETATM    1  C7  UNK     1      19.579  -2.056  34.857  1.00  0.00     0.043 C 
HETATM    2  C12 UNK     1      20.204  -2.413  33.715  1.00  0.00     0.029 C 
ENDROOT
BRANCH   1   3
HETATM    3  C10 UNK     1      18.677  -0.891  34.938  1.00  0.00    -0.021 A 
HETATM    4  C14 UNK     1      17.352  -1.034  34.561  1.00  0.00     0.012 A 
HETATM    5  C19 UNK     1      16.499   0.068  34.638  1.00  0.00     0.001 A 
HETATM    6  C23 UNK     1      16.984   1.295  35.091  1.00  0.00     0.000 A 
HETATM    7  C20 UNK     1      18.323   1.421  35.467  1.00  0.00     0.001 A 
HETATM    8  C15 UNK     1      19.175   0.320  35.389  1.00  0.00     0.012 A 
ENDBRANCH   1   3
BRANCH   1   9
HETATM    9  C11 UNK     1      19.831  -2.948  36.052  1.00  0.00     0.257 C 
HETATM   10  O3  UNK     1      20.193  -2.464  37.121  1.00  0.00    -0.267 OA
HETATM   11  N1  UNK     1      19.603  -4.308  35.798  1.00  0.00    -0.323 N 
HETATM   12  H8  UNK     1      19.299  -4.578  34.867  1.00  0.00     0.169 HD
BRANCH  11  13
HETATM   13  C3  UNK     1      19.740  -5.385  36.676  1.00  0.00     0.037 A 
HETATM   14  C6  UNK     1      20.974  -5.646  37.270  1.00  0.00     0.069 A 
HETATM   15  C1  UNK     1      21.105  -6.718  38.153  1.00  0.00     0.104 A 
HETATM   16  O1  UNK     1      22.336  -6.912  38.722  1.00  0.00    -0.346 OA
HETATM   17  C2  UNK     1      20.010  -7.545  38.418  1.00  0.00     0.102 A 
HETATM   18  C4  UNK     1      22.272  -7.794  39.846  1.00  0.00     0.202 C 
HETATM   19  C5  UNK     1      21.438  -9.014  39.510  1.00  0.00     0.202 C 
HETATM   20  O2  UNK     1      20.084  -8.631  39.250  1.00  0.00    -0.346 OA
HETATM   21  C8  UNK     1      18.773  -7.274  37.833  1.00  0.00     0.042 A 
HETATM   22  C9  UNK     1      18.640  -6.194  36.960  1.00  0.00     0.032 A 
ENDBRANCH  11  13
ENDBRANCH   1   9
BRANCH   2  23
HETATM   23  C13 UNK     1      20.083  -1.736  32.415  1.00  0.00    -0.033 A 
HETATM   24  C16 UNK     1      19.541  -0.462  32.357  1.00  0.00     0.047 A 
HETATM   25  C18 UNK     1      19.428   0.181  31.124  1.00  0.00     0.103 A 
HETATM   26  C22 UNK     1      19.859  -0.460  29.963  1.00  0.00     0.036 A 
HETATM   27  C21 UNK     1      20.403  -1.743  30.034  1.00  0.00     0.003 A 
HETATM   28  C17 UNK     1      20.516  -2.384  31.268  1.00  0.00     0.011 A 
BRANCH  25  29
HETATM   29  N2  UNK     1      18.874   1.486  31.050  1.00  0.00    -0.116 N 
HETATM   30  O4  UNK     1      18.236   1.932  32.033  1.00  0.00    -0.532 OA
HETATM   31  O5  UNK     1      19.038   2.157  30.002  1.00  0.00    -0.532 OA
ENDBRANCH  25  29
ENDBRANCH   2  23
TORSDOF 5
ENDMDL
MODEL 9
REMARK VINA RESULT:      -8.4      3.567      4.776
REMARK  5 active torsions:
REMARK  status: ('A' for Active; 'I' for Inactive)
REMARK       I    between atoms: C11_18  and  N1_6 
REMARK    1  A    between atoms: C3_10  and  N1_6 
REMARK    2  A    between atoms: C18_25  and  N2_7 
REMARK    3  A    between atoms: C10_17  and  C7_14 
REMARK    4  A    between atoms: C11_18  and  C7_14 
REMARK    5  A    between atoms: C12_19  and  C13_20 
ROOT
HETATM    1  C7  UNK     1      17.929   5.889  33.065  1.00  0.00     0.043 C 
HETATM    2  C12 UNK     1      19.050   6.579  33.364  1.00  0.00     0.029 C 
ENDROOT
BRANCH   1   3
HETATM    3  C10 UNK     1      16.589   6.508  33.069  1.00  0.00    -0.021 A 
HETATM    4  C14 UNK     1      15.965   6.778  31.864  1.00  0.00     0.012 A 
HETATM    5  C19 UNK     1      14.699   7.364  31.868  1.00  0.00     0.001 A 
HETATM    6  C23 UNK     1      14.076   7.669  33.078  1.00  0.00     0.000 A 
HETATM    7  C20 UNK     1      14.720   7.388  34.285  1.00  0.00     0.001 A 
HETATM    8  C15 UNK     1      15.986   6.804  34.280  1.00  0.00     0.012 A 
ENDBRANCH   1   3
BRANCH   1   9
HETATM    9  C11 UNK     1      18.130   4.438  32.686  1.00  0.00     0.257 C 
HETATM   10  O3  UNK     1      18.064   3.560  33.543  1.00  0.00    -0.267 OA
HETATM   11  N1  UNK     1      18.377   4.241  31.320  1.00  0.00    -0.323 N 
HETATM   12  H8  UNK     1      18.401   5.056  30.715  1.00  0.00     0.169 HD
BRANCH  11  13
HETATM   13  C3  UNK     1      18.603   3.038  30.649  1.00  0.00     0.037 A 
HETATM   14  C6  UNK     1      19.323   2.018  31.271  1.00  0.00     0.069 A 
HETATM   15  C1  UNK     1      19.540   0.814  30.599  1.00  0.00     0.104 A 
HETATM   16  O1  UNK     1      20.235  -0.158  31.269  1.00  0.00    -0.346 OA
HETATM   17  C2  UNK     1      19.063   0.643  29.297  1.00  0.00     0.102 A 
HETATM   18  C4  UNK     1      20.099  -1.438  30.645  1.00  0.00     0.202 C 
HETATM   19  C5  UNK     1      20.300  -1.315  29.147  1.00  0.00     0.202 C 
HETATM   20  O2  UNK     1      19.272  -0.502  28.575  1.00  0.00    -0.346 OA
HETATM   21  C8  UNK     1      18.332   1.659  28.682  1.00  0.00     0.042 A 
HETATM   22  C9  UNK     1      18.104   2.858  29.359  1.00  0.00     0.032 A 
ENDBRANCH  11  13
ENDBRANCH   1   9
BRANCH   2  23
HETATM   23  C13 UNK     1      19.119   8.005  33.715  1.00  0.00    -0.033 A 
HETATM   24  C16 UNK     1      17.972   8.781  33.645  1.00  0.00     0.047 A 
HETATM   25  C18 UNK     1      18.038  10.134  33.979  1.00  0.00     0.103 A 
HETATM   26  C22 UNK     1      19.251  10.695  34.381  1.00  0.00     0.036 A 
HETATM   27  C21 UNK     1      20.398   9.903  34.446  1.00  0.00     0.003 A 
HETATM   28  C17 UNK     1      20.331   8.550  34.112  1.00  0.00     0.011 A 
BRANCH  25  29
HETATM   29  N2  UNK     1      16.872  10.941  33.912  1.00  0.00    -0.116 N 
HETATM   30  O4  UNK     1      15.922  10.577  33.179  1.00  0.00    -0.532 OA
HETATM   31  O5  UNK     1      16.824  11.997  34.589  1.00  0.00    -0.532 OA
ENDBRANCH  25  29
ENDBRANCH   2  23
TORSDOF 5
ENDMDL
MODEL 10
REMARK VINA RESULT:      -8.3      2.982      8.828
REMARK  5 active torsions:
REMARK  status: ('A' for Active; 'I' for Inactive)
REMARK       I    between atoms: C11_18  and  N1_6 
REMARK    1  A    between atoms: C3_10  and  N1_6 
REMARK    2  A    between atoms: C18_25  and  N2_7 
REMARK    3  A    between atoms: C10_17  and  C7_14 
REMARK    4  A    between atoms: C11_18  and  C7_14 
REMARK    5  A    between atoms: C12_19  and  C13_20 
ROOT
HETATM    1  C7  UNK     1      18.074   5.988  31.827  1.00  0.00     0.043 C 
HETATM    2  C12 UNK     1      17.371   4.838  31.766  1.00  0.00     0.029 C 
ENDROOT
BRANCH   1   3
HETATM    3  C10 UNK     1      19.547   6.025  31.741  1.00  0.00    -0.021 A 
HETATM    4  C14 UNK     1      20.288   6.208  32.896  1.00  0.00     0.012 A 
HETATM    5  C19 UNK     1      21.680   6.243  32.814  1.00  0.00     0.001 A 
HETATM    6  C23 UNK     1      22.310   6.094  31.579  1.00  0.00     0.000 A 
HETATM    7  C20 UNK     1      21.547   5.909  30.424  1.00  0.00     0.001 A 
HETATM    8  C15 UNK     1      20.156   5.876  30.506  1.00  0.00     0.012 A 
ENDBRANCH   1   3
BRANCH   1   9
HETATM    9  C11 UNK     1      17.256   7.255  31.956  1.00  0.00     0.257 C 
HETATM   10  O3  UNK     1      16.831   7.821  30.953  1.00  0.00    -0.267 OA
HETATM   11  N1  UNK     1      17.056   7.663  33.282  1.00  0.00    -0.323 N 
HETATM   12  H8  UNK     1      17.461   7.099  34.024  1.00  0.00     0.169 HD
BRANCH  11  13
HETATM   13  C3  UNK     1      16.353   8.777  33.745  1.00  0.00     0.037 A 
HETATM   14  C6  UNK     1      17.032   9.965  34.016  1.00  0.00     0.069 A 
HETATM   15  C1  UNK     1      16.325  11.079  34.470  1.00  0.00     0.104 A 
HETATM   16  O1  UNK     1      17.042  12.224  34.698  1.00  0.00    -0.346 OA
HETATM   17  C2  UNK     1      14.946  10.995  34.681  1.00  0.00     0.102 A 
HETATM   18  C4  UNK     1      16.195  13.370  34.819  1.00  0.00     0.202 C 
HETATM   19  C5  UNK     1      15.024  13.064  35.731  1.00  0.00     0.202 C 
HETATM   20  O2  UNK     1      14.203  12.043  35.156  1.00  0.00    -0.346 OA
HETATM   21  C8  UNK     1      14.268   9.810  34.397  1.00  0.00     0.042 A 
HETATM   22  C9  UNK     1      14.973   8.701  33.930  1.00  0.00     0.032 A 
ENDBRANCH  11  13
ENDBRANCH   1   9
BRANCH   2  23
HETATM   23  C13 UNK     1      17.932   3.490  31.596  1.00  0.00    -0.033 A 
HETATM   24  C16 UNK     1      18.090   2.672  32.705  1.00  0.00     0.047 A 
HETATM   25  C18 UNK     1      18.621   1.392  32.543  1.00  0.00     0.103 A 
HETATM   26  C22 UNK     1      18.987   0.945  31.273  1.00  0.00     0.036 A 
HETATM   27  C21 UNK     1      18.823   1.778  30.165  1.00  0.00     0.003 A 
HETATM   28  C17 UNK     1      18.291   3.056  30.329  1.00  0.00     0.011 A 
BRANCH  25  29
HETATM   29  N2  UNK     1      18.790   0.544  33.669  1.00  0.00    -0.116 N 
HETATM   30  O4  UNK     1      18.788   1.050  34.816  1.00  0.00    -0.532 OA
HETATM   31  O5  UNK     1      18.937  -0.688  33.484  1.00  0.00    -0.532 OA
ENDBRANCH  25  29
ENDBRANCH   2  23
TORSDOF 5
ENDMDL
