MODEL 1
REMARK VINA RESULT:     -10.4      0.000      0.000
REMARK  2 active torsions:
REMARK  status: ('A' for Active; 'I' for Inactive)
REMARK    1  A    between atoms: C1_5  and  C3_7 
REMARK    2  A    between atoms: C4_8  and  C6_10 
ROOT
HETATM    1  N1  UNK     1      18.494  -4.596  12.980  1.00  0.00    -0.379 N 
HETATM    2  N2  UNK     1      17.888  -3.466  15.784  1.00  0.00    -0.250 NA
HETATM    3  C1  UNK     1      19.076  -3.266  13.016  1.00  0.00     0.120 C 
HETATM    4  C2  UNK     1      19.842  -3.037  14.320  1.00  0.00     0.090 C 
HETATM    5  C4  UNK     1      18.837  -2.681  15.382  1.00  0.00     0.053 C 
HETATM    6  C5  UNK     1      17.921  -5.287  14.035  1.00  0.00     0.057 A 
HETATM    7  C7  UNK     1      17.694  -4.785  15.334  1.00  0.00     0.083 A 
HETATM    8  C10 UNK     1      17.594  -6.642  13.785  1.00  0.00     0.031 A 
HETATM    9  C15 UNK     1      17.139  -5.645  16.307  1.00  0.00     0.034 A 
HETATM   10  C18 UNK     1      17.053  -7.475  14.763  1.00  0.00     0.002 A 
HETATM   11  C20 UNK     1      16.824  -6.972  16.032  1.00  0.00     0.002 A 
HETATM   12  H4  UNK     1      18.428  -5.041  12.068  1.00  0.00     0.160 HD
ENDROOT
BRANCH   5  13
HETATM   13  C6  UNK     1      18.941  -1.333  15.981  1.00  0.00     0.065 A 
HETATM   14  C11 UNK     1      18.781  -1.239  17.309  1.00  0.00     0.034 A 
HETATM   15  C17 UNK     1      18.865   0.042  17.992  1.00  0.00    -0.001 A 
HETATM   16  C19 UNK     1      19.117   1.185  17.243  1.00  0.00     0.089 A 
HETATM   17  C22 UNK     1      18.701   0.164  19.374  1.00  0.00     0.014 A 
HETATM   18  O1  UNK     1      19.286   1.098  15.849  1.00  0.00    -0.274 OA
HETATM   19  C23 UNK     1      19.209   2.444  17.833  1.00  0.00     0.038 A 
HETATM   20  C16 UNK     1      19.211  -0.114  15.166  1.00  0.00     0.300 A 
HETATM   21  O2  UNK     1      19.360  -0.173  13.951  1.00  0.00    -0.259 OA
HETATM   22  C25 UNK     1      19.046   2.557  19.212  1.00  0.00     0.003 A 
HETATM   23  C24 UNK     1      18.792   1.419  19.981  1.00  0.00     0.001 A 
ENDBRANCH   5  13
BRANCH   3  24
HETATM   24  C3  UNK     1      19.986  -3.087  11.813  1.00  0.00    -0.035 A 
HETATM   25  C8  UNK     1      20.213  -4.156  10.950  1.00  0.00     0.010 A 
HETATM   26  C12 UNK     1      21.047  -3.992   9.845  1.00  0.00     0.007 A 
HETATM   27  C14 UNK     1      21.653  -2.759   9.606  1.00  0.00    -0.062 A 
HETATM   28  C13 UNK     1      21.424  -1.690  10.472  1.00  0.00     0.007 A 
HETATM   29  C21 UNK     1      22.547  -2.583   8.425  1.00  0.00     0.048 C 
HETATM   30  C9  UNK     1      20.589  -1.854  11.577  1.00  0.00     0.010 A 
ENDBRANCH   3  24
TORSDOF 2
ENDMDL
MODEL 2
REMARK VINA RESULT:      -9.6     20.738     24.271
REMARK  2 active torsions:
REMARK  status: ('A' for Active; 'I' for Inactive)
REMARK    1  A    between atoms: C1_5  and  C3_7 
REMARK    2  A    between atoms: C4_8  and  C6_10 
ROOT
HETATM    1  N1  UNK     1      29.995  -6.050  36.704  1.00  0.00    -0.379 N 
HETATM    2  N2  UNK     1      30.736  -6.012  33.711  1.00  0.00    -0.250 NA
HETATM    3  C1  UNK     1      29.118  -7.011  36.055  1.00  0.00     0.120 C 
HETATM    4  C2  UNK     1      29.899  -7.898  35.085  1.00  0.00     0.090 C 
HETATM    5  C4  UNK     1      30.080  -7.124  33.806  1.00  0.00     0.053 C 
HETATM    6  C5  UNK     1      31.056  -5.368  36.132  1.00  0.00     0.057 A 
HETATM    7  C7  UNK     1      31.426  -5.395  34.771  1.00  0.00     0.083 A 
HETATM    8  C10 UNK     1      31.870  -4.627  37.023  1.00  0.00     0.031 A 
HETATM    9  C15 UNK     1      32.571  -4.672  34.364  1.00  0.00     0.034 A 
HETATM   10  C18 UNK     1      32.999  -3.927  36.600  1.00  0.00     0.002 A 
HETATM   11  C20 UNK     1      33.350  -3.950  35.262  1.00  0.00     0.002 A 
HETATM   12  H4  UNK     1      29.759  -5.789  37.657  1.00  0.00     0.160 HD
ENDROOT
BRANCH   5  13
HETATM   13  C6  UNK     1      29.441  -7.675  32.591  1.00  0.00     0.065 A 
HETATM   14  C11 UNK     1      30.105  -8.633  31.931  1.00  0.00     0.034 A 
HETATM   15  C17 UNK     1      29.561  -9.238  30.726  1.00  0.00    -0.001 A 
HETATM   16  C19 UNK     1      28.327  -8.806  30.258  1.00  0.00     0.089 A 
HETATM   17  C22 UNK     1      30.236 -10.238  30.021  1.00  0.00     0.014 A 
HETATM   18  O1  UNK     1      27.621  -7.800  30.943  1.00  0.00    -0.274 OA
HETATM   19  C23 UNK     1      27.747  -9.341  29.110  1.00  0.00     0.038 A 
HETATM   20  C16 UNK     1      28.116  -7.201  32.100  1.00  0.00     0.300 A 
HETATM   21  O2  UNK     1      27.488  -6.325  32.685  1.00  0.00    -0.259 OA
HETATM   22  C25 UNK     1      28.426 -10.339  28.414  1.00  0.00     0.003 A 
HETATM   23  C24 UNK     1      29.668 -10.786  28.869  1.00  0.00     0.001 A 
ENDBRANCH   5  13
BRANCH   3  24
HETATM   24  C3  UNK     1      28.423  -7.846  37.117  1.00  0.00    -0.035 A 
HETATM   25  C8  UNK     1      28.494  -7.466  38.454  1.00  0.00     0.010 A 
HETATM   26  C12 UNK     1      27.855  -8.233  39.429  1.00  0.00     0.007 A 
HETATM   27  C14 UNK     1      27.149  -9.378  39.062  1.00  0.00    -0.062 A 
HETATM   28  C13 UNK     1      27.080  -9.756  37.721  1.00  0.00     0.007 A 
HETATM   29  C21 UNK     1      26.467 -10.199  40.105  1.00  0.00     0.048 C 
HETATM   30  C9  UNK     1      27.719  -8.989  36.747  1.00  0.00     0.010 A 
ENDBRANCH   3  24
TORSDOF 2
ENDMDL
MODEL 3
REMARK VINA RESULT:      -9.4     21.508     23.588
REMARK  2 active torsions:
REMARK  status: ('A' for Active; 'I' for Inactive)
REMARK    1  A    between atoms: C1_5  and  C3_7 
REMARK    2  A    between atoms: C4_8  and  C6_10 
ROOT
HETATM    1  N1  UNK     1      29.518 -10.919  32.153  1.00  0.00    -0.379 N 
HETATM    2  N2  UNK     1      31.999 -10.821  33.981  1.00  0.00    -0.250 NA
HETATM    3  C1  UNK     1      29.581  -9.567  32.679  1.00  0.00     0.120 C 
HETATM    4  C2  UNK     1      31.005  -9.015  32.604  1.00  0.00     0.090 C 
HETATM    5  C4  UNK     1      31.769  -9.563  33.780  1.00  0.00     0.053 C 
HETATM    6  C5  UNK     1      30.461 -11.922  32.308  1.00  0.00     0.057 A 
HETATM    7  C7  UNK     1      31.624 -11.855  33.103  1.00  0.00     0.083 A 
HETATM    8  C10 UNK     1      30.252 -13.094  31.541  1.00  0.00     0.031 A 
HETATM    9  C15 UNK     1      32.507 -12.959  33.110  1.00  0.00     0.034 A 
HETATM   10  C18 UNK     1      31.140 -14.169  31.559  1.00  0.00     0.002 A 
HETATM   11  C20 UNK     1      32.274 -14.100  32.348  1.00  0.00     0.002 A 
HETATM   12  H4  UNK     1      28.655 -11.187  31.686  1.00  0.00     0.160 HD
ENDROOT
BRANCH   5  13
HETATM   13  C6  UNK     1      32.263  -8.586  34.775  1.00  0.00     0.065 A 
HETATM   14  C11 UNK     1      31.358  -8.034  35.594  1.00  0.00     0.034 A 
HETATM   15  C17 UNK     1      31.744  -7.063  36.604  1.00  0.00    -0.001 A 
HETATM   16  C19 UNK     1      33.082  -6.707  36.715  1.00  0.00     0.089 A 
HETATM   17  C22 UNK     1      30.817  -6.475  37.468  1.00  0.00     0.014 A 
HETATM   18  O1  UNK     1      34.042  -7.280  35.860  1.00  0.00    -0.274 OA
HETATM   19  C23 UNK     1      33.522  -5.783  37.660  1.00  0.00     0.038 A 
HETATM   20  C16 UNK     1      33.702  -8.213  34.881  1.00  0.00     0.300 A 
HETATM   21  O2  UNK     1      34.551  -8.702  34.144  1.00  0.00    -0.259 OA
HETATM   22  C25 UNK     1      32.591  -5.202  38.519  1.00  0.00     0.003 A 
HETATM   23  C24 UNK     1      31.242  -5.547  38.423  1.00  0.00     0.001 A 
ENDBRANCH   5  13
BRANCH   3  24
HETATM   24  C3  UNK     1      28.615  -8.685  31.906  1.00  0.00    -0.035 A 
HETATM   25  C8  UNK     1      28.148  -9.096  30.660  1.00  0.00     0.010 A 
HETATM   26  C12 UNK     1      27.261  -8.287  29.951  1.00  0.00     0.007 A 
HETATM   27  C14 UNK     1      26.844  -7.070  30.489  1.00  0.00    -0.062 A 
HETATM   28  C13 UNK     1      27.314  -6.661  31.737  1.00  0.00     0.007 A 
HETATM   29  C21 UNK     1      25.896  -6.204  29.730  1.00  0.00     0.048 C 
HETATM   30  C9  UNK     1      28.201  -7.471  32.447  1.00  0.00     0.010 A 
ENDBRANCH   3  24
TORSDOF 2
ENDMDL
MODEL 4
REMARK VINA RESULT:      -9.2     16.249     21.218
REMARK  2 active torsions:
REMARK  status: ('A' for Active; 'I' for Inactive)
REMARK    1  A    between atoms: C1_5  and  C3_7 
REMARK    2  A    between atoms: C4_8  and  C6_10 
ROOT
HETATM    1  N1  UNK     1      18.733  -2.317  37.326  1.00  0.00    -0.379 N 
HETATM    2  N2  UNK     1      18.695  -0.329  34.968  1.00  0.00    -0.250 NA
HETATM    3  C1  UNK     1      19.316  -3.017  36.194  1.00  0.00     0.120 C 
HETATM    4  C2  UNK     1      20.324  -2.132  35.461  1.00  0.00     0.090 C 
HETATM    5  C4  UNK     1      19.549  -1.211  34.557  1.00  0.00     0.053 C 
HETATM    6  C5  UNK     1      18.376  -0.981  37.388  1.00  0.00     0.057 A 
HETATM    7  C7  UNK     1      18.410  -0.059  36.320  1.00  0.00     0.083 A 
HETATM    8  C10 UNK     1      18.000  -0.497  38.665  1.00  0.00     0.031 A 
HETATM    9  C15 UNK     1      18.054   1.285  36.571  1.00  0.00     0.034 A 
HETATM   10  C18 UNK     1      17.659   0.835  38.890  1.00  0.00     0.002 A 
HETATM   11  C20 UNK     1      17.686   1.731  37.836  1.00  0.00     0.002 A 
HETATM   12  H4  UNK     1      18.487  -2.882  38.134  1.00  0.00     0.160 HD
ENDROOT
BRANCH   5  13
HETATM   13  C6  UNK     1      19.774  -1.352  33.101  1.00  0.00     0.065 A 
HETATM   14  C11 UNK     1      19.280  -0.390  32.309  1.00  0.00     0.034 A 
HETATM   15  C17 UNK     1      19.448  -0.438  30.866  1.00  0.00    -0.001 A 
HETATM   16  C19 UNK     1      20.138  -1.506  30.307  1.00  0.00     0.089 A 
HETATM   17  C22 UNK     1      18.941   0.552  30.022  1.00  0.00     0.014 A 
HETATM   18  O1  UNK     1      20.662  -2.521  31.129  1.00  0.00    -0.274 OA
HETATM   19  C23 UNK     1      20.336  -1.615  28.933  1.00  0.00     0.038 A 
HETATM   20  C16 UNK     1      20.516  -2.504  32.515  1.00  0.00     0.300 A 
HETATM   21  O2  UNK     1      20.978  -3.397  33.217  1.00  0.00    -0.259 OA
HETATM   22  C25 UNK     1      19.828  -0.623  28.097  1.00  0.00     0.003 A 
HETATM   23  C24 UNK     1      19.132   0.459  28.641  1.00  0.00     0.001 A 
ENDBRANCH   5  13
BRANCH   3  24
HETATM   24  C3  UNK     1      19.972  -4.297  36.684  1.00  0.00    -0.035 A 
HETATM   25  C8  UNK     1      19.515  -5.530  36.224  1.00  0.00     0.010 A 
HETATM   26  C12 UNK     1      20.117  -6.705  36.674  1.00  0.00     0.007 A 
HETATM   27  C14 UNK     1      21.173  -6.643  37.582  1.00  0.00    -0.062 A 
HETATM   28  C13 UNK     1      21.628  -5.407  38.040  1.00  0.00     0.007 A 
HETATM   29  C21 UNK     1      21.816  -7.900  38.064  1.00  0.00     0.048 C 
HETATM   30  C9  UNK     1      21.026  -4.232  37.590  1.00  0.00     0.010 A 
ENDBRANCH   3  24
TORSDOF 2
ENDMDL
MODEL 5
REMARK VINA RESULT:      -9.2     21.385     24.591
REMARK  2 active torsions:
REMARK  status: ('A' for Active; 'I' for Inactive)
REMARK    1  A    between atoms: C1_5  and  C3_7 
REMARK    2  A    between atoms: C4_8  and  C6_10 
ROOT
HETATM    1  N1  UNK     1      33.783  -6.011  35.284  1.00  0.00    -0.379 N 
HETATM    2  N2  UNK     1      33.413  -7.833  32.823  1.00  0.00    -0.250 NA
HETATM    3  C1  UNK     1      32.351  -6.088  35.047  1.00  0.00     0.120 C 
HETATM    4  C2  UNK     1      31.917  -7.529  34.777  1.00  0.00     0.090 C 
HETATM    5  C4  UNK     1      32.223  -7.835  33.335  1.00  0.00     0.053 C 
HETATM    6  C5  UNK     1      34.777  -6.730  34.641  1.00  0.00     0.057 A 
HETATM    7  C7  UNK     1      34.597  -7.605  33.549  1.00  0.00     0.083 A 
HETATM    8  C10 UNK     1      36.080  -6.609  35.182  1.00  0.00     0.031 A 
HETATM    9  C15 UNK     1      35.720  -8.298  33.042  1.00  0.00     0.034 A 
HETATM   10  C18 UNK     1      37.171  -7.307  34.670  1.00  0.00     0.002 A 
HETATM   11  C20 UNK     1      36.989  -8.157  33.593  1.00  0.00     0.002 A 
HETATM   12  H4  UNK     1      34.099  -5.298  35.935  1.00  0.00     0.160 HD
ENDROOT
BRANCH   5  13
HETATM   13  C6  UNK     1      31.074  -8.135  32.453  1.00  0.00     0.065 A 
HETATM   14  C11 UNK     1      30.077  -7.241  32.422  1.00  0.00     0.034 A 
HETATM   15  C17 UNK     1      28.904  -7.444  31.587  1.00  0.00    -0.001 A 
HETATM   16  C19 UNK     1      28.827  -8.592  30.809  1.00  0.00     0.089 A 
HETATM   17  C22 UNK     1      27.852  -6.526  31.539  1.00  0.00     0.014 A 
HETATM   18  O1  UNK     1      29.869  -9.538  30.834  1.00  0.00    -0.274 OA
HETATM   19  C23 UNK     1      27.732  -8.851  29.987  1.00  0.00     0.038 A 
HETATM   20  C16 UNK     1      31.004  -9.371  31.624  1.00  0.00     0.300 A 
HETATM   21  O2  UNK     1      31.903 -10.206  31.634  1.00  0.00    -0.259 OA
HETATM   22  C25 UNK     1      26.688  -7.930  29.944  1.00  0.00     0.003 A 
HETATM   23  C24 UNK     1      26.748  -6.770  30.719  1.00  0.00     0.001 A 
ENDBRANCH   5  13
BRANCH   3  24
HETATM   24  C3  UNK     1      31.616  -5.514  36.245  1.00  0.00    -0.035 A 
HETATM   25  C8  UNK     1      31.013  -6.370  37.164  1.00  0.00     0.010 A 
HETATM   26  C12 UNK     1      30.339  -5.843  38.265  1.00  0.00     0.007 A 
HETATM   27  C14 UNK     1      30.268  -4.462  38.443  1.00  0.00    -0.062 A 
HETATM   28  C13 UNK     1      30.873  -3.607  37.522  1.00  0.00     0.007 A 
HETATM   29  C21 UNK     1      29.546  -3.898  39.620  1.00  0.00     0.048 C 
HETATM   30  C9  UNK     1      31.548  -4.135  36.421  1.00  0.00     0.010 A 
ENDBRANCH   3  24
TORSDOF 2
ENDMDL
MODEL 6
REMARK VINA RESULT:      -9.2     21.149     24.020
REMARK  2 active torsions:
REMARK  status: ('A' for Active; 'I' for Inactive)
REMARK    1  A    between atoms: C1_5  and  C3_7 
REMARK    2  A    between atoms: C4_8  and  C6_10 
ROOT
HETATM    1  N1  UNK     1      31.307  -7.536  36.612  1.00  0.00    -0.379 N 
HETATM    2  N2  UNK     1      28.618  -7.606  35.104  1.00  0.00    -0.250 NA
HETATM    3  C1  UNK     1      31.626  -7.824  35.223  1.00  0.00     0.120 C 
HETATM    4  C2  UNK     1      30.849  -6.906  34.281  1.00  0.00     0.090 C 
HETATM    5  C4  UNK     1      29.462  -7.474  34.132  1.00  0.00     0.053 C 
HETATM    6  C5  UNK     1      30.068  -7.203  37.133  1.00  0.00     0.057 A 
HETATM    7  C7  UNK     1      28.846  -7.183  36.428  1.00  0.00     0.083 A 
HETATM    8  C10 UNK     1      30.056  -6.788  38.487  1.00  0.00     0.031 A 
HETATM    9  C15 UNK     1      27.677  -6.772  37.106  1.00  0.00     0.034 A 
HETATM   10  C18 UNK     1      28.890  -6.380  39.134  1.00  0.00     0.002 A 
HETATM   11  C20 UNK     1      27.694  -6.372  38.438  1.00  0.00     0.002 A 
HETATM   12  H4  UNK     1      32.054  -7.669  37.288  1.00  0.00     0.160 HD
ENDROOT
BRANCH   5  13
HETATM   13  C6  UNK     1      29.062  -7.927  32.782  1.00  0.00     0.065 A 
HETATM   14  C11 UNK     1      29.726  -8.970  32.265  1.00  0.00     0.034 A 
HETATM   15  C17 UNK     1      29.408  -9.490  30.945  1.00  0.00    -0.001 A 
HETATM   16  C19 UNK     1      28.393  -8.886  30.214  1.00  0.00     0.089 A 
HETATM   17  C22 UNK     1      30.086 -10.576  30.386  1.00  0.00     0.014 A 
HETATM   18  O1  UNK     1      27.690  -7.790  30.747  1.00  0.00    -0.274 OA
HETATM   19  C23 UNK     1      28.037  -9.332  28.943  1.00  0.00     0.038 A 
HETATM   20  C16 UNK     1      27.972  -7.268  32.008  1.00  0.00     0.300 A 
HETATM   21  O2  UNK     1      27.350  -6.312  32.458  1.00  0.00    -0.259 OA
HETATM   22  C25 UNK     1      28.717 -10.416  28.393  1.00  0.00     0.003 A 
HETATM   23  C24 UNK     1      29.740 -11.037  29.113  1.00  0.00     0.001 A 
ENDBRANCH   5  13
BRANCH   3  24
HETATM   24  C3  UNK     1      33.124  -7.675  35.015  1.00  0.00    -0.035 A 
HETATM   25  C8  UNK     1      33.845  -6.770  35.791  1.00  0.00     0.010 A 
HETATM   26  C12 UNK     1      35.219  -6.634  35.600  1.00  0.00     0.007 A 
HETATM   27  C14 UNK     1      35.869  -7.402  34.634  1.00  0.00    -0.062 A 
HETATM   28  C13 UNK     1      35.144  -8.307  33.859  1.00  0.00     0.007 A 
HETATM   29  C21 UNK     1      37.339  -7.255  34.429  1.00  0.00     0.048 C 
HETATM   30  C9  UNK     1      33.769  -8.444  34.050  1.00  0.00     0.010 A 
ENDBRANCH   3  24
TORSDOF 2
ENDMDL
MODEL 7
REMARK VINA RESULT:      -9.2     22.260     24.648
REMARK  2 active torsions:
REMARK  status: ('A' for Active; 'I' for Inactive)
REMARK    1  A    between atoms: C1_5  and  C3_7 
REMARK    2  A    between atoms: C4_8  and  C6_10 
ROOT
HETATM    1  N1  UNK     1      33.303  -8.766  32.806  1.00  0.00    -0.379 N 
HETATM    2  N2  UNK     1      33.308  -7.518  35.626  1.00  0.00    -0.250 NA
HETATM    3  C1  UNK     1      31.913  -8.705  33.226  1.00  0.00     0.120 C 
HETATM    4  C2  UNK     1      31.588  -7.348  33.849  1.00  0.00     0.090 C 
HETATM    5  C4  UNK     1      32.070  -7.373  35.275  1.00  0.00     0.053 C 
HETATM    6  C5  UNK     1      34.399  -8.231  33.462  1.00  0.00     0.057 A 
HETATM    7  C7  UNK     1      34.390  -7.612  34.729  1.00  0.00     0.083 A 
HETATM    8  C10 UNK     1      35.624  -8.264  32.752  1.00  0.00     0.031 A 
HETATM    9  C15 UNK     1      35.597  -7.076  35.233  1.00  0.00     0.034 A 
HETATM   10  C18 UNK     1      36.802  -7.723  33.266  1.00  0.00     0.002 A 
HETATM   11  C20 UNK     1      36.787  -7.126  34.514  1.00  0.00     0.002 A 
HETATM   12  H4  UNK     1      33.506  -9.327  31.983  1.00  0.00     0.160 HD
ENDROOT
BRANCH   5  13
HETATM   13  C6  UNK     1      31.046  -7.244  36.334  1.00  0.00     0.065 A 
HETATM   14  C11 UNK     1      30.519  -8.378  36.818  1.00  0.00     0.034 A 
HETATM   15  C17 UNK     1      29.506  -8.357  37.859  1.00  0.00    -0.001 A 
HETATM   16  C19 UNK     1      29.082  -7.131  38.358  1.00  0.00     0.089 A 
HETATM   17  C22 UNK     1      28.942  -9.526  38.377  1.00  0.00     0.014 A 
HETATM   18  O1  UNK     1      29.628  -5.935  37.858  1.00  0.00    -0.274 OA
HETATM   19  C23 UNK     1      28.114  -7.038  39.355  1.00  0.00     0.038 A 
HETATM   20  C16 UNK     1      30.600  -5.923  36.859  1.00  0.00     0.300 A 
HETATM   21  O2  UNK     1      31.066  -4.871  36.434  1.00  0.00    -0.259 OA
HETATM   22  C25 UNK     1      27.558  -8.208  39.868  1.00  0.00     0.003 A 
HETATM   23  C24 UNK     1      27.971  -9.450  39.379  1.00  0.00     0.001 A 
ENDBRANCH   5  13
BRANCH   3  24
HETATM   24  C3  UNK     1      31.018  -8.984  32.031  1.00  0.00    -0.035 A 
HETATM   25  C8  UNK     1      29.640  -8.820  32.144  1.00  0.00     0.010 A 
HETATM   26  C12 UNK     1      28.819  -9.075  31.046  1.00  0.00     0.007 A 
HETATM   27  C14 UNK     1      29.378  -9.494  29.840  1.00  0.00    -0.062 A 
HETATM   28  C13 UNK     1      30.759  -9.658  29.730  1.00  0.00     0.007 A 
HETATM   29  C21 UNK     1      28.499  -9.769  28.666  1.00  0.00     0.048 C 
HETATM   30  C9  UNK     1      31.580  -9.402  30.827  1.00  0.00     0.010 A 
ENDBRANCH   3  24
TORSDOF 2
ENDMDL
MODEL 8
REMARK VINA RESULT:      -9.2     21.129     24.553
REMARK  2 active torsions:
REMARK  status: ('A' for Active; 'I' for Inactive)
REMARK    1  A    between atoms: C1_5  and  C3_7 
REMARK    2  A    between atoms: C4_8  and  C6_10 
ROOT
HETATM    1  N1  UNK     1      30.051  -6.104  36.433  1.00  0.00    -0.379 N 
HETATM    2  N2  UNK     1      31.425  -6.401  33.688  1.00  0.00    -0.250 NA
HETATM    3  C1  UNK     1      29.497  -7.303  35.828  1.00  0.00     0.120 C 
HETATM    4  C2  UNK     1      30.598  -8.169  35.217  1.00  0.00     0.090 C 
HETATM    5  C4  UNK     1      30.940  -7.587  33.871  1.00  0.00     0.053 C 
HETATM    6  C5  UNK     1      31.097  -5.333  35.954  1.00  0.00     0.057 A 
HETATM    7  C7  UNK     1      31.761  -5.504  34.721  1.00  0.00     0.083 A 
HETATM    8  C10 UNK     1      31.571  -4.320  36.823  1.00  0.00     0.031 A 
HETATM    9  C15 UNK     1      32.844  -4.653  34.407  1.00  0.00     0.034 A 
HETATM   10  C18 UNK     1      32.646  -3.496  36.496  1.00  0.00     0.002 A 
HETATM   11  C20 UNK     1      33.286  -3.664  35.281  1.00  0.00     0.002 A 
HETATM   12  H4  UNK     1      29.573  -5.745  37.255  1.00  0.00     0.160 HD
ENDROOT
BRANCH   5  13
HETATM   13  C6  UNK     1      30.678  -8.434  32.686  1.00  0.00     0.065 A 
HETATM   14  C11 UNK     1      29.570  -8.172  31.980  1.00  0.00     0.034 A 
HETATM   15  C17 UNK     1      29.224  -8.947  30.800  1.00  0.00    -0.001 A 
HETATM   16  C19 UNK     1      30.067  -9.979  30.405  1.00  0.00     0.089 A 
HETATM   17  C22 UNK     1      28.074  -8.693  30.049  1.00  0.00     0.014 A 
HETATM   18  O1  UNK     1      31.233 -10.262  31.140  1.00  0.00    -0.274 OA
HETATM   19  C23 UNK     1      29.796 -10.762  29.286  1.00  0.00     0.038 A 
HETATM   20  C16 UNK     1      31.591  -9.538  32.275  1.00  0.00     0.300 A 
HETATM   21  O2  UNK     1      32.611  -9.798  32.904  1.00  0.00    -0.259 OA
HETATM   22  C25 UNK     1      28.648 -10.501  28.541  1.00  0.00     0.003 A 
HETATM   23  C24 UNK     1      27.788  -9.468  28.922  1.00  0.00     0.001 A 
ENDBRANCH   5  13
BRANCH   3  24
HETATM   24  C3  UNK     1      28.718  -8.076  36.879  1.00  0.00    -0.035 A 
HETATM   25  C8  UNK     1      27.868  -9.110  36.491  1.00  0.00     0.010 A 
HETATM   26  C12 UNK     1      27.154  -9.820  37.455  1.00  0.00     0.007 A 
HETATM   27  C14 UNK     1      27.289  -9.494  38.804  1.00  0.00    -0.062 A 
HETATM   28  C13 UNK     1      28.141  -8.458  39.189  1.00  0.00     0.007 A 
HETATM   29  C21 UNK     1      26.524 -10.252  39.835  1.00  0.00     0.048 C 
HETATM   30  C9  UNK     1      28.856  -7.748  38.225  1.00  0.00     0.010 A 
ENDBRANCH   3  24
TORSDOF 2
ENDMDL
MODEL 9
REMARK VINA RESULT:      -9.2     21.272     24.468
REMARK  2 active torsions:
REMARK  status: ('A' for Active; 'I' for Inactive)
REMARK    1  A    between atoms: C1_5  and  C3_7 
REMARK    2  A    between atoms: C4_8  and  C6_10 
ROOT
HETATM    1  N1  UNK     1      33.805  -6.046  35.040  1.00  0.00    -0.379 N 
HETATM    2  N2  UNK     1      33.512  -7.745  32.483  1.00  0.00    -0.250 NA
HETATM    3  C1  UNK     1      32.384  -6.087  34.739  1.00  0.00     0.120 C 
HETATM    4  C2  UNK     1      31.940  -7.506  34.384  1.00  0.00     0.090 C 
HETATM    5  C4  UNK     1      32.302  -7.750  32.943  1.00  0.00     0.053 C 
HETATM    6  C5  UNK     1      34.814  -6.752  34.406  1.00  0.00     0.057 A 
HETATM    7  C7  UNK     1      34.668  -7.572  33.267  1.00  0.00     0.083 A 
HETATM    8  C10 UNK     1      36.095  -6.679  35.007  1.00  0.00     0.031 A 
HETATM    9  C15 UNK     1      35.800  -8.260  32.776  1.00  0.00     0.034 A 
HETATM   10  C18 UNK     1      37.196  -7.372  34.508  1.00  0.00     0.002 A 
HETATM   11  C20 UNK     1      37.047  -8.167  33.385  1.00  0.00     0.002 A 
HETATM   12  H4  UNK     1      34.105  -5.370  35.736  1.00  0.00     0.160 HD
ENDROOT
BRANCH   5  13
HETATM   13  C6  UNK     1      31.187  -7.988  32.000  1.00  0.00     0.065 A 
HETATM   14  C11 UNK     1      31.221  -9.122  31.286  1.00  0.00     0.034 A 
HETATM   15  C17 UNK     1      30.173  -9.447  30.334  1.00  0.00    -0.001 A 
HETATM   16  C19 UNK     1      29.119  -8.558  30.168  1.00  0.00     0.089 A 
HETATM   17  C22 UNK     1      30.188 -10.622  29.578  1.00  0.00     0.014 A 
HETATM   18  O1  UNK     1      29.073  -7.365  30.913  1.00  0.00    -0.274 OA
HETATM   19  C23 UNK     1      28.081  -8.807  29.272  1.00  0.00     0.038 A 
HETATM   20  C16 UNK     1      30.063  -7.025  31.833  1.00  0.00     0.300 A 
HETATM   21  O2  UNK     1      30.008  -5.981  32.473  1.00  0.00    -0.259 OA
HETATM   22  C25 UNK     1      28.103  -9.981  28.524  1.00  0.00     0.003 A 
HETATM   23  C24 UNK     1      29.154 -10.887  28.676  1.00  0.00     0.001 A 
ENDBRANCH   5  13
BRANCH   3  24
HETATM   24  C3  UNK     1      31.607  -5.557  35.932  1.00  0.00    -0.035 A 
HETATM   25  C8  UNK     1      31.776  -4.235  36.336  1.00  0.00     0.010 A 
HETATM   26  C12 UNK     1      31.062  -3.747  37.431  1.00  0.00     0.007 A 
HETATM   27  C14 UNK     1      30.184  -4.584  38.119  1.00  0.00    -0.062 A 
HETATM   28  C13 UNK     1      30.017  -5.907  37.711  1.00  0.00     0.007 A 
HETATM   29  C21 UNK     1      29.421  -4.063  39.291  1.00  0.00     0.048 C 
HETATM   30  C9  UNK     1      30.731  -6.395  36.617  1.00  0.00     0.010 A 
ENDBRANCH   3  24
TORSDOF 2
ENDMDL
MODEL 10
REMARK VINA RESULT:      -9.1     21.866     24.168
REMARK  2 active torsions:
REMARK  status: ('A' for Active; 'I' for Inactive)
REMARK    1  A    between atoms: C1_5  and  C3_7 
REMARK    2  A    between atoms: C4_8  and  C6_10 
ROOT
HETATM    1  N1  UNK     1      33.236  -9.311  32.377  1.00  0.00    -0.379 N 
HETATM    2  N2  UNK     1      34.138  -7.426  34.645  1.00  0.00    -0.250 NA
HETATM    3  C1  UNK     1      32.047  -8.597  32.810  1.00  0.00     0.120 C 
HETATM    4  C2  UNK     1      32.333  -7.105  32.976  1.00  0.00     0.090 C 
HETATM    5  C4  UNK     1      32.995  -6.915  34.315  1.00  0.00     0.053 C 
HETATM    6  C5  UNK     1      34.541  -9.085  32.784  1.00  0.00     0.057 A 
HETATM    7  C7  UNK     1      34.956  -8.182  33.784  1.00  0.00     0.083 A 
HETATM    8  C10 UNK     1      35.543  -9.792  32.075  1.00  0.00     0.031 A 
HETATM    9  C15 UNK     1      36.339  -8.042  34.042  1.00  0.00     0.034 A 
HETATM   10  C18 UNK     1      36.902  -9.633  32.341  1.00  0.00     0.002 A 
HETATM   11  C20 UNK     1      37.301  -8.752  33.331  1.00  0.00     0.002 A 
HETATM   12  H4  UNK     1      33.091 -10.114  31.771  1.00  0.00     0.160 HD
ENDROOT
BRANCH   5  13
HETATM   13  C6  UNK     1      32.268  -6.104  35.316  1.00  0.00     0.065 A 
HETATM   14  C11 UNK     1      31.411  -6.748  36.119  1.00  0.00     0.034 A 
HETATM   15  C17 UNK     1      30.648  -6.041  37.135  1.00  0.00    -0.001 A 
HETATM   16  C19 UNK     1      30.820  -4.668  37.266  1.00  0.00     0.089 A 
HETATM   17  C22 UNK     1      29.749  -6.692  37.983  1.00  0.00     0.014 A 
HETATM   18  O1  UNK     1      31.717  -3.982  36.428  1.00  0.00    -0.274 OA
HETATM   19  C23 UNK     1      30.121  -3.928  38.217  1.00  0.00     0.038 A 
HETATM   20  C16 UNK     1      32.461  -4.632  35.445  1.00  0.00     0.300 A 
HETATM   21  O2  UNK     1      33.238  -4.018  34.722  1.00  0.00    -0.259 OA
HETATM   22  C25 UNK     1      29.227  -4.585  39.060  1.00  0.00     0.003 A 
HETATM   23  C24 UNK     1      29.041  -5.964  38.943  1.00  0.00     0.001 A 
ENDBRANCH   5  13
BRANCH   3  24
HETATM   24  C3  UNK     1      30.933  -8.829  31.803  1.00  0.00    -0.035 A 
HETATM   25  C8  UNK     1      29.603  -8.717  32.202  1.00  0.00     0.010 A 
HETATM   26  C12 UNK     1      28.581  -8.929  31.277  1.00  0.00     0.007 A 
HETATM   27  C14 UNK     1      28.891  -9.253  29.957  1.00  0.00    -0.062 A 
HETATM   28  C13 UNK     1      30.224  -9.364  29.561  1.00  0.00     0.007 A 
HETATM   29  C21 UNK     1      27.798  -9.481  28.968  1.00  0.00     0.048 C 
HETATM   30  C9  UNK     1      31.246  -9.152  30.485  1.00  0.00     0.010 A 
ENDBRANCH   3  24
TORSDOF 2
ENDMDL
