MODEL 1
REMARK VINA RESULT:      -8.7      0.000      0.000
REMARK  6 active torsions:
REMARK  status: ('A' for Active; 'I' for Inactive)
REMARK    1  A    between atoms: C3_9  and  O1_1 
REMARK    2  A    between atoms: C5_11  and  O1_1 
REMARK    3  A    between atoms: C1_7  and  N1_6 
REMARK    4  A    between atoms: C2_8  and  N1_6 
REMARK       I    between atoms: C4_10  and  N1_6 
REMARK    5  A    between atoms: C4_10  and  C5_11 
REMARK    6  A    between atoms: C12_18  and  C7_13 
ROOT
HETATM    1  O2  UNK     1      19.162   0.068  32.643  1.00  0.00    -0.304 OA
HETATM    2  O5  UNK     1      18.359   2.885  29.811  1.00  0.00    -0.284 OA
HETATM    3  C3  UNK     1      18.250   2.237  32.085  1.00  0.00     0.157 A 
HETATM    4  C6  UNK     1      19.246   0.760  30.318  1.00  0.00     0.051 A 
HETATM    5  C7  UNK     1      18.539   1.262  32.968  1.00  0.00     0.147 A 
HETATM    6  C8  UNK     1      19.496  -0.161  31.334  1.00  0.00     0.090 A 
HETATM    7  C9  UNK     1      18.598   2.036  30.659  1.00  0.00     0.221 A 
HETATM    8  C13 UNK     1      19.608   0.471  29.000  1.00  0.00     0.018 A 
HETATM    9  C14 UNK     1      20.112  -1.378  31.037  1.00  0.00     0.038 A 
HETATM   10  C15 UNK     1      20.224  -0.746  28.705  1.00  0.00     0.001 A 
HETATM   11  C16 UNK     1      20.475  -1.669  29.722  1.00  0.00     0.003 A 
ENDROOT
BRANCH   3  12
HETATM   12  O1  UNK     1      17.658   3.427  32.447  1.00  0.00    -0.335 OA
BRANCH  12  13
HETATM   13  C5  UNK     1      18.635   4.424  32.680  1.00  0.00     0.278 C 
BRANCH  13  14
HETATM   14  C4  UNK     1      18.229   5.707  31.987  1.00  0.00     0.243 C 
HETATM   15  O4  UNK     1      18.531   5.861  30.799  1.00  0.00    -0.271 OA
HETATM   16  N1  UNK     1      17.520   6.647  32.735  1.00  0.00    -0.351 N 
BRANCH  16  17
HETATM   17  C1  UNK     1      17.100   7.893  32.108  1.00  0.00     0.121 C 
HETATM   18  C10 UNK     1      15.611   7.901  31.830  1.00  0.00     0.026 C 
ENDBRANCH  16  17
BRANCH  16  19
HETATM   19  C2  UNK     1      17.131   6.495  34.136  1.00  0.00     0.121 C 
HETATM   20  C11 UNK     1      17.591   7.673  34.969  1.00  0.00     0.026 C 
ENDBRANCH  16  19
ENDBRANCH  13  14
ENDBRANCH  12  13
ENDBRANCH   3  12
BRANCH   5  21
HETATM   21  C12 UNK     1      18.235   1.380  34.405  1.00  0.00     0.111 A 
HETATM   22  O3  UNK     1      19.088   1.976  35.288  1.00  0.00    -0.320 OA
HETATM   23  C19 UNK     1      18.500   1.913  36.511  1.00  0.00     0.142 A 
HETATM   24  C18 UNK     1      17.279   1.284  36.429  1.00  0.00     0.027 A 
HETATM   25  C17 UNK     1      17.107   0.938  35.068  1.00  0.00     0.042 A 
ENDBRANCH   5  21
TORSDOF 6
ENDMDL
MODEL 2
REMARK VINA RESULT:      -8.1      2.271      4.740
REMARK  6 active torsions:
REMARK  status: ('A' for Active; 'I' for Inactive)
REMARK    1  A    between atoms: C3_9  and  O1_1 
REMARK    2  A    between atoms: C5_11  and  O1_1 
REMARK    3  A    between atoms: C1_7  and  N1_6 
REMARK    4  A    between atoms: C2_8  and  N1_6 
REMARK       I    between atoms: C4_10  and  N1_6 
REMARK    5  A    between atoms: C4_10  and  C5_11 
REMARK    6  A    between atoms: C12_18  and  C7_13 
ROOT
HETATM    1  O2  UNK     1      19.592  -1.221  33.389  1.00  0.00    -0.304 OA
HETATM    2  O5  UNK     1      17.210   1.109  35.735  1.00  0.00    -0.284 OA
HETATM    3  C3  UNK     1      18.183   0.732  33.610  1.00  0.00     0.157 A 
HETATM    4  C6  UNK     1      18.587  -0.797  35.558  1.00  0.00     0.051 A 
HETATM    5  C7  UNK     1      18.985  -0.078  32.894  1.00  0.00     0.147 A 
HETATM    6  C8  UNK     1      19.388  -1.553  34.703  1.00  0.00     0.090 A 
HETATM    7  C9  UNK     1      17.929   0.410  35.034  1.00  0.00     0.221 A 
HETATM    8  C13 UNK     1      18.416  -1.184  36.890  1.00  0.00     0.018 A 
HETATM    9  C14 UNK     1      20.021  -2.703  35.175  1.00  0.00     0.038 A 
HETATM   10  C15 UNK     1      19.051  -2.334  37.360  1.00  0.00     0.001 A 
HETATM   11  C16 UNK     1      19.852  -3.093  36.505  1.00  0.00     0.003 A 
ENDROOT
BRANCH   3  12
HETATM   12  O1  UNK     1      17.569   1.845  33.077  1.00  0.00    -0.335 OA
BRANCH  12  13
HETATM   13  C5  UNK     1      18.270   3.023  33.428  1.00  0.00     0.278 C 
BRANCH  13  14
HETATM   14  C4  UNK     1      18.184   4.024  32.296  1.00  0.00     0.243 C 
HETATM   15  O4  UNK     1      17.562   3.713  31.275  1.00  0.00    -0.271 OA
HETATM   16  N1  UNK     1      18.811   5.257  32.478  1.00  0.00    -0.351 N 
BRANCH  16  17
HETATM   17  C1  UNK     1      18.748   6.257  31.420  1.00  0.00     0.121 C 
HETATM   18  C10 UNK     1      19.775   5.987  30.340  1.00  0.00     0.026 C 
ENDBRANCH  16  17
BRANCH  16  19
HETATM   19  C2  UNK     1      19.542   5.666  33.676  1.00  0.00     0.121 C 
HETATM   20  C11 UNK     1      19.566   7.174  33.821  1.00  0.00     0.026 C 
ENDBRANCH  16  19
ENDBRANCH  13  14
ENDBRANCH  12  13
ENDBRANCH   3  12
BRANCH   5  21
HETATM   21  C12 UNK     1      19.287   0.163  31.472  1.00  0.00     0.111 A 
HETATM   22  O3  UNK     1      18.430   0.827  30.643  1.00  0.00    -0.320 OA
HETATM   23  C19 UNK     1      19.016   0.871  29.418  1.00  0.00     0.142 A 
HETATM   24  C18 UNK     1      20.241   0.244  29.446  1.00  0.00     0.027 A 
HETATM   25  C17 UNK     1      20.417  -0.215  30.774  1.00  0.00     0.042 A 
ENDBRANCH   5  21
TORSDOF 6
ENDMDL
MODEL 3
REMARK VINA RESULT:      -7.4     14.813     19.179
REMARK  6 active torsions:
REMARK  status: ('A' for Active; 'I' for Inactive)
REMARK    1  A    between atoms: C3_9  and  O1_1 
REMARK    2  A    between atoms: C5_11  and  O1_1 
REMARK    3  A    between atoms: C1_7  and  N1_6 
REMARK    4  A    between atoms: C2_8  and  N1_6 
REMARK       I    between atoms: C4_10  and  N1_6 
REMARK    5  A    between atoms: C4_10  and  C5_11 
REMARK    6  A    between atoms: C12_18  and  C7_13 
ROOT
HETATM    1  O2  UNK     1      19.530   0.796  14.946  1.00  0.00    -0.304 OA
HETATM    2  O5  UNK     1      18.582  -1.574  18.123  1.00  0.00    -0.284 OA
HETATM    3  C3  UNK     1      19.068  -1.415  15.811  1.00  0.00     0.157 A 
HETATM    4  C6  UNK     1      19.015   0.597  17.310  1.00  0.00     0.051 A 
HETATM    5  C7  UNK     1      19.374  -0.574  14.806  1.00  0.00     0.147 A 
HETATM    6  C8  UNK     1      19.342   1.351  16.185  1.00  0.00     0.090 A 
HETATM    7  C9  UNK     1      18.863  -0.859  17.170  1.00  0.00     0.221 A 
HETATM    8  C13 UNK     1      18.836   1.219  18.549  1.00  0.00     0.018 A 
HETATM    9  C14 UNK     1      19.495   2.734  16.292  1.00  0.00     0.038 A 
HETATM   10  C15 UNK     1      18.989   2.602  18.652  1.00  0.00     0.001 A 
HETATM   11  C16 UNK     1      19.318   3.359  17.527  1.00  0.00     0.003 A 
ENDROOT
BRANCH   3  12
HETATM   12  O1  UNK     1      18.953  -2.778  15.643  1.00  0.00    -0.335 OA
BRANCH  12  13
HETATM   13  C5  UNK     1      20.054  -3.451  16.222  1.00  0.00     0.278 C 
BRANCH  13  14
HETATM   14  C4  UNK     1      20.677  -4.380  15.202  1.00  0.00     0.243 C 
HETATM   15  O4  UNK     1      21.688  -4.007  14.598  1.00  0.00    -0.271 OA
HETATM   16  N1  UNK     1      20.071  -5.622  15.008  1.00  0.00    -0.351 N 
BRANCH  16  17
HETATM   17  C1  UNK     1      20.640  -6.554  14.043  1.00  0.00     0.121 C 
HETATM   18  C10 UNK     1      20.228  -6.208  12.627  1.00  0.00     0.026 C 
ENDBRANCH  16  17
BRANCH  16  19
HETATM   19  C2  UNK     1      18.885  -6.105  15.713  1.00  0.00     0.121 C 
HETATM   20  C11 UNK     1      17.626  -5.868  14.904  1.00  0.00     0.026 C 
ENDBRANCH  16  19
ENDBRANCH  13  14
ENDBRANCH  12  13
ENDBRANCH   3  12
BRANCH   5  21
HETATM   21  C12 UNK     1      19.602  -1.040  13.426  1.00  0.00     0.111 A 
HETATM   22  O3  UNK     1      18.581  -1.244  12.543  1.00  0.00    -0.320 OA
HETATM   23  C19 UNK     1      19.141  -1.665  11.380  1.00  0.00     0.142 A 
HETATM   24  C18 UNK     1      20.510  -1.735  11.499  1.00  0.00     0.027 A 
HETATM   25  C17 UNK     1      20.809  -1.332  12.823  1.00  0.00     0.042 A 
ENDBRANCH   5  21
TORSDOF 6
ENDMDL
MODEL 4
REMARK VINA RESULT:      -7.4      5.718      9.979
REMARK  6 active torsions:
REMARK  status: ('A' for Active; 'I' for Inactive)
REMARK    1  A    between atoms: C3_9  and  O1_1 
REMARK    2  A    between atoms: C5_11  and  O1_1 
REMARK    3  A    between atoms: C1_7  and  N1_6 
REMARK    4  A    between atoms: C2_8  and  N1_6 
REMARK       I    between atoms: C4_10  and  N1_6 
REMARK    5  A    between atoms: C4_10  and  C5_11 
REMARK    6  A    between atoms: C12_18  and  C7_13 
ROOT
HETATM    1  O2  UNK     1      18.858  -0.445  34.441  1.00  0.00    -0.304 OA
HETATM    2  O5  UNK     1      19.414  -2.422  37.960  1.00  0.00    -0.284 OA
HETATM    3  C3  UNK     1      19.770  -2.349  35.620  1.00  0.00     0.157 A 
HETATM    4  C6  UNK     1      18.502  -0.559  36.839  1.00  0.00     0.051 A 
HETATM    5  C7  UNK     1      19.545  -1.648  34.494  1.00  0.00     0.147 A 
HETATM    6  C8  UNK     1      18.348   0.069  35.604  1.00  0.00     0.090 A 
HETATM    7  C9  UNK     1      19.242  -1.828  36.904  1.00  0.00     0.221 A 
HETATM    8  C13 UNK     1      17.959   0.012  37.993  1.00  0.00     0.018 A 
HETATM    9  C14 UNK     1      17.652   1.275  35.516  1.00  0.00     0.038 A 
HETATM   10  C15 UNK     1      17.263   1.218  37.902  1.00  0.00     0.001 A 
HETATM   11  C16 UNK     1      17.110   1.849  36.667  1.00  0.00     0.003 A 
ENDROOT
BRANCH   3  12
HETATM   12  O1  UNK     1      20.485  -3.526  35.642  1.00  0.00    -0.335 OA
BRANCH  12  13
HETATM   13  C5  UNK     1      19.669  -4.603  36.062  1.00  0.00     0.278 C 
BRANCH  13  14
HETATM   14  C4  UNK     1      20.476  -5.548  36.927  1.00  0.00     0.243 C 
HETATM   15  O4  UNK     1      21.647  -5.254  37.194  1.00  0.00    -0.271 OA
HETATM   16  N1  UNK     1      19.841  -6.702  37.387  1.00  0.00    -0.351 N 
BRANCH  16  17
HETATM   17  C1  UNK     1      20.575  -7.637  38.230  1.00  0.00     0.121 C 
HETATM   18  C10 UNK     1      20.117  -7.561  39.671  1.00  0.00     0.026 C 
ENDBRANCH  16  17
BRANCH  16  19
HETATM   19  C2  UNK     1      18.456  -7.074  37.106  1.00  0.00     0.121 C 
HETATM   20  C11 UNK     1      18.376  -8.136  36.028  1.00  0.00     0.026 C 
ENDBRANCH  16  19
ENDBRANCH  13  14
ENDBRANCH  12  13
ENDBRANCH   3  12
BRANCH   5  21
HETATM   21  C12 UNK     1      20.038  -2.087  33.176  1.00  0.00     0.111 A 
HETATM   22  O3  UNK     1      20.916  -3.121  33.030  1.00  0.00    -0.320 OA
HETATM   23  C19 UNK     1      21.153  -3.255  31.699  1.00  0.00     0.142 A 
HETATM   24  C18 UNK     1      20.439  -2.321  30.984  1.00  0.00     0.027 A 
HETATM   25  C17 UNK     1      19.718  -1.564  31.939  1.00  0.00     0.042 A 
ENDBRANCH   5  21
TORSDOF 6
ENDMDL
MODEL 5
REMARK VINA RESULT:      -7.2     14.841     18.903
REMARK  6 active torsions:
REMARK  status: ('A' for Active; 'I' for Inactive)
REMARK    1  A    between atoms: C3_9  and  O1_1 
REMARK    2  A    between atoms: C5_11  and  O1_1 
REMARK    3  A    between atoms: C1_7  and  N1_6 
REMARK    4  A    between atoms: C2_8  and  N1_6 
REMARK       I    between atoms: C4_10  and  N1_6 
REMARK    5  A    between atoms: C4_10  and  C5_11 
REMARK    6  A    between atoms: C12_18  and  C7_13 
ROOT
HETATM    1  O2  UNK     1      18.623  -1.282  17.608  1.00  0.00    -0.304 OA
HETATM    2  O5  UNK     1      19.838   1.723  15.139  1.00  0.00    -0.284 OA
HETATM    3  C3  UNK     1      19.405  -0.587  15.428  1.00  0.00     0.157 A 
HETATM    4  C6  UNK     1      19.088   1.077  17.280  1.00  0.00     0.051 A 
HETATM    5  C7  UNK     1      19.000  -1.531  16.298  1.00  0.00     0.147 A 
HETATM    6  C8  UNK     1      18.680   0.006  18.072  1.00  0.00     0.090 A 
HETATM    7  C9  UNK     1      19.476   0.822  15.884  1.00  0.00     0.221 A 
HETATM    8  C13 UNK     1      19.127   2.371  17.808  1.00  0.00     0.018 A 
HETATM    9  C14 UNK     1      18.304   0.222  19.398  1.00  0.00     0.038 A 
HETATM   10  C15 UNK     1      18.751   2.584  19.135  1.00  0.00     0.001 A 
HETATM   11  C16 UNK     1      18.340   1.512  19.929  1.00  0.00     0.003 A 
ENDROOT
BRANCH   3  12
HETATM   12  O1  UNK     1      19.743  -0.864  14.122  1.00  0.00    -0.335 OA
BRANCH  12  13
HETATM   13  C5  UNK     1      18.609  -1.287  13.388  1.00  0.00     0.278 C 
BRANCH  13  14
HETATM   14  C4  UNK     1      18.959  -1.379  11.918  1.00  0.00     0.243 C 
HETATM   15  O4  UNK     1      18.694  -0.422  11.183  1.00  0.00    -0.271 OA
HETATM   16  N1  UNK     1      19.577  -2.549  11.476  1.00  0.00    -0.351 N 
BRANCH  16  17
HETATM   17  C1  UNK     1      19.941  -2.681  10.071  1.00  0.00     0.121 C 
HETATM   18  C10 UNK     1      21.402  -2.355   9.842  1.00  0.00     0.026 C 
ENDBRANCH  16  17
BRANCH  16  19
HETATM   19  C2  UNK     1      19.920  -3.695  12.315  1.00  0.00     0.121 C 
HETATM   20  C11 UNK     1      19.362  -4.984  11.748  1.00  0.00     0.026 C 
ENDBRANCH  16  19
ENDBRANCH  13  14
ENDBRANCH  12  13
ENDBRANCH   3  12
BRANCH   5  21
HETATM   21  C12 UNK     1      18.894  -2.953  15.929  1.00  0.00     0.111 A 
HETATM   22  O3  UNK     1      17.704  -3.540  15.607  1.00  0.00    -0.320 OA
HETATM   23  C19 UNK     1      17.968  -4.841  15.320  1.00  0.00     0.142 A 
HETATM   24  C18 UNK     1      19.312  -5.103  15.453  1.00  0.00     0.027 A 
HETATM   25  C17 UNK     1      19.912  -3.883  15.847  1.00  0.00     0.042 A 
ENDBRANCH   5  21
TORSDOF 6
ENDMDL
MODEL 6
REMARK VINA RESULT:      -6.9     14.444     16.354
REMARK  6 active torsions:
REMARK  status: ('A' for Active; 'I' for Inactive)
REMARK    1  A    between atoms: C3_9  and  O1_1 
REMARK    2  A    between atoms: C5_11  and  O1_1 
REMARK    3  A    between atoms: C1_7  and  N1_6 
REMARK    4  A    between atoms: C2_8  and  N1_6 
REMARK       I    between atoms: C4_10  and  N1_6 
REMARK    5  A    between atoms: C4_10  and  C5_11 
REMARK    6  A    between atoms: C12_18  and  C7_13 
ROOT
HETATM    1  O2  UNK     1      28.436  -7.970  36.166  1.00  0.00    -0.304 OA
HETATM    2  O5  UNK     1      28.880  -5.691  39.515  1.00  0.00    -0.284 OA
HETATM    3  C3  UNK     1      29.216  -5.919  37.183  1.00  0.00     0.157 A 
HETATM    4  C6  UNK     1      28.119  -7.708  38.558  1.00  0.00     0.051 A 
HETATM    5  C7  UNK     1      29.043  -6.724  36.119  1.00  0.00     0.147 A 
HETATM    6  C8  UNK     1      27.995  -8.436  37.377  1.00  0.00     0.090 A 
HETATM    7  C9  UNK     1      28.749  -6.379  38.512  1.00  0.00     0.221 A 
HETATM    8  C13 UNK     1      27.651  -8.235  39.765  1.00  0.00     0.018 A 
HETATM    9  C14 UNK     1      27.399  -9.698  37.394  1.00  0.00     0.038 A 
HETATM   10  C15 UNK     1      27.056  -9.497  39.779  1.00  0.00     0.001 A 
HETATM   11  C16 UNK     1      26.930 -10.227  38.597  1.00  0.00     0.003 A 
ENDROOT
BRANCH   3  12
HETATM   12  O1  UNK     1      29.795  -4.671  37.094  1.00  0.00    -0.335 OA
BRANCH  12  13
HETATM   13  C5  UNK     1      31.107  -4.687  37.625  1.00  0.00     0.278 C 
BRANCH  13  14
HETATM   14  C4  UNK     1      32.035  -3.917  36.710  1.00  0.00     0.243 C 
HETATM   15  O4  UNK     1      31.787  -2.730  36.475  1.00  0.00    -0.271 OA
HETATM   16  N1  UNK     1      33.136  -4.598  36.188  1.00  0.00    -0.351 N 
BRANCH  16  17
HETATM   17  C1  UNK     1      34.063  -3.896  35.310  1.00  0.00     0.121 C 
HETATM   18  C10 UNK     1      34.713  -4.840  34.320  1.00  0.00     0.026 C 
ENDBRANCH  16  17
BRANCH  16  19
HETATM   19  C2  UNK     1      33.471  -5.995  36.455  1.00  0.00     0.121 C 
HETATM   20  C11 UNK     1      34.373  -6.126  37.665  1.00  0.00     0.026 C 
ENDBRANCH  16  19
ENDBRANCH  13  14
ENDBRANCH  12  13
ENDBRANCH   3  12
BRANCH   5  21
HETATM   21  C12 UNK     1      29.470  -6.344  34.760  1.00  0.00     0.111 A 
HETATM   22  O3  UNK     1      30.781  -6.154  34.430  1.00  0.00    -0.320 OA
HETATM   23  C19 UNK     1      30.813  -5.820  33.114  1.00  0.00     0.142 A 
HETATM   24  C18 UNK     1      29.542  -5.791  32.590  1.00  0.00     0.027 A 
HETATM   25  C17 UNK     1      28.671  -6.130  33.654  1.00  0.00     0.042 A 
ENDBRANCH   5  21
TORSDOF 6
ENDMDL
MODEL 7
REMARK VINA RESULT:      -6.8      4.701      7.215
REMARK  6 active torsions:
REMARK  status: ('A' for Active; 'I' for Inactive)
REMARK    1  A    between atoms: C3_9  and  O1_1 
REMARK    2  A    between atoms: C5_11  and  O1_1 
REMARK    3  A    between atoms: C1_7  and  N1_6 
REMARK    4  A    between atoms: C2_8  and  N1_6 
REMARK       I    between atoms: C4_10  and  N1_6 
REMARK    5  A    between atoms: C4_10  and  C5_11 
REMARK    6  A    between atoms: C12_18  and  C7_13 
ROOT
HETATM    1  O2  UNK     1      20.159  -4.597  34.521  1.00  0.00    -0.304 OA
HETATM    2  O5  UNK     1      20.342  -2.888  38.216  1.00  0.00    -0.284 OA
HETATM    3  C3  UNK     1      20.292  -2.592  35.867  1.00  0.00     0.157 A 
HETATM    4  C6  UNK     1      20.225  -4.863  36.933  1.00  0.00     0.051 A 
HETATM    5  C7  UNK     1      20.235  -3.222  34.679  1.00  0.00     0.147 A 
HETATM    6  C8  UNK     1      20.162  -5.385  35.642  1.00  0.00     0.090 A 
HETATM    7  C9  UNK     1      20.291  -3.404  37.108  1.00  0.00     0.221 A 
HETATM    8  C13 UNK     1      20.225  -5.717  38.039  1.00  0.00     0.018 A 
HETATM    9  C14 UNK     1      20.096  -6.765  35.449  1.00  0.00     0.038 A 
HETATM   10  C15 UNK     1      20.160  -7.097  37.844  1.00  0.00     0.001 A 
HETATM   11  C16 UNK     1      20.095  -7.620  36.552  1.00  0.00     0.003 A 
ENDROOT
BRANCH   3  12
HETATM   12  O1  UNK     1      20.334  -1.220  35.990  1.00  0.00    -0.335 OA
BRANCH  12  13
HETATM   13  C5  UNK     1      19.042  -0.697  36.235  1.00  0.00     0.278 C 
BRANCH  13  14
HETATM   14  C4  UNK     1      18.976   0.739  35.761  1.00  0.00     0.243 C 
HETATM   15  O4  UNK     1      19.881   1.514  36.088  1.00  0.00    -0.271 OA
HETATM   16  N1  UNK     1      17.889   1.105  34.966  1.00  0.00    -0.351 N 
BRANCH  16  17
HETATM   17  C1  UNK     1      17.786   2.474  34.479  1.00  0.00     0.121 C 
HETATM   18  C10 UNK     1      18.146   2.570  33.011  1.00  0.00     0.026 C 
ENDBRANCH  16  17
BRANCH  16  19
HETATM   19  C2  UNK     1      16.809   0.215  34.547  1.00  0.00     0.121 C 
HETATM   20  C11 UNK     1      15.653   0.247  35.526  1.00  0.00     0.026 C 
ENDBRANCH  16  19
ENDBRANCH  13  14
ENDBRANCH  12  13
ENDBRANCH   3  12
BRANCH   5  21
HETATM   21  C12 UNK     1      20.225  -2.494  33.398  1.00  0.00     0.111 A 
HETATM   22  O3  UNK     1      19.189  -1.688  33.021  1.00  0.00    -0.320 OA
HETATM   23  C19 UNK     1      19.506  -1.180  31.801  1.00  0.00     0.142 A 
HETATM   24  C18 UNK     1      20.732  -1.647  31.386  1.00  0.00     0.027 A 
HETATM   25  C17 UNK     1      21.198  -2.497  32.418  1.00  0.00     0.042 A 
ENDBRANCH   5  21
TORSDOF 6
ENDMDL
MODEL 8
REMARK VINA RESULT:      -6.8     14.219     15.996
REMARK  6 active torsions:
REMARK  status: ('A' for Active; 'I' for Inactive)
REMARK    1  A    between atoms: C3_9  and  O1_1 
REMARK    2  A    between atoms: C5_11  and  O1_1 
REMARK    3  A    between atoms: C1_7  and  N1_6 
REMARK    4  A    between atoms: C2_8  and  N1_6 
REMARK       I    between atoms: C4_10  and  N1_6 
REMARK    5  A    between atoms: C4_10  and  C5_11 
REMARK    6  A    between atoms: C12_18  and  C7_13 
ROOT
HETATM    1  O2  UNK     1      29.640  -5.801  37.430  1.00  0.00    -0.304 OA
HETATM    2  O5  UNK     1      31.515  -7.776  34.398  1.00  0.00    -0.284 OA
HETATM    3  C3  UNK     1      29.834  -7.788  36.065  1.00  0.00     0.157 A 
HETATM    4  C6  UNK     1      31.361  -5.828  35.718  1.00  0.00     0.051 A 
HETATM    5  C7  UNK     1      29.263  -7.082  37.059  1.00  0.00     0.147 A 
HETATM    6  C8  UNK     1      30.678  -5.206  36.762  1.00  0.00     0.090 A 
HETATM    7  C9  UNK     1      30.956  -7.182  35.311  1.00  0.00     0.221 A 
HETATM    8  C13 UNK     1      32.413  -5.172  35.073  1.00  0.00     0.018 A 
HETATM    9  C14 UNK     1      31.042  -3.920  37.165  1.00  0.00     0.038 A 
HETATM   10  C15 UNK     1      32.775  -3.887  35.479  1.00  0.00     0.001 A 
HETATM   11  C16 UNK     1      32.091  -3.262  36.523  1.00  0.00     0.003 A 
ENDROOT
BRANCH   3  12
HETATM   12  O1  UNK     1      29.413  -9.049  35.701  1.00  0.00    -0.335 OA
BRANCH  12  13
HETATM   13  C5  UNK     1      28.262  -8.977  34.880  1.00  0.00     0.278 C 
BRANCH  13  14
HETATM   14  C4  UNK     1      28.638  -9.294  33.448  1.00  0.00     0.243 C 
HETATM   15  O4  UNK     1      29.028 -10.434  33.176  1.00  0.00    -0.271 OA
HETATM   16  N1  UNK     1      28.509  -8.271  32.508  1.00  0.00    -0.351 N 
BRANCH  16  17
HETATM   17  C1  UNK     1      28.850  -8.531  31.115  1.00  0.00     0.121 C 
HETATM   18  C10 UNK     1      27.612  -8.608  30.246  1.00  0.00     0.026 C 
ENDBRANCH  16  17
BRANCH  16  19
HETATM   19  C2  UNK     1      28.037  -6.917  32.789  1.00  0.00     0.121 C 
HETATM   20  C11 UNK     1      29.085  -5.881  32.439  1.00  0.00     0.026 C 
ENDBRANCH  16  19
ENDBRANCH  13  14
ENDBRANCH  12  13
ENDBRANCH   3  12
BRANCH   5  21
HETATM   21  C12 UNK     1      28.139  -7.604  37.856  1.00  0.00     0.111 A 
HETATM   22  O3  UNK     1      26.839  -7.287  37.585  1.00  0.00    -0.320 OA
HETATM   23  C19 UNK     1      26.074  -7.933  38.502  1.00  0.00     0.142 A 
HETATM   24  C18 UNK     1      26.862  -8.663  39.362  1.00  0.00     0.027 A 
HETATM   25  C17 UNK     1      28.198  -8.451  38.945  1.00  0.00     0.042 A 
ENDBRANCH   5  21
TORSDOF 6
ENDMDL
MODEL 9
REMARK VINA RESULT:      -6.8     23.070     25.326
REMARK  6 active torsions:
REMARK  status: ('A' for Active; 'I' for Inactive)
REMARK    1  A    between atoms: C3_9  and  O1_1 
REMARK    2  A    between atoms: C5_11  and  O1_1 
REMARK    3  A    between atoms: C1_7  and  N1_6 
REMARK    4  A    between atoms: C2_8  and  N1_6 
REMARK       I    between atoms: C4_10  and  N1_6 
REMARK    5  A    between atoms: C4_10  and  C5_11 
REMARK    6  A    between atoms: C12_18  and  C7_13 
ROOT
HETATM    1  O2  UNK     1      10.691   8.193   9.350  1.00  0.00    -0.304 OA
HETATM    2  O5  UNK     1      13.605   6.944   6.790  1.00  0.00    -0.284 OA
HETATM    3  C3  UNK     1      13.033   8.142   8.751  1.00  0.00     0.157 A 
HETATM    4  C6  UNK     1      11.312   6.984   7.338  1.00  0.00     0.051 A 
HETATM    5  C7  UNK     1      12.021   8.525   9.551  1.00  0.00     0.147 A 
HETATM    6  C8  UNK     1      10.364   7.440   8.252  1.00  0.00     0.090 A 
HETATM    7  C9  UNK     1      12.728   7.321   7.555  1.00  0.00     0.221 A 
HETATM    8  C13 UNK     1      10.920   6.220   6.236  1.00  0.00     0.018 A 
HETATM    9  C14 UNK     1       9.015   7.132   8.070  1.00  0.00     0.038 A 
HETATM   10  C15 UNK     1       9.570   5.914   6.056  1.00  0.00     0.001 A 
HETATM   11  C16 UNK     1       8.619   6.369   6.971  1.00  0.00     0.003 A 
ENDROOT
BRANCH   3  12
HETATM   12  O1  UNK     1      14.350   8.463   8.999  1.00  0.00    -0.335 OA
BRANCH  12  13
HETATM   13  C5  UNK     1      14.694   9.688   8.381  1.00  0.00     0.278 C 
BRANCH  13  14
HETATM   14  C4  UNK     1      16.072  10.119   8.836  1.00  0.00     0.243 C 
HETATM   15  O4  UNK     1      16.700   9.384   9.605  1.00  0.00    -0.271 OA
HETATM   16  N1  UNK     1      16.563  11.330   8.345  1.00  0.00    -0.351 N 
BRANCH  16  17
HETATM   17  C1  UNK     1      17.888  11.782   8.747  1.00  0.00     0.121 C 
HETATM   18  C10 UNK     1      18.915  11.524   7.664  1.00  0.00     0.026 C 
ENDBRANCH  16  17
BRANCH  16  19
HETATM   19  C2  UNK     1      15.858  12.217   7.423  1.00  0.00     0.121 C 
HETATM   20  C11 UNK     1      15.237  13.392   8.151  1.00  0.00     0.026 C 
ENDBRANCH  16  19
ENDBRANCH  13  14
ENDBRANCH  12  13
ENDBRANCH   3  12
BRANCH   5  21
HETATM   21  C12 UNK     1      12.234   9.335  10.764  1.00  0.00     0.111 A 
HETATM   22  O3  UNK     1      12.620   8.788  11.953  1.00  0.00    -0.320 OA
HETATM   23  C19 UNK     1      12.722   9.808  12.844  1.00  0.00     0.142 A 
HETATM   24  C18 UNK     1      12.408  11.006  12.246  1.00  0.00     0.027 A 
HETATM   25  C17 UNK     1      12.092  10.702  10.900  1.00  0.00     0.042 A 
ENDBRANCH   5  21
TORSDOF 6
ENDMDL
MODEL 10
REMARK VINA RESULT:      -6.7     13.945     16.502
REMARK  6 active torsions:
REMARK  status: ('A' for Active; 'I' for Inactive)
REMARK    1  A    between atoms: C3_9  and  O1_1 
REMARK    2  A    between atoms: C5_11  and  O1_1 
REMARK    3  A    between atoms: C1_7  and  N1_6 
REMARK    4  A    between atoms: C2_8  and  N1_6 
REMARK       I    between atoms: C4_10  and  N1_6 
REMARK    5  A    between atoms: C4_10  and  C5_11 
REMARK    6  A    between atoms: C12_18  and  C7_13 
ROOT
HETATM    1  O2  UNK     1      28.562  -6.364  34.746  1.00  0.00    -0.304 OA
HETATM    2  O5  UNK     1      29.973 -10.153  34.238  1.00  0.00    -0.284 OA
HETATM    3  C3  UNK     1      29.732  -8.274  35.658  1.00  0.00     0.157 A 
HETATM    4  C6  UNK     1      28.838  -8.303  33.313  1.00  0.00     0.051 A 
HETATM    5  C7  UNK     1      29.246  -7.023  35.756  1.00  0.00     0.147 A 
HETATM    6  C8  UNK     1      28.379  -7.009  33.551  1.00  0.00     0.090 A 
HETATM    7  C9  UNK     1      29.552  -9.014  34.386  1.00  0.00     0.221 A 
HETATM    8  C13 UNK     1      28.623  -8.912  32.074  1.00  0.00     0.018 A 
HETATM    9  C14 UNK     1      27.698  -6.316  32.550  1.00  0.00     0.038 A 
HETATM   10  C15 UNK     1      27.942  -8.216  31.075  1.00  0.00     0.001 A 
HETATM   11  C16 UNK     1      27.480  -6.920  31.312  1.00  0.00     0.003 A 
ENDROOT
BRANCH   3  12
HETATM   12  O1  UNK     1      30.379  -8.912  36.694  1.00  0.00    -0.335 OA
BRANCH  12  13
HETATM   13  C5  UNK     1      31.766  -9.014  36.434  1.00  0.00     0.278 C 
BRANCH  13  14
HETATM   14  C4  UNK     1      32.497  -7.880  37.120  1.00  0.00     0.243 C 
HETATM   15  O4  UNK     1      32.495  -7.833  38.354  1.00  0.00    -0.271 OA
HETATM   16  N1  UNK     1      33.147  -6.949  36.308  1.00  0.00    -0.351 N 
BRANCH  16  17
HETATM   17  C1  UNK     1      33.872  -5.844  36.923  1.00  0.00     0.121 C 
HETATM   18  C10 UNK     1      35.289  -5.750  36.398  1.00  0.00     0.026 C 
ENDBRANCH  16  17
BRANCH  16  19
HETATM   19  C2  UNK     1      33.184  -6.979  34.848  1.00  0.00     0.121 C 
HETATM   20  C11 UNK     1      32.303  -5.902  34.249  1.00  0.00     0.026 C 
ENDBRANCH  16  19
ENDBRANCH  13  14
ENDBRANCH  12  13
ENDBRANCH   3  12
BRANCH   5  21
HETATM   21  C12 UNK     1      29.373  -6.218  36.984  1.00  0.00     0.111 A 
HETATM   22  O3  UNK     1      28.723  -6.536  38.140  1.00  0.00    -0.320 OA
HETATM   23  C19 UNK     1      29.063  -5.595  39.059  1.00  0.00     0.142 A 
HETATM   24  C18 UNK     1      29.925  -4.674  38.511  1.00  0.00     0.027 A 
HETATM   25  C17 UNK     1      30.127  -5.075  37.168  1.00  0.00     0.042 A 
ENDBRANCH   5  21
TORSDOF 6
ENDMDL
