MODEL 1
REMARK VINA RESULT:      -9.2      0.000      0.000
REMARK  7 active torsions:
REMARK  status: ('A' for Active; 'I' for Inactive)
REMARK    1  A    between atoms: C14_17  and  O1_1 
REMARK    2  A    between atoms: C25_28  and  O1_1 
REMARK    3  A    between atoms: C1_4  and  C2_5 
REMARK    4  A    between atoms: C10_13  and  C7_10 
REMARK    5  A    between atoms: C11_14  and  C13_16 
REMARK    6  A    between atoms: C12_15  and  C13_16 
REMARK    7  A    between atoms: C17_20  and  C25_28 
ROOT
HETATM    1  C12 UNK     1      18.783   5.011  31.368  1.00  0.00     0.014 A 
HETATM    2  C14 UNK     1      18.396   2.337  30.675  1.00  0.00     0.079 A 
HETATM    3  C15 UNK     1      18.994   4.594  30.054  1.00  0.00     0.018 A 
HETATM    4  C16 UNK     1      18.379   4.092  32.335  1.00  0.00     0.018 A 
HETATM    5  C19 UNK     1      18.801   3.257  29.707  1.00  0.00     0.038 A 
HETATM    6  C20 UNK     1      18.185   2.754  31.988  1.00  0.00     0.038 A 
ENDROOT
BRANCH   1   7
HETATM    7  C13 UNK     1      18.988   6.433  31.736  1.00  0.00     0.182 C 
HETATM    8  O2  UNK     1      18.379   7.310  31.133  1.00  0.00    -0.288 OA
BRANCH   7   9
HETATM    9  C11 UNK     1      19.964   6.734  32.820  1.00  0.00     0.056 C 
HETATM   10  C10 UNK     1      19.597   7.489  33.879  1.00  0.00     0.015 C 
BRANCH  10  11
HETATM   11  C7  UNK     1      18.278   8.070  34.078  1.00  0.00    -0.036 A 
HETATM   12  C8  UNK     1      17.214   7.261  34.476  1.00  0.00     0.012 A 
HETATM   13  C5  UNK     1      15.948   7.817  34.667  1.00  0.00     0.008 A 
HETATM   14  C2  UNK     1      15.749   9.182  34.459  1.00  0.00    -0.055 A 
HETATM   15  C6  UNK     1      16.813   9.990  34.060  1.00  0.00     0.008 A 
HETATM   16  C9  UNK     1      18.078   9.434  33.870  1.00  0.00     0.012 A 
BRANCH  14  17
HETATM   17  C1  UNK     1      14.397   9.777  34.664  1.00  0.00     0.010 C 
HETATM   18  C3  UNK     1      13.807  10.360  33.365  1.00  0.00     0.015 C 
HETATM   19  C4  UNK     1      14.385  10.848  35.771  1.00  0.00     0.015 C 
ENDBRANCH  14  17
ENDBRANCH  10  11
ENDBRANCH   7   9
ENDBRANCH   1   7
BRANCH   2  20
HETATM   20  O1  UNK     1      18.207   1.033  30.335  1.00  0.00    -0.275 OA
BRANCH  20  21
HETATM   21  C25 UNK     1      19.386   0.298  30.189  1.00  0.00     0.298 C 
HETATM   22  O3  UNK     1      20.139   0.346  29.229  1.00  0.00    -0.259 OA
BRANCH  21  23
HETATM   23  C17 UNK     1      19.620  -0.581  31.364  1.00  0.00     0.040 A 
HETATM   24  C21 UNK     1      18.790  -0.489  32.480  1.00  0.00     0.018 A 
HETATM   25  C23 UNK     1      19.011  -1.314  33.583  1.00  0.00     0.007 A 
HETATM   26  C18 UNK     1      20.062  -2.230  33.569  1.00  0.00    -0.062 A 
HETATM   27  C24 UNK     1      20.892  -2.322  32.453  1.00  0.00     0.007 A 
HETATM   28  C26 UNK     1      20.298  -3.111  34.749  1.00  0.00     0.048 C 
HETATM   29  C22 UNK     1      20.671  -1.497  31.349  1.00  0.00     0.018 A 
ENDBRANCH  21  23
ENDBRANCH  20  21
ENDBRANCH   2  20
TORSDOF 7
ENDMDL
MODEL 2
REMARK VINA RESULT:      -9.2     15.362     17.961
REMARK  7 active torsions:
REMARK  status: ('A' for Active; 'I' for Inactive)
REMARK    1  A    between atoms: C14_17  and  O1_1 
REMARK    2  A    between atoms: C25_28  and  O1_1 
REMARK    3  A    between atoms: C1_4  and  C2_5 
REMARK    4  A    between atoms: C10_13  and  C7_10 
REMARK    5  A    between atoms: C11_14  and  C13_16 
REMARK    6  A    between atoms: C12_15  and  C13_16 
REMARK    7  A    between atoms: C17_20  and  C25_28 
ROOT
HETATM    1  C12 UNK     1      32.005  -7.398  34.731  1.00  0.00     0.014 A 
HETATM    2  C14 UNK     1      30.010  -6.054  33.320  1.00  0.00     0.079 A 
HETATM    3  C15 UNK     1      30.765  -8.002  34.533  1.00  0.00     0.018 A 
HETATM    4  C16 UNK     1      32.249  -6.122  34.224  1.00  0.00     0.018 A 
HETATM    5  C19 UNK     1      29.766  -7.331  33.827  1.00  0.00     0.038 A 
HETATM    6  C20 UNK     1      31.250  -5.450  33.517  1.00  0.00     0.038 A 
ENDROOT
BRANCH   1   7
HETATM    7  C13 UNK     1      33.067  -8.112  35.481  1.00  0.00     0.182 C 
HETATM    8  O2  UNK     1      33.385  -9.250  35.148  1.00  0.00    -0.288 OA
BRANCH   7   9
HETATM    9  C11 UNK     1      33.685  -7.414  36.642  1.00  0.00     0.056 C 
HETATM   10  C10 UNK     1      33.006  -7.288  37.803  1.00  0.00     0.015 C 
BRANCH  10  11
HETATM   11  C7  UNK     1      31.663  -7.790  38.048  1.00  0.00    -0.036 A 
HETATM   12  C8  UNK     1      31.447  -9.160  38.197  1.00  0.00     0.012 A 
HETATM   13  C5  UNK     1      30.158  -9.642  38.431  1.00  0.00     0.008 A 
HETATM   14  C2  UNK     1      29.087  -8.753  38.516  1.00  0.00    -0.055 A 
HETATM   15  C6  UNK     1      29.303  -7.383  38.367  1.00  0.00     0.008 A 
HETATM   16  C9  UNK     1      30.591  -6.901  38.133  1.00  0.00     0.012 A 
BRANCH  14  17
HETATM   17  C1  UNK     1      27.710  -9.268  38.767  1.00  0.00     0.010 C 
HETATM   18  C3  UNK     1      26.658  -8.142  38.798  1.00  0.00     0.015 C 
HETATM   19  C4  UNK     1      27.620 -10.104  40.058  1.00  0.00     0.015 C 
ENDBRANCH  14  17
ENDBRANCH  10  11
ENDBRANCH   7   9
ENDBRANCH   1   7
BRANCH   2  20
HETATM   20  O1  UNK     1      29.035  -5.400  32.630  1.00  0.00    -0.275 OA
BRANCH  20  21
HETATM   21  C25 UNK     1      29.291  -5.259  31.264  1.00  0.00     0.298 C 
HETATM   22  O3  UNK     1      29.690  -4.241  30.718  1.00  0.00    -0.259 OA
BRANCH  21  23
HETATM   23  C17 UNK     1      29.005  -6.518  30.530  1.00  0.00     0.040 A 
HETATM   24  C21 UNK     1      27.771  -7.148  30.681  1.00  0.00     0.018 A 
HETATM   25  C23 UNK     1      27.502  -8.331  29.992  1.00  0.00     0.007 A 
HETATM   26  C18 UNK     1      28.470  -8.883  29.152  1.00  0.00    -0.062 A 
HETATM   27  C24 UNK     1      29.704  -8.252  29.001  1.00  0.00     0.007 A 
HETATM   28  C26 UNK     1      28.183 -10.148  28.416  1.00  0.00     0.048 C 
HETATM   29  C22 UNK     1      29.972  -7.069  29.690  1.00  0.00     0.018 A 
ENDBRANCH  21  23
ENDBRANCH  20  21
ENDBRANCH   2  20
TORSDOF 7
ENDMDL
MODEL 3
REMARK VINA RESULT:      -9.0     15.715     17.822
REMARK  7 active torsions:
REMARK  status: ('A' for Active; 'I' for Inactive)
REMARK    1  A    between atoms: C14_17  and  O1_1 
REMARK    2  A    between atoms: C25_28  and  O1_1 
REMARK    3  A    between atoms: C1_4  and  C2_5 
REMARK    4  A    between atoms: C10_13  and  C7_10 
REMARK    5  A    between atoms: C11_14  and  C13_16 
REMARK    6  A    between atoms: C12_15  and  C13_16 
REMARK    7  A    between atoms: C17_20  and  C25_28 
ROOT
HETATM    1  C12 UNK     1      27.365  -8.948  35.984  1.00  0.00     0.014 A 
HETATM    2  C14 UNK     1      29.175  -8.183  34.004  1.00  0.00     0.079 A 
HETATM    3  C15 UNK     1      27.597  -7.596  35.737  1.00  0.00     0.018 A 
HETATM    4  C16 UNK     1      28.038  -9.919  35.242  1.00  0.00     0.018 A 
HETATM    5  C19 UNK     1      28.502  -7.212  34.747  1.00  0.00     0.038 A 
HETATM    6  C20 UNK     1      28.943  -9.536  34.251  1.00  0.00     0.038 A 
ENDROOT
BRANCH   1   7
HETATM    7  C13 UNK     1      26.402  -9.355  37.036  1.00  0.00     0.182 C 
HETATM    8  O2  UNK     1      25.249  -8.938  36.998  1.00  0.00    -0.288 OA
BRANCH   7   9
HETATM    9  C11 UNK     1      26.899 -10.241  38.125  1.00  0.00     0.056 C 
HETATM   10  C10 UNK     1      27.869  -9.814  38.963  1.00  0.00     0.015 C 
BRANCH  10  11
HETATM   11  C7  UNK     1      28.512  -8.510  38.907  1.00  0.00    -0.036 A 
HETATM   12  C8  UNK     1      27.855  -7.387  39.410  1.00  0.00     0.012 A 
HETATM   13  C5  UNK     1      28.471  -6.136  39.356  1.00  0.00     0.008 A 
HETATM   14  C2  UNK     1      29.743  -6.009  38.798  1.00  0.00    -0.055 A 
HETATM   15  C6  UNK     1      30.399  -7.133  38.295  1.00  0.00     0.008 A 
HETATM   16  C9  UNK     1      29.784  -8.383  38.350  1.00  0.00     0.012 A 
BRANCH  14  17
HETATM   17  C1  UNK     1      30.402  -4.673  38.741  1.00  0.00     0.010 C 
HETATM   18  C3  UNK     1      29.600  -3.589  39.488  1.00  0.00     0.015 C 
HETATM   19  C4  UNK     1      30.683  -4.215  37.298  1.00  0.00     0.015 C 
ENDBRANCH  14  17
ENDBRANCH  10  11
ENDBRANCH   7   9
ENDBRANCH   1   7
BRANCH   2  20
HETATM   20  O1  UNK     1      30.057  -7.808  33.038  1.00  0.00    -0.275 OA
BRANCH  20  21
HETATM   21  C25 UNK     1      31.312  -8.414  33.137  1.00  0.00     0.298 C 
HETATM   22  O3  UNK     1      31.740  -9.286  32.396  1.00  0.00    -0.259 OA
BRANCH  21  23
HETATM   23  C17 UNK     1      32.083  -7.869  34.283  1.00  0.00     0.040 A 
HETATM   24  C21 UNK     1      32.408  -6.514  34.324  1.00  0.00     0.018 A 
HETATM   25  C23 UNK     1      33.133  -6.003  35.400  1.00  0.00     0.007 A 
HETATM   26  C18 UNK     1      33.533  -6.848  36.435  1.00  0.00    -0.062 A 
HETATM   27  C24 UNK     1      33.208  -8.203  36.394  1.00  0.00     0.007 A 
HETATM   28  C26 UNK     1      34.308  -6.301  37.586  1.00  0.00     0.048 C 
HETATM   29  C22 UNK     1      32.482  -8.714  35.318  1.00  0.00     0.018 A 
ENDBRANCH  21  23
ENDBRANCH  20  21
ENDBRANCH   2  20
TORSDOF 7
ENDMDL
MODEL 4
REMARK VINA RESULT:      -9.0     16.252     18.490
REMARK  7 active torsions:
REMARK  status: ('A' for Active; 'I' for Inactive)
REMARK    1  A    between atoms: C14_17  and  O1_1 
REMARK    2  A    between atoms: C25_28  and  O1_1 
REMARK    3  A    between atoms: C1_4  and  C2_5 
REMARK    4  A    between atoms: C10_13  and  C7_10 
REMARK    5  A    between atoms: C11_14  and  C13_16 
REMARK    6  A    between atoms: C12_15  and  C13_16 
REMARK    7  A    between atoms: C17_20  and  C25_28 
ROOT
HETATM    1  C12 UNK     1      31.600  -8.569  33.276  1.00  0.00     0.014 A 
HETATM    2  C14 UNK     1      33.469  -7.246  34.868  1.00  0.00     0.079 A 
HETATM    3  C15 UNK     1      31.979  -9.112  34.504  1.00  0.00     0.018 A 
HETATM    4  C16 UNK     1      32.156  -7.366  32.844  1.00  0.00     0.018 A 
HETATM    5  C19 UNK     1      32.913  -8.450  35.301  1.00  0.00     0.038 A 
HETATM    6  C20 UNK     1      33.091  -6.703  33.641  1.00  0.00     0.038 A 
ENDROOT
BRANCH   1   7
HETATM    7  C13 UNK     1      30.606  -9.273  32.431  1.00  0.00     0.182 C 
HETATM    8  O2  UNK     1      30.761 -10.461  32.170  1.00  0.00    -0.288 OA
BRANCH   7   9
HETATM    9  C11 UNK     1      29.460  -8.479  31.904  1.00  0.00     0.056 C 
HETATM   10  C10 UNK     1      28.583  -7.901  32.754  1.00  0.00     0.015 C 
BRANCH  10  11
HETATM   11  C7  UNK     1      28.644  -7.979  34.205  1.00  0.00    -0.036 A 
HETATM   12  C8  UNK     1      28.294  -9.162  34.855  1.00  0.00     0.012 A 
HETATM   13  C5  UNK     1      28.352  -9.238  36.246  1.00  0.00     0.008 A 
HETATM   14  C2  UNK     1      28.761  -8.129  36.988  1.00  0.00    -0.055 A 
HETATM   15  C6  UNK     1      29.111  -6.946  36.338  1.00  0.00     0.008 A 
HETATM   16  C9  UNK     1      29.053  -6.870  34.946  1.00  0.00     0.012 A 
BRANCH  14  17
HETATM   17  C1  UNK     1      28.824  -8.210  38.475  1.00  0.00     0.010 C 
HETATM   18  C3  UNK     1      28.815  -9.664  38.986  1.00  0.00     0.015 C 
HETATM   19  C4  UNK     1      27.701  -7.409  39.158  1.00  0.00     0.015 C 
ENDBRANCH  14  17
ENDBRANCH  10  11
ENDBRANCH   7   9
ENDBRANCH   1   7
BRANCH   2  20
HETATM   20  O1  UNK     1      34.381  -6.600  35.646  1.00  0.00    -0.275 OA
BRANCH  20  21
HETATM   21  C25 UNK     1      34.142  -5.232  35.801  1.00  0.00     0.298 C 
HETATM   22  O3  UNK     1      34.800  -4.335  35.297  1.00  0.00    -0.259 OA
BRANCH  21  23
HETATM   23  C17 UNK     1      32.970  -4.987  36.680  1.00  0.00     0.040 A 
HETATM   24  C21 UNK     1      32.032  -4.014  36.337  1.00  0.00     0.018 A 
HETATM   25  C23 UNK     1      30.932  -3.784  37.163  1.00  0.00     0.007 A 
HETATM   26  C18 UNK     1      30.772  -4.527  38.333  1.00  0.00    -0.062 A 
HETATM   27  C24 UNK     1      31.710  -5.500  38.676  1.00  0.00     0.007 A 
HETATM   28  C26 UNK     1      29.596  -4.280  39.216  1.00  0.00     0.048 C 
HETATM   29  C22 UNK     1      32.810  -5.731  37.848  1.00  0.00     0.018 A 
ENDBRANCH  21  23
ENDBRANCH  20  21
ENDBRANCH   2  20
TORSDOF 7
ENDMDL
MODEL 5
REMARK VINA RESULT:      -9.0     15.238     17.522
REMARK  7 active torsions:
REMARK  status: ('A' for Active; 'I' for Inactive)
REMARK    1  A    between atoms: C14_17  and  O1_1 
REMARK    2  A    between atoms: C25_28  and  O1_1 
REMARK    3  A    between atoms: C1_4  and  C2_5 
REMARK    4  A    between atoms: C10_13  and  C7_10 
REMARK    5  A    between atoms: C11_14  and  C13_16 
REMARK    6  A    between atoms: C12_15  and  C13_16 
REMARK    7  A    between atoms: C17_20  and  C25_28 
ROOT
HETATM    1  C12 UNK     1      33.363  -5.715  34.598  1.00  0.00     0.014 A 
HETATM    2  C14 UNK     1      31.422  -6.813  32.923  1.00  0.00     0.079 A 
HETATM    3  C15 UNK     1      32.178  -5.021  34.356  1.00  0.00     0.018 A 
HETATM    4  C16 UNK     1      33.578  -6.957  34.002  1.00  0.00     0.018 A 
HETATM    5  C19 UNK     1      31.207  -5.569  33.519  1.00  0.00     0.038 A 
HETATM    6  C20 UNK     1      32.607  -7.506  33.165  1.00  0.00     0.038 A 
ENDROOT
BRANCH   1   7
HETATM    7  C13 UNK     1      34.394  -5.131  35.490  1.00  0.00     0.182 C 
HETATM    8  O2  UNK     1      34.676  -3.941  35.396  1.00  0.00    -0.288 OA
BRANCH   7   9
HETATM    9  C11 UNK     1      35.073  -6.043  36.453  1.00  0.00     0.056 C 
HETATM   10  C10 UNK     1      34.377  -6.608  37.464  1.00  0.00     0.015 C 
BRANCH  10  11
HETATM   11  C7  UNK     1      32.960  -6.406  37.722  1.00  0.00    -0.036 A 
HETATM   12  C8  UNK     1      32.049  -7.429  37.455  1.00  0.00     0.012 A 
HETATM   13  C5  UNK     1      30.690  -7.235  37.702  1.00  0.00     0.008 A 
HETATM   14  C2  UNK     1      30.242  -6.019  38.216  1.00  0.00    -0.055 A 
HETATM   15  C6  UNK     1      31.152  -4.996  38.483  1.00  0.00     0.008 A 
HETATM   16  C9  UNK     1      32.511  -5.190  38.237  1.00  0.00     0.012 A 
BRANCH  14  17
HETATM   17  C1  UNK     1      28.789  -5.812  38.482  1.00  0.00     0.010 C 
HETATM   18  C3  UNK     1      28.473  -4.376  38.942  1.00  0.00     0.015 C 
HETATM   19  C4  UNK     1      28.226  -6.823  39.498  1.00  0.00     0.015 C 
ENDBRANCH  14  17
ENDBRANCH  10  11
ENDBRANCH   7   9
ENDBRANCH   1   7
BRANCH   2  20
HETATM   20  O1  UNK     1      30.474  -7.348  32.106  1.00  0.00    -0.275 OA
BRANCH  20  21
HETATM   21  C25 UNK     1      29.164  -6.987  32.429  1.00  0.00     0.298 C 
HETATM   22  O3  UNK     1      28.468  -6.201  31.803  1.00  0.00    -0.259 OA
BRANCH  21  23
HETATM   23  C17 UNK     1      28.704  -7.677  33.661  1.00  0.00     0.040 A 
HETATM   24  C21 UNK     1      28.111  -6.947  34.690  1.00  0.00     0.018 A 
HETATM   25  C23 UNK     1      27.680  -7.596  35.847  1.00  0.00     0.007 A 
HETATM   26  C18 UNK     1      27.843  -8.976  35.974  1.00  0.00    -0.062 A 
HETATM   27  C24 UNK     1      28.437  -9.706  34.945  1.00  0.00     0.007 A 
HETATM   28  C26 UNK     1      27.383  -9.669  37.212  1.00  0.00     0.048 C 
HETATM   29  C22 UNK     1      28.867  -9.056  33.787  1.00  0.00     0.018 A 
ENDBRANCH  21  23
ENDBRANCH  20  21
ENDBRANCH   2  20
TORSDOF 7
ENDMDL
MODEL 6
REMARK VINA RESULT:      -9.0     14.784     17.980
REMARK  7 active torsions:
REMARK  status: ('A' for Active; 'I' for Inactive)
REMARK    1  A    between atoms: C14_17  and  O1_1 
REMARK    2  A    between atoms: C25_28  and  O1_1 
REMARK    3  A    between atoms: C1_4  and  C2_5 
REMARK    4  A    between atoms: C10_13  and  C7_10 
REMARK    5  A    between atoms: C11_14  and  C13_16 
REMARK    6  A    between atoms: C12_15  and  C13_16 
REMARK    7  A    between atoms: C17_20  and  C25_28 
ROOT
HETATM    1  C12 UNK     1      33.532  -5.903  34.519  1.00  0.00     0.014 A 
HETATM    2  C14 UNK     1      32.266  -7.649  32.750  1.00  0.00     0.079 A 
HETATM    3  C15 UNK     1      32.146  -5.862  34.372  1.00  0.00     0.018 A 
HETATM    4  C16 UNK     1      34.285  -6.817  33.783  1.00  0.00     0.018 A 
HETATM    5  C19 UNK     1      31.512  -6.735  33.488  1.00  0.00     0.038 A 
HETATM    6  C20 UNK     1      33.652  -7.690  32.898  1.00  0.00     0.038 A 
ENDROOT
BRANCH   1   7
HETATM    7  C13 UNK     1      34.204  -4.976  35.461  1.00  0.00     0.182 C 
HETATM    8  O2  UNK     1      34.042  -3.766  35.343  1.00  0.00    -0.288 OA
BRANCH   7   9
HETATM    9  C11 UNK     1      35.086  -5.568  36.505  1.00  0.00     0.056 C 
HETATM   10  C10 UNK     1      34.554  -6.283  37.522  1.00  0.00     0.015 C 
BRANCH  10  11
HETATM   11  C7  UNK     1      33.136  -6.545  37.711  1.00  0.00    -0.036 A 
HETATM   12  C8  UNK     1      32.291  -5.526  38.149  1.00  0.00     0.012 A 
HETATM   13  C5  UNK     1      30.931  -5.777  38.332  1.00  0.00     0.008 A 
HETATM   14  C2  UNK     1      30.416  -7.047  38.076  1.00  0.00    -0.055 A 
HETATM   15  C6  UNK     1      31.261  -8.067  37.638  1.00  0.00     0.008 A 
HETATM   16  C9  UNK     1      32.621  -7.816  37.455  1.00  0.00     0.012 A 
BRANCH  14  17
HETATM   17  C1  UNK     1      28.962  -7.315  38.269  1.00  0.00     0.010 C 
HETATM   18  C3  UNK     1      28.151  -7.126  36.973  1.00  0.00     0.015 C 
HETATM   19  C4  UNK     1      28.351  -6.464  39.398  1.00  0.00     0.015 C 
ENDBRANCH  14  17
ENDBRANCH  10  11
ENDBRANCH   7   9
ENDBRANCH   1   7
BRANCH   2  20
HETATM   20  O1  UNK     1      31.647  -8.501  31.888  1.00  0.00    -0.275 OA
BRANCH  20  21
HETATM   21  C25 UNK     1      31.337  -7.941  30.646  1.00  0.00     0.298 C 
HETATM   22  O3  UNK     1      32.131  -7.741  29.739  1.00  0.00    -0.259 OA
BRANCH  21  23
HETATM   23  C17 UNK     1      29.895  -7.595  30.557  1.00  0.00     0.040 A 
HETATM   24  C21 UNK     1      29.506  -6.268  30.382  1.00  0.00     0.018 A 
HETATM   25  C23 UNK     1      28.151  -5.944  30.298  1.00  0.00     0.007 A 
HETATM   26  C18 UNK     1      27.188  -6.948  30.391  1.00  0.00    -0.062 A 
HETATM   27  C24 UNK     1      27.577  -8.275  30.566  1.00  0.00     0.007 A 
HETATM   28  C26 UNK     1      25.740  -6.602  30.303  1.00  0.00     0.048 C 
HETATM   29  C22 UNK     1      28.932  -8.600  30.649  1.00  0.00     0.018 A 
ENDBRANCH  21  23
ENDBRANCH  20  21
ENDBRANCH   2  20
TORSDOF 7
ENDMDL
MODEL 7
REMARK VINA RESULT:      -8.9     15.816     18.760
REMARK  7 active torsions:
REMARK  status: ('A' for Active; 'I' for Inactive)
REMARK    1  A    between atoms: C14_17  and  O1_1 
REMARK    2  A    between atoms: C25_28  and  O1_1 
REMARK    3  A    between atoms: C1_4  and  C2_5 
REMARK    4  A    between atoms: C10_13  and  C7_10 
REMARK    5  A    between atoms: C11_14  and  C13_16 
REMARK    6  A    between atoms: C12_15  and  C13_16 
REMARK    7  A    between atoms: C17_20  and  C25_28 
ROOT
HETATM    1  C12 UNK     1      34.450  -6.994  34.653  1.00  0.00     0.014 A 
HETATM    2  C14 UNK     1      35.124  -7.580  32.010  1.00  0.00     0.079 A 
HETATM    3  C15 UNK     1      35.312  -6.153  33.950  1.00  0.00     0.018 A 
HETATM    4  C16 UNK     1      33.926  -8.129  34.034  1.00  0.00     0.018 A 
HETATM    5  C19 UNK     1      35.649  -6.444  32.629  1.00  0.00     0.038 A 
HETATM    6  C20 UNK     1      34.263  -8.421  32.712  1.00  0.00     0.038 A 
ENDROOT
BRANCH   1   7
HETATM    7  C13 UNK     1      34.091  -6.682  36.057  1.00  0.00     0.182 C 
HETATM    8  O2  UNK     1      33.961  -7.593  36.868  1.00  0.00    -0.288 OA
BRANCH   7   9
HETATM    9  C11 UNK     1      33.871  -5.253  36.414  1.00  0.00     0.056 C 
HETATM   10  C10 UNK     1      32.741  -4.619  36.028  1.00  0.00     0.015 C 
BRANCH  10  11
HETATM   11  C7  UNK     1      31.664  -5.221  35.258  1.00  0.00    -0.036 A 
HETATM   12  C8  UNK     1      31.674  -5.141  33.865  1.00  0.00     0.012 A 
HETATM   13  C5  UNK     1      30.640  -5.716  33.126  1.00  0.00     0.008 A 
HETATM   14  C2  UNK     1      29.597  -6.372  33.780  1.00  0.00    -0.055 A 
HETATM   15  C6  UNK     1      29.587  -6.452  35.172  1.00  0.00     0.008 A 
HETATM   16  C9  UNK     1      30.621  -5.877  35.912  1.00  0.00     0.012 A 
BRANCH  14  17
HETATM   17  C1  UNK     1      28.493  -6.989  32.990  1.00  0.00     0.010 C 
HETATM   18  C3  UNK     1      28.810  -8.437  32.568  1.00  0.00     0.015 C 
HETATM   19  C4  UNK     1      28.116  -6.154  31.751  1.00  0.00     0.015 C 
ENDBRANCH  14  17
ENDBRANCH  10  11
ENDBRANCH   7   9
ENDBRANCH   1   7
BRANCH   2  20
HETATM   20  O1  UNK     1      35.453  -7.864  30.720  1.00  0.00    -0.275 OA
BRANCH  20  21
HETATM   21  C25 UNK     1      34.835  -7.043  29.773  1.00  0.00     0.298 C 
HETATM   22  O3  UNK     1      35.361  -6.101  29.199  1.00  0.00    -0.259 OA
BRANCH  21  23
HETATM   23  C17 UNK     1      33.426  -7.451  29.546  1.00  0.00     0.040 A 
HETATM   24  C21 UNK     1      33.131  -8.758  29.163  1.00  0.00     0.018 A 
HETATM   25  C23 UNK     1      31.807  -9.141  28.949  1.00  0.00     0.007 A 
HETATM   26  C18 UNK     1      30.778  -8.215  29.119  1.00  0.00    -0.062 A 
HETATM   27  C24 UNK     1      31.072  -6.907  29.503  1.00  0.00     0.007 A 
HETATM   28  C26 UNK     1      29.362  -8.624  28.891  1.00  0.00     0.048 C 
HETATM   29  C22 UNK     1      32.397  -6.525  29.717  1.00  0.00     0.018 A 
ENDBRANCH  21  23
ENDBRANCH  20  21
ENDBRANCH   2  20
TORSDOF 7
ENDMDL
MODEL 8
REMARK VINA RESULT:      -8.9     16.182     18.896
REMARK  7 active torsions:
REMARK  status: ('A' for Active; 'I' for Inactive)
REMARK    1  A    between atoms: C14_17  and  O1_1 
REMARK    2  A    between atoms: C25_28  and  O1_1 
REMARK    3  A    between atoms: C1_4  and  C2_5 
REMARK    4  A    between atoms: C10_13  and  C7_10 
REMARK    5  A    between atoms: C11_14  and  C13_16 
REMARK    6  A    between atoms: C12_15  and  C13_16 
REMARK    7  A    between atoms: C17_20  and  C25_28 
ROOT
HETATM    1  C12 UNK     1      29.226  -5.997  37.901  1.00  0.00     0.014 A 
HETATM    2  C14 UNK     1      31.692  -5.195  36.876  1.00  0.00     0.079 A 
HETATM    3  C15 UNK     1      29.428  -5.959  36.522  1.00  0.00     0.018 A 
HETATM    4  C16 UNK     1      30.256  -5.634  38.768  1.00  0.00     0.018 A 
HETATM    5  C19 UNK     1      30.661  -5.558  36.008  1.00  0.00     0.038 A 
HETATM    6  C20 UNK     1      31.490  -5.234  38.255  1.00  0.00     0.038 A 
ENDROOT
BRANCH   1   7
HETATM    7  C13 UNK     1      27.915  -6.425  38.446  1.00  0.00     0.182 C 
HETATM    8  O2  UNK     1      26.896  -5.826  38.119  1.00  0.00    -0.288 OA
BRANCH   7   9
HETATM    9  C11 UNK     1      27.902  -7.563  39.408  1.00  0.00     0.056 C 
HETATM   10  C10 UNK     1      28.215  -8.811  38.993  1.00  0.00     0.015 C 
BRANCH  10  11
HETATM   11  C7  UNK     1      28.578  -9.175  37.632  1.00  0.00    -0.036 A 
HETATM   12  C8  UNK     1      29.918  -9.371  37.298  1.00  0.00     0.012 A 
HETATM   13  C5  UNK     1      30.268  -9.719  35.993  1.00  0.00     0.008 A 
HETATM   14  C2  UNK     1      29.277  -9.874  35.024  1.00  0.00    -0.055 A 
HETATM   15  C6  UNK     1      27.937  -9.678  35.358  1.00  0.00     0.008 A 
HETATM   16  C9  UNK     1      27.587  -9.330  36.663  1.00  0.00     0.012 A 
BRANCH  14  17
HETATM   17  C1  UNK     1      29.650 -10.248  33.629  1.00  0.00     0.010 C 
HETATM   18  C3  UNK     1      30.804 -11.269  33.584  1.00  0.00     0.015 C 
HETATM   19  C4  UNK     1      30.001  -9.024  32.763  1.00  0.00     0.015 C 
ENDBRANCH  14  17
ENDBRANCH  10  11
ENDBRANCH   7   9
ENDBRANCH   1   7
BRANCH   2  20
HETATM   20  O1  UNK     1      32.896  -4.805  36.374  1.00  0.00    -0.275 OA
BRANCH  20  21
HETATM   21  C25 UNK     1      33.894  -5.780  36.443  1.00  0.00     0.298 C 
HETATM   22  O3  UNK     1      34.735  -5.874  37.324  1.00  0.00    -0.259 OA
BRANCH  21  23
HETATM   23  C17 UNK     1      33.819  -6.709  35.288  1.00  0.00     0.040 A 
HETATM   24  C21 UNK     1      33.596  -8.069  35.499  1.00  0.00     0.018 A 
HETATM   25  C23 UNK     1      33.527  -8.942  34.413  1.00  0.00     0.007 A 
HETATM   26  C18 UNK     1      33.681  -8.453  33.115  1.00  0.00    -0.062 A 
HETATM   27  C24 UNK     1      33.904  -7.093  32.904  1.00  0.00     0.007 A 
HETATM   28  C26 UNK     1      33.607  -9.386  31.954  1.00  0.00     0.048 C 
HETATM   29  C22 UNK     1      33.973  -6.220  33.991  1.00  0.00     0.018 A 
ENDBRANCH  21  23
ENDBRANCH  20  21
ENDBRANCH   2  20
TORSDOF 7
ENDMDL
MODEL 9
REMARK VINA RESULT:      -8.9     14.791     17.509
REMARK  7 active torsions:
REMARK  status: ('A' for Active; 'I' for Inactive)
REMARK    1  A    between atoms: C14_17  and  O1_1 
REMARK    2  A    between atoms: C25_28  and  O1_1 
REMARK    3  A    between atoms: C1_4  and  C2_5 
REMARK    4  A    between atoms: C10_13  and  C7_10 
REMARK    5  A    between atoms: C11_14  and  C13_16 
REMARK    6  A    between atoms: C12_15  and  C13_16 
REMARK    7  A    between atoms: C17_20  and  C25_28 
ROOT
HETATM    1  C12 UNK     1      28.844  -9.568  37.221  1.00  0.00     0.014 A 
HETATM    2  C14 UNK     1      29.752  -9.802  34.595  1.00  0.00     0.079 A 
HETATM    3  C15 UNK     1      30.211  -9.524  36.950  1.00  0.00     0.018 A 
HETATM    4  C16 UNK     1      27.930  -9.730  36.180  1.00  0.00     0.018 A 
HETATM    5  C19 UNK     1      30.666  -9.640  35.637  1.00  0.00     0.038 A 
HETATM    6  C20 UNK     1      28.385  -9.847  34.866  1.00  0.00     0.038 A 
ENDROOT
BRANCH   1   7
HETATM    7  C13 UNK     1      28.361  -9.442  38.618  1.00  0.00     0.182 C 
HETATM    8  O2  UNK     1      28.831 -10.164  39.491  1.00  0.00    -0.288 OA
BRANCH   7   9
HETATM    9  C11 UNK     1      27.287  -8.447  38.892  1.00  0.00     0.056 C 
HETATM   10  C10 UNK     1      27.471  -7.143  38.590  1.00  0.00     0.015 C 
BRANCH  10  11
HETATM   11  C7  UNK     1      28.674  -6.581  37.996  1.00  0.00    -0.036 A 
HETATM   12  C8  UNK     1      29.774  -6.282  38.800  1.00  0.00     0.012 A 
HETATM   13  C5  UNK     1      30.928  -5.742  38.230  1.00  0.00     0.008 A 
HETATM   14  C2  UNK     1      30.981  -5.503  36.857  1.00  0.00    -0.055 A 
HETATM   15  C6  UNK     1      29.881  -5.803  36.054  1.00  0.00     0.008 A 
HETATM   16  C9  UNK     1      28.728  -6.342  36.623  1.00  0.00     0.012 A 
BRANCH  14  17
HETATM   17  C1  UNK     1      32.215  -4.928  36.249  1.00  0.00     0.010 C 
HETATM   18  C3  UNK     1      32.269  -3.393  36.366  1.00  0.00     0.015 C 
HETATM   19  C4  UNK     1      32.397  -5.347  34.777  1.00  0.00     0.015 C 
ENDBRANCH  14  17
ENDBRANCH  10  11
ENDBRANCH   7   9
ENDBRANCH   1   7
BRANCH   2  20
HETATM   20  O1  UNK     1      30.196  -9.916  33.313  1.00  0.00    -0.275 OA
BRANCH  20  21
HETATM   21  C25 UNK     1      30.481  -8.697  32.691  1.00  0.00     0.298 C 
HETATM   22  O3  UNK     1      31.571  -8.146  32.677  1.00  0.00    -0.259 OA
BRANCH  21  23
HETATM   23  C17 UNK     1      29.273  -8.129  32.042  1.00  0.00     0.040 A 
HETATM   24  C21 UNK     1      28.596  -8.860  31.066  1.00  0.00     0.018 A 
HETATM   25  C23 UNK     1      27.461  -8.326  30.456  1.00  0.00     0.007 A 
HETATM   26  C18 UNK     1      27.004  -7.060  30.822  1.00  0.00    -0.062 A 
HETATM   27  C24 UNK     1      27.680  -6.329  31.798  1.00  0.00     0.007 A 
HETATM   28  C26 UNK     1      25.791  -6.489  30.169  1.00  0.00     0.048 C 
HETATM   29  C22 UNK     1      28.815  -6.864  32.409  1.00  0.00     0.018 A 
ENDBRANCH  21  23
ENDBRANCH  20  21
ENDBRANCH   2  20
TORSDOF 7
ENDMDL
MODEL 10
REMARK VINA RESULT:      -8.8     10.788     15.633
REMARK  7 active torsions:
REMARK  status: ('A' for Active; 'I' for Inactive)
REMARK    1  A    between atoms: C14_17  and  O1_1 
REMARK    2  A    between atoms: C25_28  and  O1_1 
REMARK    3  A    between atoms: C1_4  and  C2_5 
REMARK    4  A    between atoms: C10_13  and  C7_10 
REMARK    5  A    between atoms: C11_14  and  C13_16 
REMARK    6  A    between atoms: C12_15  and  C13_16 
REMARK    7  A    between atoms: C17_20  and  C25_28 
ROOT
HETATM    1  C12 UNK     1      23.238 -10.377  36.117  1.00  0.00     0.014 A 
HETATM    2  C14 UNK     1      25.910 -10.284  36.911  1.00  0.00     0.079 A 
HETATM    3  C15 UNK     1      23.734  -9.244  36.761  1.00  0.00     0.018 A 
HETATM    4  C16 UNK     1      24.076 -11.463  35.870  1.00  0.00     0.018 A 
HETATM    5  C19 UNK     1      25.071  -9.196  37.158  1.00  0.00     0.038 A 
HETATM    6  C20 UNK     1      25.413 -11.416  36.268  1.00  0.00     0.038 A 
ENDROOT
BRANCH   1   7
HETATM    7  C13 UNK     1      21.817 -10.425  35.694  1.00  0.00     0.182 C 
HETATM    8  O2  UNK     1      21.496  -9.991  34.593  1.00  0.00    -0.288 OA
BRANCH   7   9
HETATM    9  C11 UNK     1      20.827 -10.981  36.657  1.00  0.00     0.056 C 
HETATM   10  C10 UNK     1      19.958 -10.163  37.291  1.00  0.00     0.015 C 
BRANCH  10  11
HETATM   11  C7  UNK     1      19.889  -8.720  37.122  1.00  0.00    -0.036 A 
HETATM   12  C8  UNK     1      20.623  -7.884  37.963  1.00  0.00     0.012 A 
HETATM   13  C5  UNK     1      20.556  -6.500  37.803  1.00  0.00     0.008 A 
HETATM   14  C2  UNK     1      19.757  -5.952  36.800  1.00  0.00    -0.055 A 
HETATM   15  C6  UNK     1      19.023  -6.788  35.958  1.00  0.00     0.008 A 
HETATM   16  C9  UNK     1      19.089  -8.172  36.119  1.00  0.00     0.012 A 
BRANCH  14  17
HETATM   17  C1  UNK     1      19.687  -4.473  36.627  1.00  0.00     0.010 C 
HETATM   18  C3  UNK     1      20.043  -4.031  35.194  1.00  0.00     0.015 C 
HETATM   19  C4  UNK     1      20.568  -3.718  37.640  1.00  0.00     0.015 C 
ENDBRANCH  14  17
ENDBRANCH  10  11
ENDBRANCH   7   9
ENDBRANCH   1   7
BRANCH   2  20
HETATM   20  O1  UNK     1      27.214 -10.237  37.299  1.00  0.00    -0.275 OA
BRANCH  20  21
HETATM   21  C25 UNK     1      27.412  -9.783  38.605  1.00  0.00     0.298 C 
HETATM   22  O3  UNK     1      27.015 -10.339  39.618  1.00  0.00    -0.259 OA
BRANCH  21  23
HETATM   23  C17 UNK     1      28.170  -8.506  38.622  1.00  0.00     0.040 A 
HETATM   24  C21 UNK     1      27.709  -7.431  39.379  1.00  0.00     0.018 A 
HETATM   25  C23 UNK     1      28.421  -6.231  39.394  1.00  0.00     0.007 A 
HETATM   26  C18 UNK     1      29.595  -6.109  38.651  1.00  0.00    -0.062 A 
HETATM   27  C24 UNK     1      30.057  -7.185  37.893  1.00  0.00     0.007 A 
HETATM   28  C26 UNK     1      30.357  -4.827  38.667  1.00  0.00     0.048 C 
HETATM   29  C22 UNK     1      29.344  -8.385  37.879  1.00  0.00     0.018 A 
ENDBRANCH  21  23
ENDBRANCH  20  21
ENDBRANCH   2  20
TORSDOF 7
ENDMDL
