MODEL 1
REMARK VINA RESULT:      -9.2      0.000      0.000
REMARK  6 active torsions:
REMARK  status: ('A' for Active; 'I' for Inactive)
REMARK    1  A    between atoms: C13_20  and  O1_2 
REMARK    2  A    between atoms: C15_22  and  O1_2 
REMARK    3  A    between atoms: C12_19  and  N1_7 
REMARK       I    between atoms: C14_21  and  N1_7 
REMARK    4  A    between atoms: C1_8  and  C2_9 
REMARK    5  A    between atoms: C11_18  and  C13_20 
REMARK    6  A    between atoms: C14_21  and  C16_23 
ROOT
HETATM    1  S1  UNK     1      16.268   6.454  31.629  1.00  0.00    -0.075 SA
HETATM    2  C1  UNK     1      15.923  10.110  33.477  1.00  0.00    -0.002 C 
HETATM    3  C3  UNK     1      16.770   9.733  34.713  1.00  0.00     0.010 C 
HETATM    4  C4  UNK     1      15.371   8.848  32.777  1.00  0.00     0.052 C 
HETATM    5  C5  UNK     1      17.986   8.875  34.327  1.00  0.00     0.041 C 
HETATM    6  C6  UNK     1      16.434   7.801  32.659  1.00  0.00    -0.008 A 
HETATM    7  C7  UNK     1      17.617   7.784  33.371  1.00  0.00    -0.026 A 
HETATM    8  C11 UNK     1      18.402   6.636  33.049  1.00  0.00     0.080 A 
HETATM    9  C12 UNK     1      17.786   5.830  32.117  1.00  0.00     0.094 A 
ENDROOT
BRANCH   9  10
HETATM   10  N1  UNK     1      18.179   4.654  31.538  1.00  0.00    -0.316 N 
HETATM   11  C14 UNK     1      18.136   3.379  32.118  1.00  0.00     0.262 C 
HETATM   12  O3  UNK     1      17.749   3.065  33.237  1.00  0.00    -0.267 OA
HETATM   13  H17 UNK     1      18.549   4.748  30.596  1.00  0.00     0.169 HD
BRANCH  11  14
HETATM   14  C16 UNK     1      18.639   2.327  31.210  1.00  0.00     0.108 A 
HETATM   15  C17 UNK     1      19.002   1.174  31.784  1.00  0.00     0.037 A 
HETATM   16  C20 UNK     1      19.510   0.079  30.972  1.00  0.00    -0.001 A 
HETATM   17  C21 UNK     1      19.611   0.252  29.595  1.00  0.00     0.089 A 
HETATM   18  C22 UNK     1      19.901  -1.141  31.529  1.00  0.00     0.014 A 
HETATM   19  O4  UNK     1      19.227   1.468  28.997  1.00  0.00    -0.274 OA
HETATM   20  C23 UNK     1      20.089  -0.756  28.762  1.00  0.00     0.038 A 
HETATM   21  C19 UNK     1      18.737   2.534  29.748  1.00  0.00     0.304 A 
HETATM   22  O5  UNK     1      18.406   3.589  29.218  1.00  0.00    -0.259 OA
HETATM   23  C25 UNK     1      20.478  -1.970  29.325  1.00  0.00     0.003 A 
HETATM   24  C24 UNK     1      20.382  -2.163  30.705  1.00  0.00     0.001 A 
ENDBRANCH  11  14
ENDBRANCH   9  10
BRANCH   8  25
HETATM   25  C13 UNK     1      19.693   6.323  33.608  1.00  0.00     0.296 C 
HETATM   26  O2  UNK     1      19.866   5.535  34.549  1.00  0.00    -0.259 OA
BRANCH  25  27
HETATM   27  O1  UNK     1      20.740   6.983  33.001  1.00  0.00    -0.318 OA
BRANCH  27  28
HETATM   28  C15 UNK     1      21.774   6.171  32.432  1.00  0.00     0.174 C 
HETATM   29  C18 UNK     1      21.430   5.874  30.989  1.00  0.00     0.034 C 
ENDBRANCH  27  28
ENDBRANCH  25  27
ENDBRANCH   8  25
BRANCH   2  30
HETATM   30  C2  UNK     1      14.783  11.048  33.868  1.00  0.00    -0.047 C 
HETATM   31  C10 UNK     1      14.231  10.649  35.247  1.00  0.00     0.015 C 
HETATM   32  C8  UNK     1      13.656  10.958  32.826  1.00  0.00     0.015 C 
HETATM   33  C9  UNK     1      15.300  12.496  33.931  1.00  0.00     0.015 C 
ENDBRANCH   2  30
TORSDOF 6
ENDMDL
MODEL 2
REMARK VINA RESULT:      -9.1     15.471     20.987
REMARK  6 active torsions:
REMARK  status: ('A' for Active; 'I' for Inactive)
REMARK    1  A    between atoms: C13_20  and  O1_2 
REMARK    2  A    between atoms: C15_22  and  O1_2 
REMARK    3  A    between atoms: C12_19  and  N1_7 
REMARK       I    between atoms: C14_21  and  N1_7 
REMARK    4  A    between atoms: C1_8  and  C2_9 
REMARK    5  A    between atoms: C11_18  and  C13_20 
REMARK    6  A    between atoms: C14_21  and  C16_23 
ROOT
HETATM    1  S1  UNK     1      19.064  -1.641  12.345  1.00  0.00    -0.075 SA
HETATM    2  C1  UNK     1      19.113  -4.843   9.767  1.00  0.00    -0.002 C 
HETATM    3  C3  UNK     1      20.334  -5.535  10.413  1.00  0.00     0.010 C 
HETATM    4  C4  UNK     1      19.081  -3.337  10.115  1.00  0.00     0.052 C 
HETATM    5  C5  UNK     1      20.296  -5.437  11.947  1.00  0.00     0.041 C 
HETATM    6  C6  UNK     1      19.376  -3.123  11.567  1.00  0.00    -0.008 A 
HETATM    7  C7  UNK     1      19.949  -4.057  12.408  1.00  0.00    -0.026 A 
HETATM    8  C11 UNK     1      20.123  -3.533  13.725  1.00  0.00     0.080 A 
HETATM    9  C12 UNK     1      19.685  -2.231  13.828  1.00  0.00     0.094 A 
ENDROOT
BRANCH   9  10
HETATM   10  N1  UNK     1      19.666  -1.364  14.888  1.00  0.00    -0.316 N 
HETATM   11  C14 UNK     1      18.691  -1.290  15.892  1.00  0.00     0.262 C 
HETATM   12  O3  UNK     1      17.680  -1.969  16.023  1.00  0.00    -0.267 OA
HETATM   13  H17 UNK     1      20.443  -0.710  14.914  1.00  0.00     0.169 HD
BRANCH  11  14
HETATM   14  C16 UNK     1      18.983  -0.236  16.886  1.00  0.00     0.108 A 
HETATM   15  C17 UNK     1      18.989  -0.618  18.168  1.00  0.00     0.037 A 
HETATM   16  C20 UNK     1      19.265   0.349  19.221  1.00  0.00    -0.001 A 
HETATM   17  C21 UNK     1      19.522   1.670  18.870  1.00  0.00     0.089 A 
HETATM   18  C22 UNK     1      19.281  -0.006  20.572  1.00  0.00     0.014 A 
HETATM   19  O4  UNK     1      19.515   2.066  17.518  1.00  0.00    -0.274 OA
HETATM   20  C23 UNK     1      19.793   2.644  19.828  1.00  0.00     0.038 A 
HETATM   21  C19 UNK     1      19.253   1.164  16.489  1.00  0.00     0.304 A 
HETATM   22  O5  UNK     1      19.248   1.518  15.316  1.00  0.00    -0.259 OA
HETATM   23  C25 UNK     1      19.806   2.283  21.173  1.00  0.00     0.003 A 
HETATM   24  C24 UNK     1      19.553   0.961  21.545  1.00  0.00     0.001 A 
ENDBRANCH  11  14
ENDBRANCH   9  10
BRANCH   8  25
HETATM   25  C13 UNK     1      20.684  -4.250  14.842  1.00  0.00     0.296 C 
HETATM   26  O2  UNK     1      21.893  -4.489  14.974  1.00  0.00    -0.259 OA
BRANCH  25  27
HETATM   27  O1  UNK     1      19.750  -4.656  15.771  1.00  0.00    -0.318 OA
BRANCH  27  28
HETATM   28  C15 UNK     1      19.182  -5.959  15.590  1.00  0.00     0.174 C 
HETATM   29  C18 UNK     1      17.685  -5.825  15.414  1.00  0.00     0.034 C 
ENDBRANCH  27  28
ENDBRANCH  25  27
ENDBRANCH   8  25
BRANCH   2  30
HETATM   30  C2  UNK     1      19.115  -5.043   8.253  1.00  0.00    -0.047 C 
HETATM   31  C10 UNK     1      17.668  -5.158   7.743  1.00  0.00     0.015 C 
HETATM   32  C8  UNK     1      19.880  -6.328   7.900  1.00  0.00     0.015 C 
HETATM   33  C9  UNK     1      19.796  -3.844   7.572  1.00  0.00     0.015 C 
ENDBRANCH   2  30
TORSDOF 6
ENDMDL
MODEL 3
REMARK VINA RESULT:      -9.1      1.210      2.069
REMARK  6 active torsions:
REMARK  status: ('A' for Active; 'I' for Inactive)
REMARK    1  A    between atoms: C13_20  and  O1_2 
REMARK    2  A    between atoms: C15_22  and  O1_2 
REMARK    3  A    between atoms: C12_19  and  N1_7 
REMARK       I    between atoms: C14_21  and  N1_7 
REMARK    4  A    between atoms: C1_8  and  C2_9 
REMARK    5  A    between atoms: C11_18  and  C13_20 
REMARK    6  A    between atoms: C14_21  and  C16_23 
ROOT
HETATM    1  S1  UNK     1      15.564   6.606  32.420  1.00  0.00    -0.075 SA
HETATM    2  C1  UNK     1      15.067  10.577  33.358  1.00  0.00    -0.002 C 
HETATM    3  C3  UNK     1      15.915  10.533  34.648  1.00  0.00     0.010 C 
HETATM    4  C4  UNK     1      14.568   9.166  32.973  1.00  0.00     0.052 C 
HETATM    5  C5  UNK     1      17.166   9.655  34.475  1.00  0.00     0.041 C 
HETATM    6  C6  UNK     1      15.670   8.162  33.104  1.00  0.00    -0.008 A 
HETATM    7  C7  UNK     1      16.846   8.358  33.802  1.00  0.00    -0.026 A 
HETATM    8  C11 UNK     1      17.676   7.197  33.758  1.00  0.00     0.080 A 
HETATM    9  C12 UNK     1      17.099   6.172  33.041  1.00  0.00     0.094 A 
ENDROOT
BRANCH   9  10
HETATM   10  N1  UNK     1      17.541   4.908  32.754  1.00  0.00    -0.316 N 
HETATM   11  C14 UNK     1      18.151   4.484  31.566  1.00  0.00     0.262 C 
HETATM   12  O3  UNK     1      18.406   5.140  30.565  1.00  0.00    -0.267 OA
HETATM   13  H17 UNK     1      17.383   4.227  33.491  1.00  0.00     0.169 HD
BRANCH  11  14
HETATM   14  C16 UNK     1      18.504   3.048  31.595  1.00  0.00     0.108 A 
HETATM   15  C17 UNK     1      18.969   2.531  30.451  1.00  0.00     0.037 A 
HETATM   16  C20 UNK     1      19.342   1.127  30.380  1.00  0.00    -0.001 A 
HETATM   17  C21 UNK     1      19.207   0.336  31.516  1.00  0.00     0.089 A 
HETATM   18  C22 UNK     1      19.833   0.546  29.208  1.00  0.00     0.014 A 
HETATM   19  O4  UNK     1      18.717   0.886  32.717  1.00  0.00    -0.274 OA
HETATM   20  C23 UNK     1      19.546  -1.015  31.514  1.00  0.00     0.038 A 
HETATM   21  C19 UNK     1      18.351   2.226  32.815  1.00  0.00     0.304 A 
HETATM   22  O5  UNK     1      17.924   2.696  33.864  1.00  0.00    -0.259 OA
HETATM   23  C25 UNK     1      20.033  -1.588  30.342  1.00  0.00     0.003 A 
HETATM   24  C24 UNK     1      20.178  -0.809  29.191  1.00  0.00     0.001 A 
ENDBRANCH  11  14
ENDBRANCH   9  10
BRANCH   8  25
HETATM   25  C13 UNK     1      18.972   7.073  34.376  1.00  0.00     0.296 C 
HETATM   26  O2  UNK     1      19.290   7.632  35.437  1.00  0.00    -0.259 OA
BRANCH  25  27
HETATM   27  O1  UNK     1      19.849   6.270  33.679  1.00  0.00    -0.318 OA
BRANCH  27  28
HETATM   28  C15 UNK     1      20.806   6.929  32.843  1.00  0.00     0.174 C 
HETATM   29  C18 UNK     1      21.797   5.907  32.325  1.00  0.00     0.034 C 
ENDBRANCH  27  28
ENDBRANCH  25  27
ENDBRANCH   8  25
BRANCH   2  30
HETATM   30  C2  UNK     1      13.889  11.536  33.516  1.00  0.00    -0.047 C 
HETATM   31  C10 UNK     1      12.726  11.085  32.617  1.00  0.00     0.015 C 
HETATM   32  C8  UNK     1      14.317  12.957  33.114  1.00  0.00     0.015 C 
HETATM   33  C9  UNK     1      13.420  11.545  34.981  1.00  0.00     0.015 C 
ENDBRANCH   2  30
TORSDOF 6
ENDMDL
MODEL 4
REMARK VINA RESULT:      -8.5      5.332     11.316
REMARK  6 active torsions:
REMARK  status: ('A' for Active; 'I' for Inactive)
REMARK    1  A    between atoms: C13_20  and  O1_2 
REMARK    2  A    between atoms: C15_22  and  O1_2 
REMARK    3  A    between atoms: C12_19  and  N1_7 
REMARK       I    between atoms: C14_21  and  N1_7 
REMARK    4  A    between atoms: C1_8  and  C2_9 
REMARK    5  A    between atoms: C11_18  and  C13_20 
REMARK    6  A    between atoms: C14_21  and  C16_23 
ROOT
HETATM    1  S1  UNK     1      19.134  -2.297  36.862  1.00  0.00    -0.075 SA
HETATM    2  C1  UNK     1      20.351  -6.210  37.182  1.00  0.00    -0.002 C 
HETATM    3  C3  UNK     1      20.129  -6.558  35.694  1.00  0.00     0.010 C 
HETATM    4  C4  UNK     1      19.520  -4.974  37.594  1.00  0.00     0.052 C 
HETATM    5  C5  UNK     1      20.564  -5.407  34.771  1.00  0.00     0.041 C 
HETATM    6  C6  UNK     1      19.620  -3.900  36.556  1.00  0.00    -0.008 A 
HETATM    7  C7  UNK     1      20.070  -4.083  35.263  1.00  0.00    -0.026 A 
HETATM    8  C11 UNK     1      20.016  -2.867  34.517  1.00  0.00     0.080 A 
HETATM    9  C12 UNK     1      19.527  -1.819  35.266  1.00  0.00     0.094 A 
ENDROOT
BRANCH   9  10
HETATM   10  N1  UNK     1      19.312  -0.504  34.950  1.00  0.00    -0.316 N 
HETATM   11  C14 UNK     1      18.158   0.040  34.371  1.00  0.00     0.262 C 
HETATM   12  O3  UNK     1      17.130  -0.535  34.036  1.00  0.00    -0.267 OA
HETATM   13  H17 UNK     1      20.093   0.113  35.154  1.00  0.00     0.169 HD
BRANCH  11  14
HETATM   14  C16 UNK     1      18.264   1.500  34.166  1.00  0.00     0.108 A 
HETATM   15  C17 UNK     1      18.255   1.921  32.896  1.00  0.00     0.037 A 
HETATM   16  C20 UNK     1      18.356   3.341  32.592  1.00  0.00    -0.001 A 
HETATM   17  C21 UNK     1      18.461   4.247  33.642  1.00  0.00     0.089 A 
HETATM   18  C22 UNK     1      18.350   3.824  31.281  1.00  0.00     0.014 A 
HETATM   19  O4  UNK     1      18.471   3.798  34.977  1.00  0.00    -0.274 OA
HETATM   20  C23 UNK     1      18.561   5.619  33.420  1.00  0.00     0.038 A 
HETATM   21  C19 UNK     1      18.376   2.446  35.298  1.00  0.00     0.304 A 
HETATM   22  O5  UNK     1      18.386   2.065  36.463  1.00  0.00    -0.259 OA
HETATM   23  C25 UNK     1      18.556   6.093  32.110  1.00  0.00     0.003 A 
HETATM   24  C24 UNK     1      18.449   5.198  31.043  1.00  0.00     0.001 A 
ENDBRANCH  11  14
ENDBRANCH   9  10
BRANCH   8  25
HETATM   25  C13 UNK     1      20.420  -2.711  33.143  1.00  0.00     0.296 C 
HETATM   26  O2  UNK     1      21.439  -3.227  32.658  1.00  0.00    -0.259 OA
BRANCH  25  27
HETATM   27  O1  UNK     1      19.569  -1.926  32.395  1.00  0.00    -0.318 OA
BRANCH  27  28
HETATM   28  C15 UNK     1      19.929  -1.703  31.027  1.00  0.00     0.174 C 
HETATM   29  C18 UNK     1      20.451  -0.289  30.878  1.00  0.00     0.034 C 
ENDBRANCH  27  28
ENDBRANCH  25  27
ENDBRANCH   8  25
BRANCH   2  30
HETATM   30  C2  UNK     1      20.014  -7.404  38.073  1.00  0.00    -0.047 C 
HETATM   31  C10 UNK     1      20.077  -6.983  39.551  1.00  0.00     0.015 C 
HETATM   32  C8  UNK     1      21.021  -8.538  37.827  1.00  0.00     0.015 C 
HETATM   33  C9  UNK     1      18.596  -7.907  37.752  1.00  0.00     0.015 C 
ENDBRANCH   2  30
TORSDOF 6
ENDMDL
MODEL 5
REMARK VINA RESULT:      -8.5      5.071      7.699
REMARK  6 active torsions:
REMARK  status: ('A' for Active; 'I' for Inactive)
REMARK    1  A    between atoms: C13_20  and  O1_2 
REMARK    2  A    between atoms: C15_22  and  O1_2 
REMARK    3  A    between atoms: C12_19  and  N1_7 
REMARK       I    between atoms: C14_21  and  N1_7 
REMARK    4  A    between atoms: C1_8  and  C2_9 
REMARK    5  A    between atoms: C11_18  and  C13_20 
REMARK    6  A    between atoms: C14_21  and  C16_23 
ROOT
HETATM    1  S1  UNK     1      18.846   1.292  35.777  1.00  0.00    -0.075 SA
HETATM    2  C1  UNK     1      17.880   4.507  33.405  1.00  0.00    -0.002 C 
HETATM    3  C3  UNK     1      18.500   3.931  32.113  1.00  0.00     0.010 C 
HETATM    4  C4  UNK     1      18.485   3.835  34.659  1.00  0.00     0.052 C 
HETATM    5  C5  UNK     1      18.231   2.423  31.978  1.00  0.00     0.041 C 
HETATM    6  C6  UNK     1      18.573   2.353  34.473  1.00  0.00    -0.008 A 
HETATM    7  C7  UNK     1      18.484   1.696  33.261  1.00  0.00    -0.026 A 
HETATM    8  C11 UNK     1      18.636   0.286  33.422  1.00  0.00     0.080 A 
HETATM    9  C12 UNK     1      18.839  -0.069  34.738  1.00  0.00     0.094 A 
ENDROOT
BRANCH   9  10
HETATM   10  N1  UNK     1      19.029  -1.290  35.326  1.00  0.00    -0.316 N 
HETATM   11  C14 UNK     1      20.107  -2.161  35.119  1.00  0.00     0.262 C 
HETATM   12  O3  UNK     1      21.076  -2.012  34.385  1.00  0.00    -0.267 OA
HETATM   13  H17 UNK     1      18.290  -1.574  35.962  1.00  0.00     0.169 HD
BRANCH  11  14
HETATM   14  C16 UNK     1      19.995  -3.399  35.918  1.00  0.00     0.108 A 
HETATM   15  C17 UNK     1      20.045  -4.550  35.237  1.00  0.00     0.037 A 
HETATM   16  C20 UNK     1      19.943  -5.822  35.937  1.00  0.00    -0.001 A 
HETATM   17  C21 UNK     1      19.792  -5.819  37.320  1.00  0.00     0.089 A 
HETATM   18  C22 UNK     1      19.990  -7.046  35.266  1.00  0.00     0.014 A 
HETATM   19  O4  UNK     1      19.740  -4.604  38.032  1.00  0.00    -0.274 OA
HETATM   20  C23 UNK     1      19.688  -7.000  38.049  1.00  0.00     0.038 A 
HETATM   21  C19 UNK     1      19.836  -3.372  37.389  1.00  0.00     0.304 A 
HETATM   22  O5  UNK     1      19.788  -2.319  38.017  1.00  0.00    -0.259 OA
HETATM   23  C25 UNK     1      19.735  -8.218  37.373  1.00  0.00     0.003 A 
HETATM   24  C24 UNK     1      19.888  -8.241  35.985  1.00  0.00     0.001 A 
ENDBRANCH  11  14
ENDBRANCH   9  10
BRANCH   8  25
HETATM   25  C13 UNK     1      18.585  -0.687  32.359  1.00  0.00     0.296 C 
HETATM   26  O2  UNK     1      17.698  -1.546  32.250  1.00  0.00    -0.259 OA
BRANCH  25  27
HETATM   27  O1  UNK     1      19.622  -0.585  31.458  1.00  0.00    -0.318 OA
BRANCH  27  28
HETATM   28  C15 UNK     1      20.098  -1.804  30.876  1.00  0.00     0.174 C 
HETATM   29  C18 UNK     1      20.473  -1.550  29.432  1.00  0.00     0.034 C 
ENDBRANCH  27  28
ENDBRANCH  25  27
ENDBRANCH   8  25
BRANCH   2  30
HETATM   30  C2  UNK     1      18.066   6.022  33.467  1.00  0.00    -0.047 C 
HETATM   31  C10 UNK     1      19.470   6.351  34.002  1.00  0.00     0.015 C 
HETATM   32  C8  UNK     1      17.012   6.638  34.400  1.00  0.00     0.015 C 
HETATM   33  C9  UNK     1      17.909   6.622  32.060  1.00  0.00     0.015 C 
ENDBRANCH   2  30
TORSDOF 6
ENDMDL
MODEL 6
REMARK VINA RESULT:      -8.2      4.471      6.758
REMARK  6 active torsions:
REMARK  status: ('A' for Active; 'I' for Inactive)
REMARK    1  A    between atoms: C13_20  and  O1_2 
REMARK    2  A    between atoms: C15_22  and  O1_2 
REMARK    3  A    between atoms: C12_19  and  N1_7 
REMARK       I    between atoms: C14_21  and  N1_7 
REMARK    4  A    between atoms: C1_8  and  C2_9 
REMARK    5  A    between atoms: C11_18  and  C13_20 
REMARK    6  A    between atoms: C14_21  and  C16_23 
ROOT
HETATM    1  S1  UNK     1      18.548   2.310  35.092  1.00  0.00    -0.075 SA
HETATM    2  C1  UNK     1      17.368   5.477  32.752  1.00  0.00    -0.002 C 
HETATM    3  C3  UNK     1      18.192   5.062  31.513  1.00  0.00     0.010 C 
HETATM    4  C4  UNK     1      17.935   4.833  34.037  1.00  0.00     0.052 C 
HETATM    5  C5  UNK     1      18.159   3.541  31.294  1.00  0.00     0.041 C 
HETATM    6  C6  UNK     1      18.257   3.389  33.807  1.00  0.00    -0.008 A 
HETATM    7  C7  UNK     1      18.385   2.790  32.568  1.00  0.00    -0.026 A 
HETATM    8  C11 UNK     1      18.723   1.409  32.691  1.00  0.00     0.080 A 
HETATM    9  C12 UNK     1      18.843   1.018  34.007  1.00  0.00     0.094 A 
ENDROOT
BRANCH   9  10
HETATM   10  N1  UNK     1      19.149  -0.194  34.567  1.00  0.00    -0.316 N 
HETATM   11  C14 UNK     1      18.498  -0.805  35.646  1.00  0.00     0.262 C 
HETATM   12  O3  UNK     1      17.547  -0.391  36.296  1.00  0.00    -0.267 OA
HETATM   13  H17 UNK     1      19.942  -0.667  34.144  1.00  0.00     0.169 HD
BRANCH  11  14
HETATM   14  C16 UNK     1      19.089  -2.115  35.993  1.00  0.00     0.108 A 
HETATM   15  C17 UNK     1      18.224  -3.105  36.248  1.00  0.00     0.037 A 
HETATM   16  C20 UNK     1      18.710  -4.431  36.599  1.00  0.00    -0.001 A 
HETATM   17  C21 UNK     1      20.082  -4.649  36.664  1.00  0.00     0.089 A 
HETATM   18  C22 UNK     1      17.844  -5.492  36.873  1.00  0.00     0.014 A 
HETATM   19  O4  UNK     1      20.987  -3.604  36.395  1.00  0.00    -0.274 OA
HETATM   20  C23 UNK     1      20.612  -5.894  36.995  1.00  0.00     0.038 A 
HETATM   21  C19 UNK     1      20.552  -2.325  36.057  1.00  0.00     0.304 A 
HETATM   22  O5  UNK     1      21.348  -1.421  35.825  1.00  0.00    -0.259 OA
HETATM   23  C25 UNK     1      19.742  -6.948  37.267  1.00  0.00     0.003 A 
HETATM   24  C24 UNK     1      18.361  -6.748  37.205  1.00  0.00     0.001 A 
ENDBRANCH  11  14
ENDBRANCH   9  10
BRANCH   8  25
HETATM   25  C13 UNK     1      18.921   0.496  31.594  1.00  0.00     0.296 C 
HETATM   26  O2  UNK     1      18.365   0.609  30.491  1.00  0.00    -0.259 OA
BRANCH  25  27
HETATM   27  O1  UNK     1      19.793  -0.534  31.873  1.00  0.00    -0.318 OA
BRANCH  27  28
HETATM   28  C15 UNK     1      20.756  -0.859  30.864  1.00  0.00     0.174 C 
HETATM   29  C18 UNK     1      20.429  -2.220  30.288  1.00  0.00     0.034 C 
ENDBRANCH  27  28
ENDBRANCH  25  27
ENDBRANCH   8  25
BRANCH   2  30
HETATM   30  C2  UNK     1      17.326   6.998  32.890  1.00  0.00    -0.047 C 
HETATM   31  C10 UNK     1      16.795   7.623  31.589  1.00  0.00     0.015 C 
HETATM   32  C8  UNK     1      18.739   7.534  33.170  1.00  0.00     0.015 C 
HETATM   33  C9  UNK     1      16.397   7.388  34.053  1.00  0.00     0.015 C 
ENDBRANCH   2  30
TORSDOF 6
ENDMDL
MODEL 7
REMARK VINA RESULT:      -8.0     16.580     19.492
REMARK  6 active torsions:
REMARK  status: ('A' for Active; 'I' for Inactive)
REMARK    1  A    between atoms: C13_20  and  O1_2 
REMARK    2  A    between atoms: C15_22  and  O1_2 
REMARK    3  A    between atoms: C12_19  and  N1_7 
REMARK       I    between atoms: C14_21  and  N1_7 
REMARK    4  A    between atoms: C1_8  and  C2_9 
REMARK    5  A    between atoms: C11_18  and  C13_20 
REMARK    6  A    between atoms: C14_21  and  C16_23 
ROOT
HETATM    1  S1  UNK     1      31.078  -8.707  34.351  1.00  0.00    -0.075 SA
HETATM    2  C1  UNK     1      35.060  -7.697  34.479  1.00  0.00    -0.002 C 
HETATM    3  C3  UNK     1      34.850  -6.351  35.207  1.00  0.00     0.010 C 
HETATM    4  C4  UNK     1      33.764  -8.156  33.774  1.00  0.00     0.052 C 
HETATM    5  C5  UNK     1      33.770  -6.458  36.296  1.00  0.00     0.041 C 
HETATM    6  C6  UNK     1      32.581  -7.974  34.673  1.00  0.00    -0.008 A 
HETATM    7  C7  UNK     1      32.558  -7.188  35.809  1.00  0.00    -0.026 A 
HETATM    8  C11 UNK     1      31.271  -7.204  36.427  1.00  0.00     0.080 A 
HETATM    9  C12 UNK     1      30.373  -7.990  35.737  1.00  0.00     0.094 A 
ENDROOT
BRANCH   9  10
HETATM   10  N1  UNK     1      29.056  -8.279  35.974  1.00  0.00    -0.316 N 
HETATM   11  C14 UNK     1      28.544  -9.040  37.033  1.00  0.00     0.262 C 
HETATM   12  O3  UNK     1      29.154  -9.590  37.941  1.00  0.00    -0.267 OA
HETATM   13  H17 UNK     1      28.410  -7.902  35.287  1.00  0.00     0.169 HD
BRANCH  11  14
HETATM   14  C16 UNK     1      27.070  -9.153  36.986  1.00  0.00     0.108 A 
HETATM   15  C17 UNK     1      26.581 -10.283  36.463  1.00  0.00     0.037 A 
HETATM   16  C20 UNK     1      25.142 -10.487  36.372  1.00  0.00    -0.001 A 
HETATM   17  C21 UNK     1      24.291  -9.490  36.837  1.00  0.00     0.089 A 
HETATM   18  C22 UNK     1      24.588 -11.650  35.834  1.00  0.00     0.014 A 
HETATM   19  O4  UNK     1      24.813  -8.302  37.387  1.00  0.00    -0.274 OA
HETATM   20  C23 UNK     1      22.906  -9.621  36.779  1.00  0.00     0.038 A 
HETATM   21  C19 UNK     1      26.184  -8.079  37.486  1.00  0.00     0.304 A 
HETATM   22  O5  UNK     1      26.629  -7.041  37.964  1.00  0.00    -0.259 OA
HETATM   23  C25 UNK     1      22.360 -10.784  36.240  1.00  0.00     0.003 A 
HETATM   24  C24 UNK     1      23.199 -11.798  35.770  1.00  0.00     0.001 A 
ENDBRANCH  11  14
ENDBRANCH   9  10
BRANCH   8  25
HETATM   25  C13 UNK     1      30.914  -6.499  37.632  1.00  0.00     0.296 C 
HETATM   26  O2  UNK     1      31.443  -6.702  38.735  1.00  0.00    -0.259 OA
BRANCH  25  27
HETATM   27  O1  UNK     1      29.917  -5.564  37.458  1.00  0.00    -0.318 OA
BRANCH  27  28
HETATM   28  C15 UNK     1      30.203  -4.226  37.880  1.00  0.00     0.174 C 
HETATM   29  C18 UNK     1      29.535  -3.975  39.215  1.00  0.00     0.034 C 
ENDBRANCH  27  28
ENDBRANCH  25  27
ENDBRANCH   8  25
BRANCH   2  30
HETATM   30  C2  UNK     1      36.208  -7.597  33.476  1.00  0.00    -0.047 C 
HETATM   31  C10 UNK     1      37.517  -7.269  34.215  1.00  0.00     0.015 C 
HETATM   32  C8  UNK     1      35.911  -6.486  32.455  1.00  0.00     0.015 C 
HETATM   33  C9  UNK     1      36.369  -8.935  32.735  1.00  0.00     0.015 C 
ENDBRANCH   2  30
TORSDOF 6
ENDMDL
MODEL 8
REMARK VINA RESULT:      -8.0     23.254     25.171
REMARK  6 active torsions:
REMARK  status: ('A' for Active; 'I' for Inactive)
REMARK    1  A    between atoms: C13_20  and  O1_2 
REMARK    2  A    between atoms: C15_22  and  O1_2 
REMARK    3  A    between atoms: C12_19  and  N1_7 
REMARK       I    between atoms: C14_21  and  N1_7 
REMARK    4  A    between atoms: C1_8  and  C2_9 
REMARK    5  A    between atoms: C11_18  and  C13_20 
REMARK    6  A    between atoms: C14_21  and  C16_23 
ROOT
HETATM    1  S1  UNK     1      15.591  11.820   7.141  1.00  0.00    -0.075 SA
HETATM    2  C1  UNK     1      19.584  12.788   6.996  1.00  0.00    -0.002 C 
HETATM    3  C3  UNK     1      19.839  12.592   8.507  1.00  0.00     0.010 C 
HETATM    4  C4  UNK     1      18.083  13.027   6.713  1.00  0.00     0.052 C 
HETATM    5  C5  UNK     1      19.086  11.369   9.056  1.00  0.00     0.041 C 
HETATM    6  C6  UNK     1      17.239  12.068   7.493  1.00  0.00    -0.008 A 
HETATM    7  C7  UNK     1      17.671  11.325   8.574  1.00  0.00    -0.026 A 
HETATM    8  C11 UNK     1      16.615  10.529   9.113  1.00  0.00     0.080 A 
HETATM    9  C12 UNK     1      15.432  10.703   8.429  1.00  0.00     0.094 A 
ENDROOT
BRANCH   9  10
HETATM   10  N1  UNK     1      14.194  10.146   8.607  1.00  0.00    -0.316 N 
HETATM   11  C14 UNK     1      13.867   8.786   8.515  1.00  0.00     0.262 C 
HETATM   12  O3  UNK     1      14.603   7.841   8.262  1.00  0.00    -0.267 OA
HETATM   13  H17 UNK     1      13.455  10.812   8.810  1.00  0.00     0.169 HD
BRANCH  11  14
HETATM   14  C16 UNK     1      12.432   8.533   8.767  1.00  0.00     0.108 A 
HETATM   15  C17 UNK     1      11.820   7.703   7.914  1.00  0.00     0.037 A 
HETATM   16  C20 UNK     1      10.408   7.392   8.078  1.00  0.00    -0.001 A 
HETATM   17  C21 UNK     1       9.710   7.971   9.134  1.00  0.00     0.089 A 
HETATM   18  C22 UNK     1       9.729   6.532   7.212  1.00  0.00     0.014 A 
HETATM   19  O4  UNK     1      10.361   8.843  10.029  1.00  0.00    -0.274 OA
HETATM   20  C23 UNK     1       8.358   7.715   9.347  1.00  0.00     0.038 A 
HETATM   21  C19 UNK     1      11.710   9.159   9.896  1.00  0.00     0.304 A 
HETATM   22  O5  UNK     1      12.267   9.921  10.680  1.00  0.00    -0.259 OA
HETATM   23  C25 UNK     1       7.687   6.857   8.478  1.00  0.00     0.003 A 
HETATM   24  C24 UNK     1       8.371   6.266   7.414  1.00  0.00     0.001 A 
ENDBRANCH  11  14
ENDBRANCH   9  10
BRANCH   8  25
HETATM   25  C13 UNK     1      16.733   9.633  10.236  1.00  0.00     0.296 C 
HETATM   26  O2  UNK     1      16.052   9.725  11.268  1.00  0.00    -0.259 OA
BRANCH  25  27
HETATM   27  O1  UNK     1      17.683   8.648  10.068  1.00  0.00    -0.318 OA
BRANCH  27  28
HETATM   28  C15 UNK     1      17.310   7.319  10.447  1.00  0.00     0.174 C 
HETATM   29  C18 UNK     1      17.671   6.366   9.327  1.00  0.00     0.034 C 
ENDBRANCH  27  28
ENDBRANCH  25  27
ENDBRANCH   8  25
BRANCH   2  30
HETATM   30  C2  UNK     1      20.422  13.941   6.449  1.00  0.00    -0.047 C 
HETATM   31  C10 UNK     1      20.057  15.243   7.183  1.00  0.00     0.015 C 
HETATM   32  C8  UNK     1      20.151  14.114   4.946  1.00  0.00     0.015 C 
HETATM   33  C9  UNK     1      21.916  13.644   6.663  1.00  0.00     0.015 C 
ENDBRANCH   2  30
TORSDOF 6
ENDMDL
MODEL 9
REMARK VINA RESULT:      -7.9     22.495     24.480
REMARK  6 active torsions:
REMARK  status: ('A' for Active; 'I' for Inactive)
REMARK    1  A    between atoms: C13_20  and  O1_2 
REMARK    2  A    between atoms: C15_22  and  O1_2 
REMARK    3  A    between atoms: C12_19  and  N1_7 
REMARK       I    between atoms: C14_21  and  N1_7 
REMARK    4  A    between atoms: C1_8  and  C2_9 
REMARK    5  A    between atoms: C11_18  and  C13_20 
REMARK    6  A    between atoms: C14_21  and  C16_23 
ROOT
HETATM    1  S1  UNK     1      14.862  10.380   7.966  1.00  0.00    -0.075 SA
HETATM    2  C1  UNK     1      18.694  11.817   8.354  1.00  0.00    -0.002 C 
HETATM    3  C3  UNK     1      18.817  11.506   9.862  1.00  0.00     0.010 C 
HETATM    4  C4  UNK     1      17.212  11.906   7.925  1.00  0.00     0.052 C 
HETATM    5  C5  UNK     1      18.173  10.156  10.218  1.00  0.00     0.041 C 
HETATM    6  C6  UNK     1      16.421  10.784   8.521  1.00  0.00    -0.008 A 
HETATM    7  C7  UNK     1      16.831   9.993   9.577  1.00  0.00    -0.026 A 
HETATM    8  C11 UNK     1      15.835   9.031   9.924  1.00  0.00     0.080 A 
HETATM    9  C12 UNK     1      14.715   9.132   9.128  1.00  0.00     0.094 A 
ENDROOT
BRANCH   9  10
HETATM   10  N1  UNK     1      13.546   8.419   9.117  1.00  0.00    -0.316 N 
HETATM   11  C14 UNK     1      13.129   7.509   8.137  1.00  0.00     0.262 C 
HETATM   12  O3  UNK     1      13.711   7.173   7.113  1.00  0.00    -0.267 OA
HETATM   13  H17 UNK     1      12.932   8.601   9.906  1.00  0.00     0.169 HD
BRANCH  11  14
HETATM   14  C16 UNK     1      11.810   6.917   8.441  1.00  0.00     0.108 A 
HETATM   15  C17 UNK     1      10.842   7.774   8.788  1.00  0.00     0.037 A 
HETATM   16  C20 UNK     1       9.509   7.286   9.107  1.00  0.00    -0.001 A 
HETATM   17  C21 UNK     1       9.260   5.918   9.045  1.00  0.00     0.089 A 
HETATM   18  C22 UNK     1       8.469   8.144   9.472  1.00  0.00     0.014 A 
HETATM   19  O4  UNK     1      10.283   5.021   8.680  1.00  0.00    -0.274 OA
HETATM   20  C23 UNK     1       8.007   5.386   9.338  1.00  0.00     0.038 A 
HETATM   21  C19 UNK     1      11.568   5.459   8.370  1.00  0.00     0.304 A 
HETATM   22  O5  UNK     1      12.452   4.669   8.054  1.00  0.00    -0.259 OA
HETATM   23  C25 UNK     1       6.976   6.249   9.703  1.00  0.00     0.003 A 
HETATM   24  C24 UNK     1       7.206   7.625   9.769  1.00  0.00     0.001 A 
ENDBRANCH  11  14
ENDBRANCH   9  10
BRANCH   8  25
HETATM   25  C13 UNK     1      15.951   8.050  10.974  1.00  0.00     0.296 C 
HETATM   26  O2  UNK     1      15.328   8.106  12.044  1.00  0.00    -0.259 OA
BRANCH  25  27
HETATM   27  O1  UNK     1      16.827   7.026  10.688  1.00  0.00    -0.318 OA
BRANCH  27  28
HETATM   28  C15 UNK     1      16.479   6.160   9.601  1.00  0.00     0.174 C 
HETATM   29  C18 UNK     1      15.335   5.266  10.029  1.00  0.00     0.034 C 
ENDBRANCH  27  28
ENDBRANCH  25  27
ENDBRANCH   8  25
BRANCH   2  30
HETATM   30  C2  UNK     1      19.431  13.108   8.005  1.00  0.00    -0.047 C 
HETATM   31  C10 UNK     1      19.301  13.389   6.498  1.00  0.00     0.015 C 
HETATM   32  C8  UNK     1      20.919  12.972   8.368  1.00  0.00     0.015 C 
HETATM   33  C9  UNK     1      18.824  14.282   8.791  1.00  0.00     0.015 C 
ENDBRANCH   2  30
TORSDOF 6
ENDMDL
MODEL 10
REMARK VINA RESULT:      -7.8     22.250     24.513
REMARK  6 active torsions:
REMARK  status: ('A' for Active; 'I' for Inactive)
REMARK    1  A    between atoms: C13_20  and  O1_2 
REMARK    2  A    between atoms: C15_22  and  O1_2 
REMARK    3  A    between atoms: C12_19  and  N1_7 
REMARK       I    between atoms: C14_21  and  N1_7 
REMARK    4  A    between atoms: C1_8  and  C2_9 
REMARK    5  A    between atoms: C11_18  and  C13_20 
REMARK    6  A    between atoms: C14_21  and  C16_23 
ROOT
HETATM    1  S1  UNK     1      12.411   9.417   9.429  1.00  0.00    -0.075 SA
HETATM    2  C1  UNK     1       9.551   6.490   9.033  1.00  0.00    -0.002 C 
HETATM    3  C3  UNK     1      10.429   5.536   8.194  1.00  0.00     0.010 C 
HETATM    4  C4  UNK     1      10.076   7.941   8.955  1.00  0.00     0.052 C 
HETATM    5  C5  UNK     1      11.881   5.508   8.701  1.00  0.00     0.041 C 
HETATM    6  C6  UNK     1      11.565   7.974   9.106  1.00  0.00    -0.008 A 
HETATM    7  C7  UNK     1      12.402   6.884   8.971  1.00  0.00    -0.026 A 
HETATM    8  C11 UNK     1      13.770   7.254   9.148  1.00  0.00     0.080 A 
HETATM    9  C12 UNK     1      13.915   8.601   9.403  1.00  0.00     0.094 A 
ENDROOT
BRANCH   9  10
HETATM   10  N1  UNK     1      15.030   9.363   9.629  1.00  0.00    -0.316 N 
HETATM   11  C14 UNK     1      15.585  10.314   8.763  1.00  0.00     0.262 C 
HETATM   12  O3  UNK     1      15.196  10.649   7.651  1.00  0.00    -0.267 OA
HETATM   13  H17 UNK     1      15.489   9.188  10.519  1.00  0.00     0.169 HD
BRANCH  11  14
HETATM   14  C16 UNK     1      16.792  10.955   9.326  1.00  0.00     0.108 A 
HETATM   15  C17 UNK     1      17.865  10.998   8.528  1.00  0.00     0.037 A 
HETATM   16  C20 UNK     1      19.101  11.609   8.993  1.00  0.00    -0.001 A 
HETATM   17  C21 UNK     1      19.146  12.144  10.276  1.00  0.00     0.089 A 
HETATM   18  C22 UNK     1      20.245  11.676   8.194  1.00  0.00     0.014 A 
HETATM   19  O4  UNK     1      18.012  12.095  11.112  1.00  0.00    -0.274 OA
HETATM   20  C23 UNK     1      20.297  12.741  10.783  1.00  0.00     0.038 A 
HETATM   21  C19 UNK     1      16.816  11.517  10.694  1.00  0.00     0.304 A 
HETATM   22  O5  UNK     1      15.835  11.478  11.429  1.00  0.00    -0.259 OA
HETATM   23  C25 UNK     1      21.435  12.804   9.980  1.00  0.00     0.003 A 
HETATM   24  C24 UNK     1      21.408  12.274   8.688  1.00  0.00     0.001 A 
ENDBRANCH  11  14
ENDBRANCH   9  10
BRANCH   8  25
HETATM   25  C13 UNK     1      14.894   6.355   9.081  1.00  0.00     0.296 C 
HETATM   26  O2  UNK     1      15.086   5.555   8.153  1.00  0.00    -0.259 OA
BRANCH  25  27
HETATM   27  O1  UNK     1      15.756   6.456  10.152  1.00  0.00    -0.318 OA
BRANCH  27  28
HETATM   28  C15 UNK     1      17.153   6.558   9.851  1.00  0.00     0.174 C 
HETATM   29  C18 UNK     1      17.776   7.605  10.749  1.00  0.00     0.034 C 
ENDBRANCH  27  28
ENDBRANCH  25  27
ENDBRANCH   8  25
BRANCH   2  30
HETATM   30  C2  UNK     1       8.094   6.423   8.582  1.00  0.00    -0.047 C 
HETATM   31  C10 UNK     1       7.271   7.491   9.322  1.00  0.00     0.015 C 
HETATM   32  C8  UNK     1       7.516   5.032   8.894  1.00  0.00     0.015 C 
HETATM   33  C9  UNK     1       8.006   6.679   7.068  1.00  0.00     0.015 C 
ENDBRANCH   2  30
TORSDOF 6
ENDMDL
