MODEL 1
REMARK VINA RESULT:     -11.5      0.000      0.000
REMARK  5 active torsions:
REMARK  status: ('A' for Active; 'I' for Inactive)
REMARK       I    between atoms: C6_14  and  N1_6 
REMARK    1  A    between atoms: N1_6  and  N2_7 
REMARK    2  A    between atoms: C22_30  and  N2_7 
REMARK    3  A    between atoms: C17_25  and  N3_8 
REMARK    4  A    between atoms: C22_30  and  N3_8 
REMARK    5  A    between atoms: C1_9  and  C6_14 
ROOT
HETATM    1  O2  UNK     1      21.173  -2.056  33.618  1.00  0.00    -0.271 OA
HETATM    2  N1  UNK     1      19.364  -2.800  34.873  1.00  0.00    -0.267 N 
HETATM    3  C6  UNK     1      19.969  -2.083  33.860  1.00  0.00     0.249 C 
HETATM    4  H10 UNK     1      18.359  -2.892  34.970  1.00  0.00     0.190 HD
ENDROOT
BRANCH   2   5
HETATM    5  N2  UNK     1      20.147  -3.563  35.708  1.00  0.00    -0.274 N 
HETATM    6  H11 UNK     1      20.842  -4.155  35.264  1.00  0.00     0.189 HD
BRANCH   5   7
HETATM    7  C22 UNK     1      19.983  -3.546  37.088  1.00  0.00     0.191 C 
HETATM    8  S1  UNK     1      18.998  -2.346  37.721  1.00  0.00    -0.039 SA
BRANCH   7   9
HETATM    9  N3  UNK     1      20.656  -4.572  37.744  1.00  0.00    -0.332 N 
HETATM   10  H15 UNK     1      21.339  -4.244  38.423  1.00  0.00     0.168 HD
BRANCH   9  11
HETATM   11  C17 UNK     1      20.535  -5.983  37.721  1.00  0.00     0.037 A 
HETATM   12  C19 UNK     1      21.103  -6.694  36.685  1.00  0.00     0.067 A 
HETATM   13  C16 UNK     1      20.972  -8.085  36.683  1.00  0.00     0.092 A 
HETATM   14  C15 UNK     1      20.290  -8.770  37.688  1.00  0.00     0.004 A 
HETATM   15  O3  UNK     1      21.568  -8.773  35.607  1.00  0.00    -0.275 OA
HETATM   16  C18 UNK     1      20.200 -10.234  37.607  1.00  0.00    -0.043 A 
HETATM   17  C20 UNK     1      19.726  -8.013  38.724  1.00  0.00     0.017 A 
HETATM   18  C23 UNK     1      20.776 -10.862  36.572  1.00  0.00     0.090 A 
HETATM   19  C24 UNK     1      19.473 -11.001  38.673  1.00  0.00     0.049 C 
HETATM   20  C25 UNK     1      21.500 -10.153  35.503  1.00  0.00     0.288 A 
HETATM   21  O4  UNK     1      22.014 -10.763  34.571  1.00  0.00    -0.260 OA
HETATM   22  C21 UNK     1      19.849  -6.619  38.740  1.00  0.00     0.030 A 
ENDBRANCH   9  11
ENDBRANCH   7   9
ENDBRANCH   5   7
ENDBRANCH   2   5
BRANCH   3  23
HETATM   23  C1  UNK     1      18.978  -1.328  33.023  1.00  0.00     0.151 C 
HETATM   24  C2  UNK     1      19.517  -1.127  31.630  1.00  0.00    -0.006 A 
HETATM   25  C4  UNK     1      19.421   0.121  31.005  1.00  0.00     0.083 A 
HETATM   26  C7  UNK     1      20.109  -2.192  30.935  1.00  0.00     0.011 A 
HETATM   27  O1  UNK     1      18.873   1.228  31.608  1.00  0.00    -0.310 OA
HETATM   28  C9  UNK     1      19.893   0.298  29.702  1.00  0.00     0.038 A 
HETATM   29  C5  UNK     1      18.576   1.162  32.949  1.00  0.00     0.083 A 
HETATM   30  C10 UNK     1      18.218   2.366  33.562  1.00  0.00     0.038 A 
HETATM   31  C3  UNK     1      18.622  -0.025  33.689  1.00  0.00    -0.006 A 
HETATM   32  C14 UNK     1      17.914   2.394  34.921  1.00  0.00     0.003 A 
HETATM   33  C12 UNK     1      17.965   1.220  35.670  1.00  0.00     0.001 A 
HETATM   34  C8  UNK     1      18.317   0.017  35.058  1.00  0.00     0.011 A 
HETATM   35  C13 UNK     1      20.475  -0.768  29.019  1.00  0.00     0.003 A 
HETATM   36  C11 UNK     1      20.586  -2.012  29.636  1.00  0.00     0.001 A 
ENDBRANCH   3  23
TORSDOF 5
ENDMDL
MODEL 2
REMARK VINA RESULT:     -11.2      5.303     11.992
REMARK  5 active torsions:
REMARK  status: ('A' for Active; 'I' for Inactive)
REMARK       I    between atoms: C6_14  and  N1_6 
REMARK    1  A    between atoms: N1_6  and  N2_7 
REMARK    2  A    between atoms: C22_30  and  N2_7 
REMARK    3  A    between atoms: C17_25  and  N3_8 
REMARK    4  A    between atoms: C22_30  and  N3_8 
REMARK    5  A    between atoms: C1_9  and  C6_14 
ROOT
HETATM    1  O2  UNK     1      18.852   2.093  34.277  1.00  0.00    -0.271 OA
HETATM    2  N1  UNK     1      17.730   1.610  32.300  1.00  0.00    -0.267 N 
HETATM    3  C6  UNK     1      18.257   1.310  33.541  1.00  0.00     0.249 C 
HETATM    4  H10 UNK     1      17.144   0.972  31.773  1.00  0.00     0.190 HD
ENDROOT
BRANCH   2   5
HETATM    5  N2  UNK     1      17.863   2.889  31.812  1.00  0.00    -0.274 N 
HETATM    6  H11 UNK     1      17.452   3.633  32.366  1.00  0.00     0.189 HD
BRANCH   5   7
HETATM    7  C22 UNK     1      18.508   3.151  30.608  1.00  0.00     0.191 C 
HETATM    8  S1  UNK     1      18.322   2.021  29.384  1.00  0.00    -0.039 SA
BRANCH   7   9
HETATM    9  N3  UNK     1      19.202   4.358  30.597  1.00  0.00    -0.332 N 
HETATM   10  H15 UNK     1      19.800   4.478  29.783  1.00  0.00     0.168 HD
BRANCH   9  11
HETATM   11  C17 UNK     1      19.192   5.491  31.447  1.00  0.00     0.037 A 
HETATM   12  C19 UNK     1      18.027   6.215  31.595  1.00  0.00     0.067 A 
HETATM   13  C16 UNK     1      18.039   7.328  32.438  1.00  0.00     0.092 A 
HETATM   14  C15 UNK     1      19.184   7.727  33.129  1.00  0.00     0.004 A 
HETATM   15  O3  UNK     1      16.829   8.040  32.562  1.00  0.00    -0.275 OA
HETATM   16  C18 UNK     1      19.107   8.911  33.995  1.00  0.00    -0.043 A 
HETATM   17  C20 UNK     1      20.348   6.966  32.953  1.00  0.00     0.017 A 
HETATM   18  C23 UNK     1      17.943   9.568  34.094  1.00  0.00     0.090 A 
HETATM   19  C24 UNK     1      20.321   9.366  34.753  1.00  0.00     0.049 C 
HETATM   20  C25 UNK     1      16.727   9.160  33.371  1.00  0.00     0.288 A 
HETATM   21  O4  UNK     1      15.678   9.786  33.486  1.00  0.00    -0.260 OA
HETATM   22  C21 UNK     1      20.351   5.848  32.112  1.00  0.00     0.030 A 
ENDBRANCH   9  11
ENDBRANCH   7   9
ENDBRANCH   5   7
ENDBRANCH   2   5
BRANCH   3  23
HETATM   23  C1  UNK     1      18.002  -0.114  33.941  1.00  0.00     0.151 C 
HETATM   24  C2  UNK     1      17.938  -0.230  35.442  1.00  0.00    -0.006 A 
HETATM   25  C4  UNK     1      18.614  -1.261  36.105  1.00  0.00     0.083 A 
HETATM   26  C7  UNK     1      17.187   0.684  36.195  1.00  0.00     0.011 A 
HETATM   27  O1  UNK     1      19.388  -2.195  35.458  1.00  0.00    -0.310 OA
HETATM   28  C9  UNK     1      18.528  -1.386  37.493  1.00  0.00     0.038 A 
HETATM   29  C5  UNK     1      19.666  -2.002  34.125  1.00  0.00     0.083 A 
HETATM   30  C10 UNK     1      20.618  -2.858  33.563  1.00  0.00     0.038 A 
HETATM   31  C3  UNK     1      19.052  -1.016  33.345  1.00  0.00    -0.006 A 
HETATM   32  C14 UNK     1      20.971  -2.726  32.222  1.00  0.00     0.003 A 
HETATM   33  C12 UNK     1      20.372  -1.741  31.439  1.00  0.00     0.001 A 
HETATM   34  C8  UNK     1      19.418  -0.891  31.997  1.00  0.00     0.011 A 
HETATM   35  C13 UNK     1      17.776  -0.474  38.232  1.00  0.00     0.003 A 
HETATM   36  C11 UNK     1      17.107   0.562  37.583  1.00  0.00     0.001 A 
ENDBRANCH   3  23
TORSDOF 5
ENDMDL
MODEL 3
REMARK VINA RESULT:     -10.8      5.423     12.673
REMARK  5 active torsions:
REMARK  status: ('A' for Active; 'I' for Inactive)
REMARK       I    between atoms: C6_14  and  N1_6 
REMARK    1  A    between atoms: N1_6  and  N2_7 
REMARK    2  A    between atoms: C22_30  and  N2_7 
REMARK    3  A    between atoms: C17_25  and  N3_8 
REMARK    4  A    between atoms: C22_30  and  N3_8 
REMARK    5  A    between atoms: C1_9  and  C6_14 
ROOT
HETATM    1  O2  UNK     1      19.034   2.098  34.845  1.00  0.00    -0.271 OA
HETATM    2  N1  UNK     1      17.664   2.148  32.968  1.00  0.00    -0.267 N 
HETATM    3  C6  UNK     1      18.320   1.536  34.019  1.00  0.00     0.249 C 
HETATM    4  H10 UNK     1      16.990   1.674  32.377  1.00  0.00     0.190 HD
ENDROOT
BRANCH   2   5
HETATM    5  N2  UNK     1      17.801   3.506  32.799  1.00  0.00    -0.274 N 
HETATM    6  H11 UNK     1      17.522   4.092  33.579  1.00  0.00     0.189 HD
BRANCH   5   7
HETATM    7  C22 UNK     1      18.276   4.054  31.613  1.00  0.00     0.191 C 
HETATM    8  S1  UNK     1      18.447   3.014  30.310  1.00  0.00    -0.039 SA
BRANCH   7   9
HETATM    9  N3  UNK     1      18.514   5.424  31.686  1.00  0.00    -0.332 N 
HETATM   10  H15 UNK     1      19.397   5.708  31.268  1.00  0.00     0.168 HD
BRANCH   9  11
HETATM   11  C17 UNK     1      17.747   6.519  32.154  1.00  0.00     0.037 A 
HETATM   12  C19 UNK     1      18.390   7.633  32.651  1.00  0.00     0.067 A 
HETATM   13  C16 UNK     1      17.614   8.702  33.105  1.00  0.00     0.092 A 
HETATM   14  C15 UNK     1      16.219   8.677  33.072  1.00  0.00     0.004 A 
HETATM   15  O3  UNK     1      18.311   9.820  33.606  1.00  0.00    -0.275 OA
HETATM   16  C18 UNK     1      15.482   9.845  33.570  1.00  0.00    -0.043 A 
HETATM   17  C20 UNK     1      15.602   7.528  32.559  1.00  0.00     0.017 A 
HETATM   18  C23 UNK     1      16.170  10.894  34.040  1.00  0.00     0.090 A 
HETATM   19  C24 UNK     1      13.981   9.850  33.547  1.00  0.00     0.049 C 
HETATM   20  C25 UNK     1      17.642  10.936  34.083  1.00  0.00     0.288 A 
HETATM   21  O4  UNK     1      18.238  11.915  34.520  1.00  0.00    -0.260 OA
HETATM   22  C21 UNK     1      16.367   6.449  32.099  1.00  0.00     0.030 A 
ENDBRANCH   9  11
ENDBRANCH   7   9
ENDBRANCH   5   7
ENDBRANCH   2   5
BRANCH   3  23
HETATM   23  C1  UNK     1      18.045   0.062  34.082  1.00  0.00     0.151 C 
HETATM   24  C2  UNK     1      18.121  -0.422  35.507  1.00  0.00    -0.006 A 
HETATM   25  C4  UNK     1      18.814  -1.596  35.823  1.00  0.00     0.083 A 
HETATM   26  C7  UNK     1      17.485   0.289  36.535  1.00  0.00     0.011 A 
HETATM   27  O1  UNK     1      19.482  -2.353  34.890  1.00  0.00    -0.310 OA
HETATM   28  C9  UNK     1      18.858  -2.060  37.140  1.00  0.00     0.038 A 
HETATM   29  C5  UNK     1      19.638  -1.841  33.624  1.00  0.00     0.083 A 
HETATM   30  C10 UNK     1      20.495  -2.546  32.773  1.00  0.00     0.038 A 
HETATM   31  C3  UNK     1      18.993  -0.682  33.177  1.00  0.00    -0.006 A 
HETATM   32  C14 UNK     1      20.722  -2.092  31.477  1.00  0.00     0.003 A 
HETATM   33  C12 UNK     1      20.092  -0.933  31.025  1.00  0.00     0.001 A 
HETATM   34  C8  UNK     1      19.233  -0.232  31.871  1.00  0.00     0.011 A 
HETATM   35  C13 UNK     1      18.219  -1.348  38.153  1.00  0.00     0.003 A 
HETATM   36  C11 UNK     1      17.534  -0.172  37.852  1.00  0.00     0.001 A 
ENDBRANCH   3  23
TORSDOF 5
ENDMDL
MODEL 4
REMARK VINA RESULT:     -10.8      2.029      9.539
REMARK  5 active torsions:
REMARK  status: ('A' for Active; 'I' for Inactive)
REMARK       I    between atoms: C6_14  and  N1_6 
REMARK    1  A    between atoms: N1_6  and  N2_7 
REMARK    2  A    between atoms: C22_30  and  N2_7 
REMARK    3  A    between atoms: C17_25  and  N3_8 
REMARK    4  A    between atoms: C22_30  and  N3_8 
REMARK    5  A    between atoms: C1_9  and  C6_14 
ROOT
HETATM    1  O2  UNK     1      20.557  -4.530  35.802  1.00  0.00    -0.271 OA
HETATM    2  N1  UNK     1      19.821  -3.280  37.617  1.00  0.00    -0.267 N 
HETATM    3  C6  UNK     1      20.127  -4.450  36.950  1.00  0.00     0.249 C 
HETATM    4  H10 UNK     1      19.581  -3.245  38.602  1.00  0.00     0.190 HD
ENDROOT
BRANCH   2   5
HETATM    5  N2  UNK     1      20.000  -2.079  36.972  1.00  0.00    -0.274 N 
HETATM    6  H11 UNK     1      20.895  -1.620  37.103  1.00  0.00     0.189 HD
BRANCH   5   7
HETATM    7  C22 UNK     1      18.998  -1.506  36.196  1.00  0.00     0.191 C 
HETATM    8  S1  UNK     1      18.115  -0.263  36.893  1.00  0.00    -0.039 SA
BRANCH   7   9
HETATM    9  N3  UNK     1      18.900  -2.049  34.919  1.00  0.00    -0.332 N 
HETATM   10  H15 UNK     1      18.465  -2.968  34.897  1.00  0.00     0.168 HD
BRANCH   9  11
HETATM   11  C17 UNK     1      19.211  -1.555  33.627  1.00  0.00     0.037 A 
HETATM   12  C19 UNK     1      18.655  -0.366  33.205  1.00  0.00     0.067 A 
HETATM   13  C16 UNK     1      18.976   0.102  31.929  1.00  0.00     0.092 A 
HETATM   14  C15 UNK     1      19.835  -0.590  31.076  1.00  0.00     0.004 A 
HETATM   15  O3  UNK     1      18.386   1.321  31.538  1.00  0.00    -0.275 OA
HETATM   16  C18 UNK     1      20.118  -0.025  29.750  1.00  0.00    -0.043 A 
HETATM   17  C20 UNK     1      20.381  -1.795  31.540  1.00  0.00     0.017 A 
HETATM   18  C23 UNK     1      19.543   1.136  29.405  1.00  0.00     0.090 A 
HETATM   19  C24 UNK     1      21.038  -0.745  28.809  1.00  0.00     0.049 C 
HETATM   20  C25 UNK     1      18.634   1.879  30.294  1.00  0.00     0.288 A 
HETATM   21  O4  UNK     1      18.126   2.939  29.943  1.00  0.00    -0.260 OA
HETATM   22  C21 UNK     1      20.069  -2.277  32.817  1.00  0.00     0.030 A 
ENDBRANCH   9  11
ENDBRANCH   7   9
ENDBRANCH   5   7
ENDBRANCH   2   5
BRANCH   3  23
HETATM   23  C1  UNK     1      19.906  -5.667  37.799  1.00  0.00     0.151 C 
HETATM   24  C2  UNK     1      21.228  -6.268  38.203  1.00  0.00    -0.006 A 
HETATM   25  C4  UNK     1      21.437  -7.649  38.115  1.00  0.00     0.083 A 
HETATM   26  C7  UNK     1      22.262  -5.454  38.687  1.00  0.00     0.011 A 
HETATM   27  O1  UNK     1      20.493  -8.527  37.639  1.00  0.00    -0.310 OA
HETATM   28  C9  UNK     1      22.651  -8.208  38.519  1.00  0.00     0.038 A 
HETATM   29  C5  UNK     1      19.363  -8.014  37.047  1.00  0.00     0.083 A 
HETATM   30  C10 UNK     1      18.534  -8.934  36.397  1.00  0.00     0.038 A 
HETATM   31  C3  UNK     1      19.030  -6.655  37.072  1.00  0.00    -0.006 A 
HETATM   32  C14 UNK     1      17.375  -8.499  35.759  1.00  0.00     0.003 A 
HETATM   33  C12 UNK     1      17.039  -7.147  35.770  1.00  0.00     0.001 A 
HETATM   34  C8  UNK     1      17.862  -6.230  36.423  1.00  0.00     0.011 A 
HETATM   35  C13 UNK     1      23.670  -7.390  39.003  1.00  0.00     0.003 A 
HETATM   36  C11 UNK     1      23.477  -6.013  39.085  1.00  0.00     0.001 A 
ENDBRANCH   3  23
TORSDOF 5
ENDMDL
MODEL 5
REMARK VINA RESULT:     -10.7      9.741     12.245
REMARK  5 active torsions:
REMARK  status: ('A' for Active; 'I' for Inactive)
REMARK       I    between atoms: C6_14  and  N1_6 
REMARK    1  A    between atoms: N1_6  and  N2_7 
REMARK    2  A    between atoms: C22_30  and  N2_7 
REMARK    3  A    between atoms: C17_25  and  N3_8 
REMARK    4  A    between atoms: C22_30  and  N3_8 
REMARK    5  A    between atoms: C1_9  and  C6_14 
ROOT
HETATM    1  O2  UNK     1      29.661  -6.166  34.406  1.00  0.00    -0.271 OA
HETATM    2  N1  UNK     1      31.751  -5.517  33.625  1.00  0.00    -0.267 N 
HETATM    3  C6  UNK     1      30.628  -6.319  33.664  1.00  0.00     0.249 C 
HETATM    4  H10 UNK     1      32.476  -5.603  32.920  1.00  0.00     0.190 HD
ENDROOT
BRANCH   2   5
HETATM    5  N2  UNK     1      31.831  -4.441  34.478  1.00  0.00    -0.274 N 
HETATM    6  H11 UNK     1      31.127  -3.719  34.367  1.00  0.00     0.189 HD
BRANCH   5   7
HETATM    7  C22 UNK     1      32.838  -4.333  35.431  1.00  0.00     0.191 C 
HETATM    8  S1  UNK     1      34.342  -3.827  34.893  1.00  0.00    -0.039 SA
BRANCH   7   9
HETATM    9  N3  UNK     1      32.420  -4.642  36.723  1.00  0.00    -0.332 N 
HETATM   10  H15 UNK     1      32.942  -4.156  37.448  1.00  0.00     0.168 HD
BRANCH   9  11
HETATM   11  C17 UNK     1      31.365  -5.435  37.238  1.00  0.00     0.037 A 
HETATM   12  C19 UNK     1      30.140  -4.853  37.487  1.00  0.00     0.067 A 
HETATM   13  C16 UNK     1      29.114  -5.653  37.994  1.00  0.00     0.092 A 
HETATM   14  C15 UNK     1      29.290  -7.012  38.255  1.00  0.00     0.004 A 
HETATM   15  O3  UNK     1      27.879  -5.019  38.233  1.00  0.00    -0.275 OA
HETATM   16  C18 UNK     1      28.157  -7.779  38.788  1.00  0.00    -0.043 A 
HETATM   17  C20 UNK     1      30.549  -7.568  37.990  1.00  0.00     0.017 A 
HETATM   18  C23 UNK     1      26.993  -7.150  39.006  1.00  0.00     0.090 A 
HETATM   19  C24 UNK     1      28.313  -9.243  39.079  1.00  0.00     0.049 C 
HETATM   20  C25 UNK     1      26.792  -5.717  38.736  1.00  0.00     0.288 A 
HETATM   21  O4  UNK     1      25.712  -5.175  38.947  1.00  0.00    -0.260 OA
HETATM   22  C21 UNK     1      31.587  -6.778  37.481  1.00  0.00     0.030 A 
ENDBRANCH   9  11
ENDBRANCH   7   9
ENDBRANCH   5   7
ENDBRANCH   2   5
BRANCH   3  23
HETATM   23  C1  UNK     1      30.683  -7.428  32.655  1.00  0.00     0.151 C 
HETATM   24  C2  UNK     1      29.447  -7.408  31.791  1.00  0.00    -0.006 A 
HETATM   25  C4  UNK     1      28.758  -8.593  31.510  1.00  0.00     0.083 A 
HETATM   26  C7  UNK     1      28.980  -6.204  31.245  1.00  0.00     0.011 A 
HETATM   27  O1  UNK     1      29.127  -9.819  32.011  1.00  0.00    -0.310 OA
HETATM   28  C9  UNK     1      27.631  -8.578  30.685  1.00  0.00     0.038 A 
HETATM   29  C5  UNK     1      30.102  -9.862  32.980  1.00  0.00     0.083 A 
HETATM   30  C10 UNK     1      30.298 -11.098  33.604  1.00  0.00     0.038 A 
HETATM   31  C3  UNK     1      30.871  -8.753  33.348  1.00  0.00    -0.006 A 
HETATM   32  C14 UNK     1      31.256 -11.230  34.606  1.00  0.00     0.003 A 
HETATM   33  C12 UNK     1      32.021 -10.129  34.987  1.00  0.00     0.001 A 
HETATM   34  C8  UNK     1      31.830  -8.897  34.361  1.00  0.00     0.011 A 
HETATM   35  C13 UNK     1      27.177  -7.377  30.144  1.00  0.00     0.003 A 
HETATM   36  C11 UNK     1      27.850  -6.189  30.426  1.00  0.00     0.001 A 
ENDBRANCH   3  23
TORSDOF 5
ENDMDL
MODEL 6
REMARK VINA RESULT:     -10.7     10.129     12.860
REMARK  5 active torsions:
REMARK  status: ('A' for Active; 'I' for Inactive)
REMARK       I    between atoms: C6_14  and  N1_6 
REMARK    1  A    between atoms: N1_6  and  N2_7 
REMARK    2  A    between atoms: C22_30  and  N2_7 
REMARK    3  A    between atoms: C17_25  and  N3_8 
REMARK    4  A    between atoms: C22_30  and  N3_8 
REMARK    5  A    between atoms: C1_9  and  C6_14 
ROOT
HETATM    1  O2  UNK     1      32.082  -7.238  37.212  1.00  0.00    -0.271 OA
HETATM    2  N1  UNK     1      30.402  -6.482  35.797  1.00  0.00    -0.267 N 
HETATM    3  C6  UNK     1      31.038  -7.416  36.591  1.00  0.00     0.249 C 
HETATM    4  H10 UNK     1      29.482  -6.625  35.394  1.00  0.00     0.190 HD
ENDROOT
BRANCH   2   5
HETATM    5  N2  UNK     1      30.958  -5.231  35.664  1.00  0.00    -0.274 N 
HETATM    6  H11 UNK     1      30.750  -4.561  36.397  1.00  0.00     0.189 HD
BRANCH   5   7
HETATM    7  C22 UNK     1      31.747  -4.891  34.571  1.00  0.00     0.191 C 
HETATM    8  S1  UNK     1      33.396  -4.754  34.838  1.00  0.00    -0.039 SA
BRANCH   7   9
HETATM    9  N3  UNK     1      31.029  -4.740  33.389  1.00  0.00    -0.332 N 
HETATM   10  H15 UNK     1      30.932  -3.773  33.089  1.00  0.00     0.168 HD
BRANCH   9  11
HETATM   11  C17 UNK     1      30.467  -5.661  32.470  1.00  0.00     0.037 A 
HETATM   12  C19 UNK     1      31.251  -6.164  31.452  1.00  0.00     0.067 A 
HETATM   13  C16 UNK     1      30.677  -7.071  30.558  1.00  0.00     0.092 A 
HETATM   14  C15 UNK     1      29.348  -7.481  30.663  1.00  0.00     0.004 A 
HETATM   15  O3  UNK     1      31.512  -7.561  29.533  1.00  0.00    -0.275 OA
HETATM   16  C18 UNK     1      28.826  -8.439  29.679  1.00  0.00    -0.043 A 
HETATM   17  C20 UNK     1      28.584  -6.948  31.710  1.00  0.00     0.017 A 
HETATM   18  C23 UNK     1      29.643  -8.888  28.715  1.00  0.00     0.090 A 
HETATM   19  C24 UNK     1      27.400  -8.900  29.764  1.00  0.00     0.049 C 
HETATM   20  C25 UNK     1      31.048  -8.465  28.592  1.00  0.00     0.288 A 
HETATM   21  O4  UNK     1      31.766  -8.898  27.696  1.00  0.00    -0.260 OA
HETATM   22  C21 UNK     1      29.145  -6.038  32.614  1.00  0.00     0.030 A 
ENDBRANCH   9  11
ENDBRANCH   7   9
ENDBRANCH   5   7
ENDBRANCH   2   5
BRANCH   3  23
HETATM   23  C1  UNK     1      30.291  -8.716  36.654  1.00  0.00     0.151 C 
HETATM   24  C2  UNK     1      30.108  -9.280  35.269  1.00  0.00    -0.006 A 
HETATM   25  C4  UNK     1      28.867  -9.787  34.867  1.00  0.00     0.083 A 
HETATM   26  C7  UNK     1      31.182  -9.319  34.368  1.00  0.00     0.011 A 
HETATM   27  O1  UNK     1      27.751  -9.779  35.670  1.00  0.00    -0.310 OA
HETATM   28  C9  UNK     1      28.706 -10.337  33.593  1.00  0.00     0.038 A 
HETATM   29  C5  UNK     1      27.801  -9.075  36.850  1.00  0.00     0.083 A 
HETATM   30  C10 UNK     1      26.589  -8.923  37.530  1.00  0.00     0.038 A 
HETATM   31  C3  UNK     1      28.979  -8.526  37.370  1.00  0.00    -0.006 A 
HETATM   32  C14 UNK     1      26.545  -8.212  38.727  1.00  0.00     0.003 A 
HETATM   33  C12 UNK     1      27.710  -7.654  39.250  1.00  0.00     0.001 A 
HETATM   34  C8  UNK     1      28.921  -7.810  38.575  1.00  0.00     0.011 A 
HETATM   35  C13 UNK     1      29.781 -10.375  32.707  1.00  0.00     0.003 A 
HETATM   36  C11 UNK     1      31.018  -9.864  33.093  1.00  0.00     0.001 A 
ENDBRANCH   3  23
TORSDOF 5
ENDMDL
MODEL 7
REMARK VINA RESULT:     -10.5     10.465     13.355
REMARK  5 active torsions:
REMARK  status: ('A' for Active; 'I' for Inactive)
REMARK       I    between atoms: C6_14  and  N1_6 
REMARK    1  A    between atoms: N1_6  and  N2_7 
REMARK    2  A    between atoms: C22_30  and  N2_7 
REMARK    3  A    between atoms: C17_25  and  N3_8 
REMARK    4  A    between atoms: C22_30  and  N3_8 
REMARK    5  A    between atoms: C1_9  and  C6_14 
ROOT
HETATM    1  O2  UNK     1      33.014  -9.308  32.646  1.00  0.00    -0.271 OA
HETATM    2  N1  UNK     1      31.431  -7.848  33.520  1.00  0.00    -0.267 N 
HETATM    3  C6  UNK     1      32.604  -8.577  33.544  1.00  0.00     0.249 C 
HETATM    4  H10 UNK     1      31.183  -7.165  34.227  1.00  0.00     0.190 HD
ENDROOT
BRANCH   2   5
HETATM    5  N2  UNK     1      30.623  -7.925  32.410  1.00  0.00    -0.274 N 
HETATM    6  H11 UNK     1      31.066  -8.212  31.544  1.00  0.00     0.189 HD
BRANCH   5   7
HETATM    7  C22 UNK     1      29.271  -7.602  32.462  1.00  0.00     0.191 C 
HETATM    8  S1  UNK     1      28.743  -6.378  31.446  1.00  0.00    -0.039 SA
BRANCH   7   9
HETATM    9  N3  UNK     1      28.544  -8.386  33.353  1.00  0.00    -0.332 N 
HETATM   10  H15 UNK     1      28.103  -9.194  32.921  1.00  0.00     0.168 HD
BRANCH   9  11
HETATM   11  C17 UNK     1      28.351  -8.336  34.756  1.00  0.00     0.037 A 
HETATM   12  C19 UNK     1      28.650  -7.177  35.440  1.00  0.00     0.067 A 
HETATM   13  C16 UNK     1      28.451  -7.150  36.822  1.00  0.00     0.092 A 
HETATM   14  C15 UNK     1      27.964  -8.252  37.526  1.00  0.00     0.004 A 
HETATM   15  O3  UNK     1      28.769  -5.946  37.482  1.00  0.00    -0.275 OA
HETATM   16  C18 UNK     1      27.785  -8.136  38.979  1.00  0.00    -0.043 A 
HETATM   17  C20 UNK     1      27.671  -9.412  36.796  1.00  0.00     0.017 A 
HETATM   18  C23 UNK     1      28.096  -6.979  39.581  1.00  0.00     0.090 A 
HETATM   19  C24 UNK     1      27.262  -9.303  39.765  1.00  0.00     0.049 C 
HETATM   20  C25 UNK     1      28.611  -5.808  38.852  1.00  0.00     0.288 A 
HETATM   21  O4  UNK     1      28.884  -4.765  39.437  1.00  0.00    -0.260 OA
HETATM   22  C21 UNK     1      27.865  -9.454  35.410  1.00  0.00     0.030 A 
ENDBRANCH   9  11
ENDBRANCH   7   9
ENDBRANCH   5   7
ENDBRANCH   2   5
BRANCH   3  23
HETATM   23  C1  UNK     1      33.384  -8.363  34.808  1.00  0.00     0.151 C 
HETATM   24  C2  UNK     1      32.577  -8.810  36.000  1.00  0.00    -0.006 A 
HETATM   25  C4  UNK     1      32.501  -8.010  37.146  1.00  0.00     0.083 A 
HETATM   26  C7  UNK     1      31.905 -10.040  35.984  1.00  0.00     0.011 A 
HETATM   27  O1  UNK     1      33.111  -6.783  37.254  1.00  0.00    -0.310 OA
HETATM   28  C9  UNK     1      31.779  -8.440  38.262  1.00  0.00     0.038 A 
HETATM   29  C5  UNK     1      33.664  -6.228  36.124  1.00  0.00     0.083 A 
HETATM   30  C10 UNK     1      34.086  -4.899  36.232  1.00  0.00     0.038 A 
HETATM   31  C3  UNK     1      33.810  -6.921  34.917  1.00  0.00    -0.006 A 
HETATM   32  C14 UNK     1      34.646  -4.253  35.133  1.00  0.00     0.003 A 
HETATM   33  C12 UNK     1      34.788  -4.931  33.924  1.00  0.00     0.001 A 
HETATM   34  C8  UNK     1      34.372  -6.258  33.817  1.00  0.00     0.011 A 
HETATM   35  C13 UNK     1      31.118  -9.666  38.236  1.00  0.00     0.003 A 
HETATM   36  C11 UNK     1      31.178 -10.466  37.097  1.00  0.00     0.001 A 
ENDBRANCH   3  23
TORSDOF 5
ENDMDL
MODEL 8
REMARK VINA RESULT:     -10.4     10.107     12.294
REMARK  5 active torsions:
REMARK  status: ('A' for Active; 'I' for Inactive)
REMARK       I    between atoms: C6_14  and  N1_6 
REMARK    1  A    between atoms: N1_6  and  N2_7 
REMARK    2  A    between atoms: C22_30  and  N2_7 
REMARK    3  A    between atoms: C17_25  and  N3_8 
REMARK    4  A    between atoms: C22_30  and  N3_8 
REMARK    5  A    between atoms: C1_9  and  C6_14 
ROOT
HETATM    1  O2  UNK     1      29.549  -6.064  34.339  1.00  0.00    -0.271 OA
HETATM    2  N1  UNK     1      31.621  -5.370  33.551  1.00  0.00    -0.267 N 
HETATM    3  C6  UNK     1      30.522  -6.204  33.604  1.00  0.00     0.249 C 
HETATM    4  H10 UNK     1      32.351  -5.450  32.851  1.00  0.00     0.190 HD
ENDROOT
BRANCH   2   5
HETATM    5  N2  UNK     1      31.666  -4.274  34.382  1.00  0.00    -0.274 N 
HETATM    6  H11 UNK     1      31.003  -3.531  34.190  1.00  0.00     0.189 HD
BRANCH   5   7
HETATM    7  C22 UNK     1      32.587  -4.176  35.418  1.00  0.00     0.191 C 
HETATM    8  S1  UNK     1      34.168  -3.808  34.998  1.00  0.00    -0.039 SA
BRANCH   7   9
HETATM    9  N3  UNK     1      32.033  -4.375  36.679  1.00  0.00    -0.332 N 
HETATM   10  H15 UNK     1      32.245  -3.633  37.342  1.00  0.00     0.168 HD
BRANCH   9  11
HETATM   11  C17 UNK     1      31.166  -5.360  37.214  1.00  0.00     0.037 A 
HETATM   12  C19 UNK     1      31.637  -6.642  37.410  1.00  0.00     0.067 A 
HETATM   13  C16 UNK     1      30.766  -7.597  37.939  1.00  0.00     0.092 A 
HETATM   14  C15 UNK     1      29.446  -7.296  38.273  1.00  0.00     0.004 A 
HETATM   15  O3  UNK     1      31.288  -8.893  38.122  1.00  0.00    -0.275 OA
HETATM   16  C18 UNK     1      28.599  -8.362  38.824  1.00  0.00    -0.043 A 
HETATM   17  C20 UNK     1      29.004  -5.984  38.060  1.00  0.00     0.017 A 
HETATM   18  C23 UNK     1      29.121  -9.586  38.988  1.00  0.00     0.090 A 
HETATM   19  C24 UNK     1      27.174  -8.072  39.195  1.00  0.00     0.049 C 
HETATM   20  C25 UNK     1      30.513  -9.919  38.640  1.00  0.00     0.288 A 
HETATM   21  O4  UNK     1      30.956 -11.051  38.805  1.00  0.00    -0.260 OA
HETATM   22  C21 UNK     1      29.865  -5.015  37.531  1.00  0.00     0.030 A 
ENDBRANCH   9  11
ENDBRANCH   7   9
ENDBRANCH   5   7
ENDBRANCH   2   5
BRANCH   3  23
HETATM   23  C1  UNK     1      30.613  -7.332  32.619  1.00  0.00     0.151 C 
HETATM   24  C2  UNK     1      29.382  -7.367  31.751  1.00  0.00    -0.006 A 
HETATM   25  C4  UNK     1      28.728  -8.577  31.492  1.00  0.00     0.083 A 
HETATM   26  C7  UNK     1      28.882  -6.189  31.177  1.00  0.00     0.011 A 
HETATM   27  O1  UNK     1      29.131  -9.781  32.020  1.00  0.00    -0.310 OA
HETATM   28  C9  UNK     1      27.605  -8.612  30.662  1.00  0.00     0.038 A 
HETATM   29  C5  UNK     1      30.102  -9.774  32.994  1.00  0.00     0.083 A 
HETATM   30  C10 UNK     1      30.331 -10.991  33.645  1.00  0.00     0.038 A 
HETATM   31  C3  UNK     1      30.837  -8.636  33.341  1.00  0.00    -0.006 A 
HETATM   32  C14 UNK     1      31.287 -11.073  34.653  1.00  0.00     0.003 A 
HETATM   33  C12 UNK     1      32.019  -9.943  35.014  1.00  0.00     0.001 A 
HETATM   34  C8  UNK     1      31.795  -8.731  34.361  1.00  0.00     0.011 A 
HETATM   35  C13 UNK     1      27.120  -7.436  30.094  1.00  0.00     0.003 A 
HETATM   36  C11 UNK     1      27.756  -6.223  30.353  1.00  0.00     0.001 A 
ENDBRANCH   3  23
TORSDOF 5
ENDMDL
MODEL 9
REMARK VINA RESULT:     -10.4     10.473     12.603
REMARK  5 active torsions:
REMARK  status: ('A' for Active; 'I' for Inactive)
REMARK       I    between atoms: C6_14  and  N1_6 
REMARK    1  A    between atoms: N1_6  and  N2_7 
REMARK    2  A    between atoms: C22_30  and  N2_7 
REMARK    3  A    between atoms: C17_25  and  N3_8 
REMARK    4  A    between atoms: C22_30  and  N3_8 
REMARK    5  A    between atoms: C1_9  and  C6_14 
ROOT
HETATM    1  O2  UNK     1      30.823 -11.493  34.465  1.00  0.00    -0.271 OA
HETATM    2  N1  UNK     1      31.740  -9.604  33.471  1.00  0.00    -0.267 N 
HETATM    3  C6  UNK     1      30.748 -10.538  33.698  1.00  0.00     0.249 C 
HETATM    4  H10 UNK     1      31.601  -8.763  32.921  1.00  0.00     0.190 HD
ENDROOT
BRANCH   2   5
HETATM    5  N2  UNK     1      32.933  -9.723  34.145  1.00  0.00    -0.274 N 
HETATM    6  H11 UNK     1      33.384 -10.632  34.115  1.00  0.00     0.189 HD
BRANCH   5   7
HETATM    7  C22 UNK     1      33.485  -8.662  34.853  1.00  0.00     0.191 C 
HETATM    8  S1  UNK     1      34.384  -7.550  33.978  1.00  0.00    -0.039 SA
BRANCH   7   9
HETATM    9  N3  UNK     1      33.174  -8.673  36.210  1.00  0.00    -0.332 N 
HETATM   10  H15 UNK     1      33.982  -8.796  36.814  1.00  0.00     0.168 HD
BRANCH   9  11
HETATM   11  C17 UNK     1      31.971  -8.470  36.931  1.00  0.00     0.037 A 
HETATM   12  C19 UNK     1      31.559  -7.184  37.211  1.00  0.00     0.067 A 
HETATM   13  C16 UNK     1      30.370  -7.007  37.923  1.00  0.00     0.092 A 
HETATM   14  C15 UNK     1      29.594  -8.083  38.356  1.00  0.00     0.004 A 
HETATM   15  O3  UNK     1      29.985  -5.677  38.188  1.00  0.00    -0.275 OA
HETATM   16  C18 UNK     1      28.358  -7.805  39.099  1.00  0.00    -0.043 A 
HETATM   17  C20 UNK     1      30.046  -9.374  38.052  1.00  0.00     0.017 A 
HETATM   18  C23 UNK     1      28.016  -6.531  39.336  1.00  0.00     0.090 A 
HETATM   19  C24 UNK     1      27.500  -8.940  39.577  1.00  0.00     0.049 C 
HETATM   20  C25 UNK     1      28.825  -5.385  38.886  1.00  0.00     0.288 A 
HETATM   21  O4  UNK     1      28.480  -4.232  39.122  1.00  0.00    -0.260 OA
HETATM   22  C21 UNK     1      31.235  -9.567  37.339  1.00  0.00     0.030 A 
ENDBRANCH   9  11
ENDBRANCH   7   9
ENDBRANCH   5   7
ENDBRANCH   2   5
BRANCH   3  23
HETATM   23  C1  UNK     1      29.503 -10.251  32.910  1.00  0.00     0.151 C 
HETATM   24  C2  UNK     1      29.779 -10.379  31.434  1.00  0.00    -0.006 A 
HETATM   25  C4  UNK     1      29.316  -9.409  30.538  1.00  0.00     0.083 A 
HETATM   26  C7  UNK     1      30.490 -11.480  30.936  1.00  0.00     0.011 A 
HETATM   27  O1  UNK     1      28.624  -8.288  30.929  1.00  0.00    -0.310 OA
HETATM   28  C9  UNK     1      29.545  -9.545  29.167  1.00  0.00     0.038 A 
HETATM   29  C5  UNK     1      28.544  -8.006  32.273  1.00  0.00     0.083 A 
HETATM   30  C10 UNK     1      28.015  -6.756  32.611  1.00  0.00     0.038 A 
HETATM   31  C3  UNK     1      28.961  -8.892  33.272  1.00  0.00    -0.006 A 
HETATM   32  C14 UNK     1      27.909  -6.382  33.948  1.00  0.00     0.003 A 
HETATM   33  C12 UNK     1      28.330  -7.253  34.951  1.00  0.00     0.001 A 
HETATM   34  C8  UNK     1      28.853  -8.502  34.614  1.00  0.00     0.011 A 
HETATM   35  C13 UNK     1      30.249 -10.645  28.682  1.00  0.00     0.003 A 
HETATM   36  C11 UNK     1      30.724 -11.612  29.566  1.00  0.00     0.001 A 
ENDBRANCH   3  23
TORSDOF 5
ENDMDL
MODEL 10
REMARK VINA RESULT:     -10.3     10.655     13.846
REMARK  5 active torsions:
REMARK  status: ('A' for Active; 'I' for Inactive)
REMARK       I    between atoms: C6_14  and  N1_6 
REMARK    1  A    between atoms: N1_6  and  N2_7 
REMARK    2  A    between atoms: C22_30  and  N2_7 
REMARK    3  A    between atoms: C17_25  and  N3_8 
REMARK    4  A    between atoms: C22_30  and  N3_8 
REMARK    5  A    between atoms: C1_9  and  C6_14 
ROOT
HETATM    1  O2  UNK     1      33.967  -7.310  33.363  1.00  0.00    -0.271 OA
HETATM    2  N1  UNK     1      33.395  -8.523  35.261  1.00  0.00    -0.267 N 
HETATM    3  C6  UNK     1      33.249  -8.116  33.949  1.00  0.00     0.249 C 
HETATM    4  H10 UNK     1      32.858  -9.276  35.676  1.00  0.00     0.190 HD
ENDROOT
BRANCH   2   5
HETATM    5  N2  UNK     1      34.424  -8.000  36.009  1.00  0.00    -0.274 N 
HETATM    6  H11 UNK     1      35.336  -8.428  35.891  1.00  0.00     0.189 HD
BRANCH   5   7
HETATM    7  C22 UNK     1      34.224  -6.953  36.902  1.00  0.00     0.191 C 
HETATM    8  S1  UNK     1      34.929  -5.481  36.518  1.00  0.00    -0.039 SA
BRANCH   7   9
HETATM    9  N3  UNK     1      33.424  -7.291  37.990  1.00  0.00    -0.332 N 
HETATM   10  H15 UNK     1      33.930  -7.334  38.871  1.00  0.00     0.168 HD
BRANCH   9  11
HETATM   11  C17 UNK     1      32.032  -7.512  38.140  1.00  0.00     0.037 A 
HETATM   12  C19 UNK     1      31.188  -6.432  38.288  1.00  0.00     0.067 A 
HETATM   13  C16 UNK     1      29.820  -6.674  38.434  1.00  0.00     0.092 A 
HETATM   14  C15 UNK     1      29.287  -7.963  38.434  1.00  0.00     0.004 A 
HETATM   15  O3  UNK     1      28.992  -5.543  38.583  1.00  0.00    -0.275 OA
HETATM   16  C18 UNK     1      27.836  -8.125  38.594  1.00  0.00    -0.043 A 
HETATM   17  C20 UNK     1      30.177  -9.034  38.281  1.00  0.00     0.017 A 
HETATM   18  C23 UNK     1      27.072  -7.032  38.733  1.00  0.00     0.090 A 
HETATM   19  C24 UNK     1      27.231  -9.499  38.597  1.00  0.00     0.049 C 
HETATM   20  C25 UNK     1      27.620  -5.665  38.735  1.00  0.00     0.288 A 
HETATM   21  O4  UNK     1      26.890  -4.688  38.864  1.00  0.00    -0.260 OA
HETATM   22  C21 UNK     1      31.550  -8.809  38.134  1.00  0.00     0.030 A 
ENDBRANCH   9  11
ENDBRANCH   7   9
ENDBRANCH   5   7
ENDBRANCH   2   5
BRANCH   3  23
HETATM   23  C1  UNK     1      32.102  -8.799  33.264  1.00  0.00     0.151 C 
HETATM   24  C2  UNK     1      30.799  -8.412  33.917  1.00  0.00    -0.006 A 
HETATM   25  C4  UNK     1      29.839  -9.384  34.217  1.00  0.00     0.083 A 
HETATM   26  C7  UNK     1      30.525  -7.070  34.218  1.00  0.00     0.011 A 
HETATM   27  O1  UNK     1      30.020 -10.725  33.975  1.00  0.00    -0.310 OA
HETATM   28  C9  UNK     1      28.620  -9.020  34.793  1.00  0.00     0.038 A 
HETATM   29  C5  UNK     1      31.269 -11.157  33.596  1.00  0.00     0.083 A 
HETATM   30  C10 UNK     1      31.458 -12.543  33.562  1.00  0.00     0.038 A 
HETATM   31  C3  UNK     1      32.314 -10.291  33.259  1.00  0.00    -0.006 A 
HETATM   32  C14 UNK     1      32.697 -13.069  33.202  1.00  0.00     0.003 A 
HETATM   33  C12 UNK     1      33.747 -12.214  32.873  1.00  0.00     0.001 A 
HETATM   34  C8  UNK     1      33.557 -10.833  32.901  1.00  0.00     0.011 A 
HETATM   35  C13 UNK     1      28.356  -7.683  35.085  1.00  0.00     0.003 A 
HETATM   36  C11 UNK     1      29.309  -6.708  34.800  1.00  0.00     0.001 A 
ENDBRANCH   3  23
TORSDOF 5
ENDMDL
