MODEL 1
REMARK VINA RESULT:      -8.5      0.000      0.000
REMARK  4 active torsions:
REMARK  status: ('A' for Active; 'I' for Inactive)
REMARK    1  A    between atoms: C8_13  and  O2_2 
REMARK    2  A    between atoms: C11_16  and  O4_4 
REMARK    3  A    between atoms: C13_18  and  O5_5 
REMARK    4  A    between atoms: C2_7  and  C4_9 
ROOT
HETATM    1  O1  UNK     1      20.469  -1.940  17.195  1.00  0.00    -0.309 OA
HETATM    2  O3  UNK     1      17.666  -3.622  14.763  1.00  0.00    -0.287 OA
HETATM    3  C1  UNK     1      19.813  -3.770  15.737  1.00  0.00     0.051 A 
HETATM    4  C2  UNK     1      19.249  -1.326  16.957  1.00  0.00     0.093 A 
HETATM    5  C3  UNK     1      20.727  -3.140  16.581  1.00  0.00     0.090 A 
HETATM    6  C5  UNK     1      18.515  -3.125  15.489  1.00  0.00     0.187 A 
HETATM    7  C6  UNK     1      18.287  -1.835  16.171  1.00  0.00     0.094 A 
HETATM    8  C7  UNK     1      20.131  -4.991  15.138  1.00  0.00     0.054 A 
HETATM    9  C9  UNK     1      21.965  -3.731  16.833  1.00  0.00     0.041 A 
HETATM   10  C11 UNK     1      21.370  -5.580  15.392  1.00  0.00     0.066 A 
HETATM   11  C12 UNK     1      22.286  -4.951  16.238  1.00  0.00     0.039 A 
ENDROOT
BRANCH   4  12
HETATM   12  C4  UNK     1      19.073  -0.045  17.671  1.00  0.00     0.034 A 
HETATM   13  C10 UNK     1      18.861  -0.059  19.053  1.00  0.00     0.017 A 
HETATM   14  C14 UNK     1      18.692   1.138  19.749  1.00  0.00     0.004 A 
HETATM   15  C15 UNK     1      18.734   2.354  19.068  1.00  0.00     0.039 A 
HETATM   16  C13 UNK     1      18.945   2.374  17.689  1.00  0.00     0.099 A 
HETATM   17  C8  UNK     1      19.114   1.177  16.992  1.00  0.00     0.111 A 
BRANCH  16  18
HETATM   18  O5  UNK     1      18.984   3.568  17.036  1.00  0.00    -0.358 OA
HETATM   19  H10 UNK     1      19.431   3.458  16.180  1.00  0.00     0.217 HD
ENDBRANCH  16  18
BRANCH  17  20
HETATM   20  O2  UNK     1      19.319   1.211  15.643  1.00  0.00    -0.357 OA
HETATM   21  H8  UNK     1      20.210   0.883  15.440  1.00  0.00     0.217 HD
ENDBRANCH  17  20
ENDBRANCH   4  12
BRANCH  10  22
HETATM   22  O4  UNK     1      21.688  -6.770  14.813  1.00  0.00    -0.361 OA
HETATM   23  H9  UNK     1      22.027  -7.373  15.498  1.00  0.00     0.217 HD
ENDBRANCH  10  22
TORSDOF 4
ENDMDL
MODEL 2
REMARK VINA RESULT:      -8.5     14.842     18.071
REMARK  4 active torsions:
REMARK  status: ('A' for Active; 'I' for Inactive)
REMARK    1  A    between atoms: C8_13  and  O2_2 
REMARK    2  A    between atoms: C11_16  and  O4_4 
REMARK    3  A    between atoms: C13_18  and  O5_5 
REMARK    4  A    between atoms: C2_7  and  C4_9 
ROOT
HETATM    1  O1  UNK     1      17.938   3.205  33.567  1.00  0.00    -0.309 OA
HETATM    2  O3  UNK     1      19.249   1.374  30.172  1.00  0.00    -0.287 OA
HETATM    3  C1  UNK     1      18.699   3.393  31.267  1.00  0.00     0.051 A 
HETATM    4  C2  UNK     1      18.076   1.827  33.490  1.00  0.00     0.093 A 
HETATM    5  C3  UNK     1      18.247   3.956  32.461  1.00  0.00     0.090 A 
HETATM    6  C5  UNK     1      18.854   1.933  31.185  1.00  0.00     0.187 A 
HETATM    7  C6  UNK     1      18.507   1.170  32.401  1.00  0.00     0.094 A 
HETATM    8  C7  UNK     1      18.999   4.207  30.172  1.00  0.00     0.054 A 
HETATM    9  C9  UNK     1      18.092   5.338  32.565  1.00  0.00     0.041 A 
HETATM   10  C11 UNK     1      18.843   5.589  30.280  1.00  0.00     0.066 A 
HETATM   11  C12 UNK     1      18.391   6.154  31.474  1.00  0.00     0.039 A 
ENDROOT
BRANCH   4  12
HETATM   12  C4  UNK     1      17.722   1.118  34.736  1.00  0.00     0.034 A 
HETATM   13  C10 UNK     1      16.988  -0.069  34.659  1.00  0.00     0.017 A 
HETATM   14  C14 UNK     1      16.641  -0.757  35.822  1.00  0.00     0.004 A 
HETATM   15  C15 UNK     1      17.026  -0.261  37.067  1.00  0.00     0.039 A 
HETATM   16  C13 UNK     1      17.758   0.924  37.150  1.00  0.00     0.099 A 
HETATM   17  C8  UNK     1      18.105   1.612  35.987  1.00  0.00     0.111 A 
BRANCH  16  18
HETATM   18  O5  UNK     1      18.128   1.397  38.372  1.00  0.00    -0.358 OA
HETATM   19  H10 UNK     1      17.447   1.174  39.028  1.00  0.00     0.217 HD
ENDBRANCH  16  18
BRANCH  17  20
HETATM   20  O2  UNK     1      18.821   2.770  36.083  1.00  0.00    -0.357 OA
HETATM   21  H8  UNK     1      18.336   3.490  35.649  1.00  0.00     0.217 HD
ENDBRANCH  17  20
ENDBRANCH   4  12
BRANCH  10  22
HETATM   22  O4  UNK     1      19.132   6.390  29.217  1.00  0.00    -0.361 OA
HETATM   23  H9  UNK     1      19.800   7.044  29.488  1.00  0.00     0.217 HD
ENDBRANCH  10  22
TORSDOF 4
ENDMDL
MODEL 3
REMARK VINA RESULT:      -8.4     11.972     14.300
REMARK  4 active torsions:
REMARK  status: ('A' for Active; 'I' for Inactive)
REMARK    1  A    between atoms: C8_13  and  O2_2 
REMARK    2  A    between atoms: C11_16  and  O4_4 
REMARK    3  A    between atoms: C13_18  and  O5_5 
REMARK    4  A    between atoms: C2_7  and  C4_9 
ROOT
HETATM    1  O1  UNK     1      13.198   7.414   8.541  1.00  0.00    -0.309 OA
HETATM    2  O3  UNK     1      15.262   4.098   9.700  1.00  0.00    -0.287 OA
HETATM    3  C1  UNK     1      15.225   6.449   9.471  1.00  0.00     0.051 A 
HETATM    4  C2  UNK     1      12.659   6.142   8.422  1.00  0.00     0.093 A 
HETATM    5  C3  UNK     1      14.463   7.541   9.057  1.00  0.00     0.090 A 
HETATM    6  C5  UNK     1      14.652   5.099   9.354  1.00  0.00     0.187 A 
HETATM    7  C6  UNK     1      13.290   5.015   8.791  1.00  0.00     0.094 A 
HETATM    8  C7  UNK     1      16.508   6.639   9.988  1.00  0.00     0.054 A 
HETATM    9  C9  UNK     1      14.982   8.832   9.159  1.00  0.00     0.041 A 
HETATM   10  C11 UNK     1      17.025   7.931  10.089  1.00  0.00     0.066 A 
HETATM   11  C12 UNK     1      16.263   9.025   9.675  1.00  0.00     0.039 A 
ENDROOT
BRANCH   4  12
HETATM   12  C4  UNK     1      11.292   6.120   7.862  1.00  0.00     0.034 A 
HETATM   13  C10 UNK     1      10.203   5.995   8.730  1.00  0.00     0.017 A 
HETATM   14  C14 UNK     1       8.903   5.971   8.226  1.00  0.00     0.004 A 
HETATM   15  C15 UNK     1       8.685   6.072   6.852  1.00  0.00     0.039 A 
HETATM   16  C13 UNK     1       9.768   6.195   5.981  1.00  0.00     0.099 A 
HETATM   17  C8  UNK     1      11.069   6.220   6.486  1.00  0.00     0.111 A 
BRANCH  16  18
HETATM   18  O5  UNK     1       9.541   6.293   4.642  1.00  0.00    -0.358 OA
HETATM   19  H10 UNK     1       9.986   7.083   4.293  1.00  0.00     0.217 HD
ENDBRANCH  16  18
BRANCH  17  20
HETATM   20  O2  UNK     1      12.119   6.341   5.622  1.00  0.00    -0.357 OA
HETATM   21  H8  UNK     1      11.795   6.620   4.751  1.00  0.00     0.217 HD
ENDBRANCH  17  20
ENDBRANCH   4  12
BRANCH  10  22
HETATM   22  O4  UNK     1      18.275   8.126  10.591  1.00  0.00    -0.361 OA
HETATM   23  H9  UNK     1      18.478   7.411  11.219  1.00  0.00     0.217 HD
ENDBRANCH  10  22
TORSDOF 4
ENDMDL
MODEL 4
REMARK VINA RESULT:      -8.4     14.810     17.338
REMARK  4 active torsions:
REMARK  status: ('A' for Active; 'I' for Inactive)
REMARK    1  A    between atoms: C8_13  and  O2_2 
REMARK    2  A    between atoms: C11_16  and  O4_4 
REMARK    3  A    between atoms: C13_18  and  O5_5 
REMARK    4  A    between atoms: C2_7  and  C4_9 
ROOT
HETATM    1  O1  UNK     1      19.042  -0.457  33.374  1.00  0.00    -0.309 OA
HETATM    2  O3  UNK     1      18.323   2.872  31.138  1.00  0.00    -0.287 OA
HETATM    3  C1  UNK     1      19.138   0.656  31.216  1.00  0.00     0.051 A 
HETATM    4  C2  UNK     1      18.490   0.688  33.929  1.00  0.00     0.093 A 
HETATM    5  C3  UNK     1      19.356  -0.449  32.039  1.00  0.00     0.090 A 
HETATM    6  C5  UNK     1      18.545   1.869  31.800  1.00  0.00     0.187 A 
HETATM    7  C6  UNK     1      18.227   1.811  33.241  1.00  0.00     0.094 A 
HETATM    8  C7  UNK     1      19.478   0.606  29.862  1.00  0.00     0.054 A 
HETATM    9  C9  UNK     1      19.916  -1.612  31.509  1.00  0.00     0.041 A 
HETATM   10  C11 UNK     1      20.038  -0.557  29.336  1.00  0.00     0.066 A 
HETATM   11  C12 UNK     1      20.256  -1.665  30.157  1.00  0.00     0.039 A 
ENDROOT
BRANCH   4  12
HETATM   12  C4  UNK     1      18.185   0.569  35.369  1.00  0.00     0.034 A 
HETATM   13  C10 UNK     1      17.968   1.731  36.117  1.00  0.00     0.017 A 
HETATM   14  C14 UNK     1      17.680   1.646  37.479  1.00  0.00     0.004 A 
HETATM   15  C15 UNK     1      17.607   0.399  38.100  1.00  0.00     0.039 A 
HETATM   16  C13 UNK     1      17.823  -0.763  37.359  1.00  0.00     0.099 A 
HETATM   17  C8  UNK     1      18.111  -0.678  35.996  1.00  0.00     0.111 A 
BRANCH  16  18
HETATM   18  O5  UNK     1      17.748  -1.974  37.978  1.00  0.00    -0.358 OA
HETATM   19  H10 UNK     1      17.578  -2.667  37.319  1.00  0.00     0.217 HD
ENDBRANCH  16  18
BRANCH  17  20
HETATM   20  O2  UNK     1      18.321  -1.823  35.284  1.00  0.00    -0.357 OA
HETATM   21  H8  UNK     1      18.208  -1.643  34.337  1.00  0.00     0.217 HD
ENDBRANCH  17  20
ENDBRANCH   4  12
BRANCH  10  22
HETATM   22  O4  UNK     1      20.373  -0.615  28.017  1.00  0.00    -0.361 OA
HETATM   23  H9  UNK     1      20.647   0.271  27.723  1.00  0.00     0.217 HD
ENDBRANCH  10  22
TORSDOF 4
ENDMDL
MODEL 5
REMARK VINA RESULT:      -8.3      2.301      2.573
REMARK  4 active torsions:
REMARK  status: ('A' for Active; 'I' for Inactive)
REMARK    1  A    between atoms: C8_13  and  O2_2 
REMARK    2  A    between atoms: C11_16  and  O4_4 
REMARK    3  A    between atoms: C13_18  and  O5_5 
REMARK    4  A    between atoms: C2_7  and  C4_9 
ROOT
HETATM    1  O1  UNK     1      19.516  -0.623  14.951  1.00  0.00    -0.309 OA
HETATM    2  O3  UNK     1      17.562  -4.125  15.669  1.00  0.00    -0.287 OA
HETATM    3  C1  UNK     1      18.864  -2.833  14.181  1.00  0.00     0.051 A 
HETATM    4  C2  UNK     1      18.836  -0.847  16.139  1.00  0.00     0.093 A 
HETATM    5  C3  UNK     1      19.513  -1.611  14.000  1.00  0.00     0.090 A 
HETATM    6  C5  UNK     1      18.150  -3.077  15.443  1.00  0.00     0.187 A 
HETATM    7  C6  UNK     1      18.180  -1.981  16.432  1.00  0.00     0.094 A 
HETATM    8  C7  UNK     1      18.895  -3.803  13.176  1.00  0.00     0.054 A 
HETATM    9  C9  UNK     1      20.199  -1.355  12.813  1.00  0.00     0.041 A 
HETATM   10  C11 UNK     1      19.581  -3.544  11.990  1.00  0.00     0.066 A 
HETATM   11  C12 UNK     1      20.232  -2.323  11.808  1.00  0.00     0.039 A 
ENDROOT
BRANCH   4  12
HETATM   12  C4  UNK     1      18.908   0.278  17.093  1.00  0.00     0.034 A 
HETATM   13  C10 UNK     1      18.827   0.015  18.464  1.00  0.00     0.017 A 
HETATM   14  C14 UNK     1      18.892   1.060  19.385  1.00  0.00     0.004 A 
HETATM   15  C15 UNK     1      19.037   2.374  18.940  1.00  0.00     0.039 A 
HETATM   16  C13 UNK     1      19.117   2.643  17.573  1.00  0.00     0.099 A 
HETATM   17  C8  UNK     1      19.053   1.597  16.652  1.00  0.00     0.111 A 
BRANCH  16  18
HETATM   18  O5  UNK     1      19.260   3.930  17.152  1.00  0.00    -0.358 OA
HETATM   19  H10 UNK     1      18.883   4.026  16.262  1.00  0.00     0.217 HD
ENDBRANCH  16  18
BRANCH  17  20
HETATM   20  O2  UNK     1      19.133   1.874  15.318  1.00  0.00    -0.357 OA
HETATM   21  H8  UNK     1      20.047   2.105  15.087  1.00  0.00     0.217 HD
ENDBRANCH  17  20
ENDBRANCH   4  12
BRANCH  10  22
HETATM   22  O4  UNK     1      19.617  -4.484  11.006  1.00  0.00    -0.361 OA
HETATM   23  H9  UNK     1      20.372  -5.077  11.163  1.00  0.00     0.217 HD
ENDBRANCH  10  22
TORSDOF 4
ENDMDL
MODEL 6
REMARK VINA RESULT:      -8.3     14.757     17.141
REMARK  4 active torsions:
REMARK  status: ('A' for Active; 'I' for Inactive)
REMARK    1  A    between atoms: C8_13  and  O2_2 
REMARK    2  A    between atoms: C11_16  and  O4_4 
REMARK    3  A    between atoms: C13_18  and  O5_5 
REMARK    4  A    between atoms: C2_7  and  C4_9 
ROOT
HETATM    1  O1  UNK     1      18.420   0.622  32.741  1.00  0.00    -0.309 OA
HETATM    2  O3  UNK     1      20.527  -2.864  32.664  1.00  0.00    -0.287 OA
HETATM    3  C1  UNK     1      19.830  -0.926  31.508  1.00  0.00     0.051 A 
HETATM    4  C2  UNK     1      18.475  -0.220  33.842  1.00  0.00     0.093 A 
HETATM    5  C3  UNK     1      19.091   0.254  31.603  1.00  0.00     0.090 A 
HETATM    6  C5  UNK     1      19.896  -1.817  32.676  1.00  0.00     0.187 A 
HETATM    7  C6  UNK     1      19.155  -1.377  33.875  1.00  0.00     0.094 A 
HETATM    8  C7  UNK     1      20.493  -1.250  30.322  1.00  0.00     0.054 A 
HETATM    9  C9  UNK     1      19.013   1.117  30.510  1.00  0.00     0.041 A 
HETATM   10  C11 UNK     1      20.413  -0.385  29.231  1.00  0.00     0.066 A 
HETATM   11  C12 UNK     1      19.675   0.796  29.324  1.00  0.00     0.039 A 
ENDROOT
BRANCH   4  12
HETATM   12  C4  UNK     1      17.723   0.274  35.013  1.00  0.00     0.034 A 
HETATM   13  C10 UNK     1      16.347   0.040  35.087  1.00  0.00     0.017 A 
HETATM   14  C14 UNK     1      15.615   0.497  36.183  1.00  0.00     0.004 A 
HETATM   15  C15 UNK     1      16.255   1.191  37.209  1.00  0.00     0.039 A 
HETATM   16  C13 UNK     1      17.628   1.428  37.141  1.00  0.00     0.099 A 
HETATM   17  C8  UNK     1      18.361   0.970  36.045  1.00  0.00     0.111 A 
BRANCH  16  18
HETATM   18  O5  UNK     1      18.241   2.105  38.151  1.00  0.00    -0.358 OA
HETATM   19  H10 UNK     1      18.407   3.022  37.875  1.00  0.00     0.217 HD
ENDBRANCH  16  18
BRANCH  17  20
HETATM   20  O2  UNK     1      19.703   1.209  35.991  1.00  0.00    -0.357 OA
HETATM   21  H8  UNK     1      19.866   2.165  36.028  1.00  0.00     0.217 HD
ENDBRANCH  17  20
ENDBRANCH   4  12
BRANCH  10  22
HETATM   22  O4  UNK     1      21.055  -0.693  28.071  1.00  0.00    -0.361 OA
HETATM   23  H9  UNK     1      20.978  -1.649  27.912  1.00  0.00     0.217 HD
ENDBRANCH  10  22
TORSDOF 4
ENDMDL
MODEL 7
REMARK VINA RESULT:      -8.1     14.725     17.621
REMARK  4 active torsions:
REMARK  status: ('A' for Active; 'I' for Inactive)
REMARK    1  A    between atoms: C8_13  and  O2_2 
REMARK    2  A    between atoms: C11_16  and  O4_4 
REMARK    3  A    between atoms: C13_18  and  O5_5 
REMARK    4  A    between atoms: C2_7  and  C4_9 
ROOT
HETATM    1  O1  UNK     1      18.804   0.535  33.356  1.00  0.00    -0.309 OA
HETATM    2  O3  UNK     1      19.452  -2.663  35.795  1.00  0.00    -0.287 OA
HETATM    3  C1  UNK     1      18.741  -0.419  35.589  1.00  0.00     0.051 A 
HETATM    4  C2  UNK     1      19.296  -0.665  32.867  1.00  0.00     0.093 A 
HETATM    5  C3  UNK     1      18.541   0.635  34.699  1.00  0.00     0.090 A 
HETATM    6  C5  UNK     1      19.256  -1.696  35.073  1.00  0.00     0.187 A 
HETATM    7  C6  UNK     1      19.525  -1.752  33.622  1.00  0.00     0.094 A 
HETATM    8  C7  UNK     1      18.456  -0.260  36.948  1.00  0.00     0.054 A 
HETATM    9  C9  UNK     1      18.053   1.856  35.163  1.00  0.00     0.041 A 
HETATM   10  C11 UNK     1      17.968   0.963  37.409  1.00  0.00     0.066 A 
HETATM   11  C12 UNK     1      17.767   2.019  36.519  1.00  0.00     0.039 A 
ENDROOT
BRANCH   4  12
HETATM   12  C4  UNK     1      19.538  -0.665  31.410  1.00  0.00     0.034 A 
HETATM   13  C10 UNK     1      20.209  -1.748  30.832  1.00  0.00     0.017 A 
HETATM   14  C14 UNK     1      20.451  -1.771  29.458  1.00  0.00     0.004 A 
HETATM   15  C15 UNK     1      20.023  -0.713  28.657  1.00  0.00     0.039 A 
HETATM   16  C13 UNK     1      19.354   0.369  29.228  1.00  0.00     0.099 A 
HETATM   17  C8  UNK     1      19.112   0.393  30.602  1.00  0.00     0.111 A 
BRANCH  16  18
HETATM   18  O5  UNK     1      18.941   1.395  28.434  1.00  0.00    -0.358 OA
HETATM   19  H10 UNK     1      18.685   2.153  28.985  1.00  0.00     0.217 HD
ENDBRANCH  16  18
BRANCH  17  20
HETATM   20  O2  UNK     1      18.456   1.458  31.148  1.00  0.00    -0.357 OA
HETATM   21  H8  UNK     1      18.650   1.509  32.098  1.00  0.00     0.217 HD
ENDBRANCH  17  20
ENDBRANCH   4  12
BRANCH  10  22
HETATM   22  O4  UNK     1      17.688   1.127  38.731  1.00  0.00    -0.361 OA
HETATM   23  H9  UNK     1      16.732   1.273  38.835  1.00  0.00     0.217 HD
ENDBRANCH  10  22
TORSDOF 4
ENDMDL
MODEL 8
REMARK VINA RESULT:      -8.1     14.813     17.221
REMARK  4 active torsions:
REMARK  status: ('A' for Active; 'I' for Inactive)
REMARK    1  A    between atoms: C8_13  and  O2_2 
REMARK    2  A    between atoms: C11_16  and  O4_4 
REMARK    3  A    between atoms: C13_18  and  O5_5 
REMARK    4  A    between atoms: C2_7  and  C4_9 
ROOT
HETATM    1  O1  UNK     1      18.381   0.726  33.010  1.00  0.00    -0.309 OA
HETATM    2  O3  UNK     1      20.386  -2.812  32.757  1.00  0.00    -0.287 OA
HETATM    3  C1  UNK     1      19.682  -0.833  31.676  1.00  0.00     0.051 A 
HETATM    4  C2  UNK     1      18.469  -0.140  34.090  1.00  0.00     0.093 A 
HETATM    5  C3  UNK     1      18.982   0.363  31.831  1.00  0.00     0.090 A 
HETATM    6  C5  UNK     1      19.785  -1.749  32.822  1.00  0.00     0.187 A 
HETATM    7  C6  UNK     1      19.119  -1.315  34.066  1.00  0.00     0.094 A 
HETATM    8  C7  UNK     1      20.274  -1.150  30.451  1.00  0.00     0.054 A 
HETATM    9  C9  UNK     1      18.871   1.250  30.760  1.00  0.00     0.041 A 
HETATM   10  C11 UNK     1      20.162  -0.262  29.382  1.00  0.00     0.066 A 
HETATM   11  C12 UNK     1      19.462   0.936  29.536  1.00  0.00     0.039 A 
ENDROOT
BRANCH   4  12
HETATM   12  C4  UNK     1      17.792   0.350  35.308  1.00  0.00     0.034 A 
HETATM   13  C10 UNK     1      18.559   0.650  36.438  1.00  0.00     0.017 A 
HETATM   14  C14 UNK     1      17.944   1.114  37.601  1.00  0.00     0.004 A 
HETATM   15  C15 UNK     1      16.560   1.280  37.639  1.00  0.00     0.039 A 
HETATM   16  C13 UNK     1      15.790   0.982  36.515  1.00  0.00     0.099 A 
HETATM   17  C8  UNK     1      16.405   0.518  35.351  1.00  0.00     0.111 A 
BRANCH  16  18
HETATM   18  O5  UNK     1      14.440   1.149  36.566  1.00  0.00    -0.358 OA
HETATM   19  H10 UNK     1      14.186   1.497  37.437  1.00  0.00     0.217 HD
ENDBRANCH  16  18
BRANCH  17  20
HETATM   20  O2  UNK     1      15.640   0.230  34.259  1.00  0.00    -0.357 OA
HETATM   21  H8  UNK     1      14.700   0.291  34.494  1.00  0.00     0.217 HD
ENDBRANCH  17  20
ENDBRANCH   4  12
BRANCH  10  22
HETATM   22  O4  UNK     1      20.735  -0.562  28.184  1.00  0.00    -0.361 OA
HETATM   23  H9  UNK     1      21.702  -0.495  28.272  1.00  0.00     0.217 HD
ENDBRANCH  10  22
TORSDOF 4
ENDMDL
MODEL 9
REMARK VINA RESULT:      -8.1     12.293     16.168
REMARK  4 active torsions:
REMARK  status: ('A' for Active; 'I' for Inactive)
REMARK    1  A    between atoms: C8_13  and  O2_2 
REMARK    2  A    between atoms: C11_16  and  O4_4 
REMARK    3  A    between atoms: C13_18  and  O5_5 
REMARK    4  A    between atoms: C2_7  and  C4_9 
ROOT
HETATM    1  O1  UNK     1      19.062   3.242  30.341  1.00  0.00    -0.309 OA
HETATM    2  O3  UNK     1      17.729   3.221  34.190  1.00  0.00    -0.287 OA
HETATM    3  C1  UNK     1      18.229   4.482  32.257  1.00  0.00     0.051 A 
HETATM    4  C2  UNK     1      18.976   2.069  31.075  1.00  0.00     0.093 A 
HETATM    5  C3  UNK     1      18.693   4.418  30.943  1.00  0.00     0.090 A 
HETATM    6  C5  UNK     1      18.130   3.239  33.036  1.00  0.00     0.187 A 
HETATM    7  C6  UNK     1      18.541   2.001  32.344  1.00  0.00     0.094 A 
HETATM    8  C7  UNK     1      17.868   5.709  32.819  1.00  0.00     0.054 A 
HETATM    9  C9  UNK     1      18.796   5.583  30.183  1.00  0.00     0.041 A 
HETATM   10  C11 UNK     1      17.972   6.872  32.056  1.00  0.00     0.066 A 
HETATM   11  C12 UNK     1      18.435   6.810  30.741  1.00  0.00     0.039 A 
ENDROOT
BRANCH   4  12
HETATM   12  C4  UNK     1      19.393   0.863  30.330  1.00  0.00     0.034 A 
HETATM   13  C10 UNK     1      20.196  -0.087  30.968  1.00  0.00     0.017 A 
HETATM   14  C14 UNK     1      20.603  -1.233  30.286  1.00  0.00     0.004 A 
HETATM   15  C15 UNK     1      20.208  -1.435  28.963  1.00  0.00     0.039 A 
HETATM   16  C13 UNK     1      19.407  -0.491  28.322  1.00  0.00     0.099 A 
HETATM   17  C8  UNK     1      19.000   0.656  29.005  1.00  0.00     0.111 A 
BRANCH  16  18
HETATM   18  O5  UNK     1      19.028  -0.701  27.031  1.00  0.00    -0.358 OA
HETATM   19  H10 UNK     1      18.580  -1.559  26.958  1.00  0.00     0.217 HD
ENDBRANCH  16  18
BRANCH  17  20
HETATM   20  O2  UNK     1      18.216   1.573  28.365  1.00  0.00    -0.357 OA
HETATM   21  H8  UNK     1      17.293   1.466  28.647  1.00  0.00     0.217 HD
ENDBRANCH  17  20
ENDBRANCH   4  12
BRANCH  10  22
HETATM   22  O4  UNK     1      17.622   8.073  32.595  1.00  0.00    -0.361 OA
HETATM   23  H9  UNK     1      18.277   8.317  33.272  1.00  0.00     0.217 HD
ENDBRANCH  10  22
TORSDOF 4
ENDMDL
MODEL 10
REMARK VINA RESULT:      -8.0      2.242      6.570
REMARK  4 active torsions:
REMARK  status: ('A' for Active; 'I' for Inactive)
REMARK    1  A    between atoms: C8_13  and  O2_2 
REMARK    2  A    between atoms: C11_16  and  O4_4 
REMARK    3  A    between atoms: C13_18  and  O5_5 
REMARK    4  A    between atoms: C2_7  and  C4_9 
ROOT
HETATM    1  O1  UNK     1      19.167  -1.121  16.916  1.00  0.00    -0.309 OA
HETATM    2  O3  UNK     1      19.323   2.781  15.755  1.00  0.00    -0.287 OA
HETATM    3  C1  UNK     1      19.180   1.230  17.531  1.00  0.00     0.051 A 
HETATM    4  C2  UNK     1      19.247  -0.762  15.579  1.00  0.00     0.093 A 
HETATM    5  C3  UNK     1      19.131  -0.125  17.859  1.00  0.00     0.090 A 
HETATM    6  C5  UNK     1      19.273   1.614  16.114  1.00  0.00     0.187 A 
HETATM    7  C6  UNK     1      19.305   0.506  15.139  1.00  0.00     0.094 A 
HETATM    8  C7  UNK     1      19.140   2.201  18.534  1.00  0.00     0.054 A 
HETATM    9  C9  UNK     1      19.044  -0.515  19.195  1.00  0.00     0.041 A 
HETATM   10  C11 UNK     1      19.053   1.807  19.869  1.00  0.00     0.066 A 
HETATM   11  C12 UNK     1      19.005   0.452  20.199  1.00  0.00     0.039 A 
ENDROOT
BRANCH   4  12
HETATM   12  C4  UNK     1      19.284  -1.910  14.651  1.00  0.00     0.034 A 
HETATM   13  C10 UNK     1      20.219  -1.914  13.611  1.00  0.00     0.017 A 
HETATM   14  C14 UNK     1      20.274  -2.987  12.721  1.00  0.00     0.004 A 
HETATM   15  C15 UNK     1      19.394  -4.059  12.866  1.00  0.00     0.039 A 
HETATM   16  C13 UNK     1      18.459  -4.060  13.900  1.00  0.00     0.099 A 
HETATM   17  C8  UNK     1      18.404  -2.987  14.791  1.00  0.00     0.111 A 
BRANCH  16  18
HETATM   18  O5  UNK     1      17.607  -5.114  14.031  1.00  0.00    -0.358 OA
HETATM   19  H10 UNK     1      17.763  -5.557  14.880  1.00  0.00     0.217 HD
ENDBRANCH  16  18
BRANCH  17  20
HETATM   20  O2  UNK     1      17.484  -3.001  15.799  1.00  0.00    -0.357 OA
HETATM   21  H8  UNK     1      17.932  -3.146  16.648  1.00  0.00     0.217 HD
ENDBRANCH  17  20
ENDBRANCH   4  12
BRANCH  10  22
HETATM   22  O4  UNK     1      19.013   2.747  20.854  1.00  0.00    -0.361 OA
HETATM   23  H9  UNK     1      19.237   2.325  21.701  1.00  0.00     0.217 HD
ENDBRANCH  10  22
TORSDOF 4
ENDMDL
