MODEL 1
REMARK VINA RESULT:      -8.3      0.000      0.000
REMARK  2 active torsions:
REMARK  status: ('A' for Active; 'I' for Inactive)
REMARK    1  A    between atoms: N1_5  and  O4_4 
REMARK    2  A    between atoms: C12_17  and  C8_13 
ROOT
HETATM    1  O1  UNK     1      16.548   5.743  32.309  1.00  0.00    -0.307 OA
HETATM    2  O2  UNK     1      14.328   9.841  33.557  1.00  0.00    -0.274 OA
HETATM    3  O3  UNK     1      13.340  11.814  34.159  1.00  0.00    -0.260 OA
HETATM    4  C1  UNK     1      17.766   7.528  32.963  1.00  0.00     0.008 A 
HETATM    5  C2  UNK     1      16.487   7.036  32.735  1.00  0.00     0.095 A 
HETATM    6  C3  UNK     1      15.323   7.773  32.921  1.00  0.00     0.008 A 
HETATM    7  C4  UNK     1      16.765   9.651  33.617  1.00  0.00     0.005 A 
HETATM    8  C5  UNK     1      18.651   6.461  32.654  1.00  0.00    -0.013 A 
HETATM    9  C6  UNK     1      15.509   9.088  33.366  1.00  0.00     0.099 A 
HETATM   10  C7  UNK     1      17.910   8.857  33.412  1.00  0.00     0.029 A 
HETATM   11  C8  UNK     1      17.863   5.404  32.263  1.00  0.00     0.109 A 
HETATM   12  C9  UNK     1      16.830  11.045  34.084  1.00  0.00    -0.043 A 
HETATM   13  C10 UNK     1      13.967   7.214  32.666  1.00  0.00     0.054 C 
HETATM   14  C11 UNK     1      20.125   6.483  32.735  1.00  0.00     0.052 C 
HETATM   15  C13 UNK     1      15.691  11.731  34.253  1.00  0.00     0.090 A 
HETATM   16  C14 UNK     1      18.161  11.680  34.362  1.00  0.00     0.049 C 
HETATM   17  C15 UNK     1      14.361  11.155  33.994  1.00  0.00     0.288 A 
ENDROOT
BRANCH  11  18
HETATM   18  C12 UNK     1      18.190   4.084  31.840  1.00  0.00     0.092 C 
HETATM   19  N1  UNK     1      17.942   3.057  32.635  1.00  0.00    -0.139 NA
HETATM   20  C16 UNK     1      18.867   3.854  30.475  1.00  0.00     0.076 C 
BRANCH  19  21
HETATM   21  O4  UNK     1      18.314   1.827  32.090  1.00  0.00    -0.266 OA
HETATM   22  H15 UNK     1      18.525   2.076  31.174  1.00  0.00     0.247 HD
ENDBRANCH  19  21
ENDBRANCH  11  18
TORSDOF 2
ENDMDL
MODEL 2
REMARK VINA RESULT:      -8.2      2.848      7.982
REMARK  2 active torsions:
REMARK  status: ('A' for Active; 'I' for Inactive)
REMARK    1  A    between atoms: N1_5  and  O4_4 
REMARK    2  A    between atoms: C12_17  and  C8_13 
ROOT
HETATM    1  O1  UNK     1      17.883   5.052  34.285  1.00  0.00    -0.307 OA
HETATM    2  O2  UNK     1      18.836   0.456  33.165  1.00  0.00    -0.274 OA
HETATM    3  O3  UNK     1      19.291  -1.703  32.565  1.00  0.00    -0.260 OA
HETATM    4  C1  UNK     1      18.163   4.455  32.126  1.00  0.00     0.008 A 
HETATM    5  C2  UNK     1      18.144   4.013  33.443  1.00  0.00     0.095 A 
HETATM    6  C3  UNK     1      18.363   2.694  33.826  1.00  0.00     0.008 A 
HETATM    7  C4  UNK     1      18.647   2.170  31.431  1.00  0.00     0.005 A 
HETATM    8  C5  UNK     1      17.897   5.848  32.182  1.00  0.00    -0.013 A 
HETATM    9  C6  UNK     1      18.613   1.798  32.779  1.00  0.00     0.099 A 
HETATM   10  C7  UNK     1      18.419   3.520  31.102  1.00  0.00     0.029 A 
HETATM   11  C8  UNK     1      17.735   6.159  33.513  1.00  0.00     0.109 A 
HETATM   12  C9  UNK     1      18.921   1.134  30.423  1.00  0.00    -0.043 A 
HETATM   13  C10 UNK     1      18.335   2.254  35.248  1.00  0.00     0.054 C 
HETATM   14  C11 UNK     1      17.811   6.779  31.040  1.00  0.00     0.052 C 
HETATM   15  C13 UNK     1      19.128  -0.128  30.823  1.00  0.00     0.090 A 
HETATM   16  C14 UNK     1      18.965   1.499  28.968  1.00  0.00     0.049 C 
HETATM   17  C15 UNK     1      19.095  -0.539  32.236  1.00  0.00     0.288 A 
ENDROOT
BRANCH  11  18
HETATM   18  C12 UNK     1      17.453   7.391  34.170  1.00  0.00     0.092 C 
HETATM   19  N1  UNK     1      16.274   7.579  34.740  1.00  0.00    -0.139 NA
HETATM   20  C16 UNK     1      18.504   8.517  34.188  1.00  0.00     0.076 C 
BRANCH  19  21
HETATM   21  O4  UNK     1      16.141   8.829  35.345  1.00  0.00    -0.266 OA
HETATM   22  H15 UNK     1      15.944   9.396  34.580  1.00  0.00     0.247 HD
ENDBRANCH  19  21
ENDBRANCH  11  18
TORSDOF 2
ENDMDL
MODEL 3
REMARK VINA RESULT:      -8.1      4.996      8.735
REMARK  2 active torsions:
REMARK  status: ('A' for Active; 'I' for Inactive)
REMARK    1  A    between atoms: N1_5  and  O4_4 
REMARK    2  A    between atoms: C12_17  and  C8_13 
ROOT
HETATM    1  O1  UNK     1      18.624   1.528  31.735  1.00  0.00    -0.307 OA
HETATM    2  O2  UNK     1      18.468  -1.754  35.269  1.00  0.00    -0.274 OA
HETATM    3  O3  UNK     1      18.377  -3.257  36.990  1.00  0.00    -0.260 OA
HETATM    4  C1  UNK     1      18.196   2.177  33.854  1.00  0.00     0.008 A 
HETATM    5  C2  UNK     1      18.470   1.101  33.020  1.00  0.00     0.095 A 
HETATM    6  C3  UNK     1      18.567  -0.217  33.453  1.00  0.00     0.008 A 
HETATM    7  C4  UNK     1      18.091   0.618  35.725  1.00  0.00     0.005 A 
HETATM    8  C5  UNK     1      18.186   3.323  33.017  1.00  0.00    -0.013 A 
HETATM    9  C6  UNK     1      18.369  -0.415  34.825  1.00  0.00     0.099 A 
HETATM   10  C7  UNK     1      18.004   1.934  35.231  1.00  0.00     0.029 A 
HETATM   11  C8  UNK     1      18.451   2.875  31.743  1.00  0.00     0.109 A 
HETATM   12  C9  UNK     1      17.903   0.282  37.145  1.00  0.00    -0.043 A 
HETATM   13  C10 UNK     1      18.862  -1.348  32.530  1.00  0.00     0.054 C 
HETATM   14  C11 UNK     1      17.940   4.718  33.430  1.00  0.00     0.052 C 
HETATM   15  C13 UNK     1      18.003  -0.997  37.532  1.00  0.00     0.090 A 
HETATM   16  C14 UNK     1      17.603   1.367  38.138  1.00  0.00     0.049 C 
HETATM   17  C15 UNK     1      18.295  -2.098  36.600  1.00  0.00     0.288 A 
ENDROOT
BRANCH  11  18
HETATM   18  C12 UNK     1      18.564   3.563  30.501  1.00  0.00     0.092 C 
HETATM   19  N1  UNK     1      18.953   4.827  30.481  1.00  0.00    -0.139 NA
HETATM   20  C16 UNK     1      18.198   2.850  29.185  1.00  0.00     0.076 C 
BRANCH  19  21
HETATM   21  O4  UNK     1      19.018   5.370  29.197  1.00  0.00    -0.266 OA
HETATM   22  H15 UNK     1      19.203   4.581  28.661  1.00  0.00     0.247 HD
ENDBRANCH  19  21
ENDBRANCH  11  18
TORSDOF 2
ENDMDL
MODEL 4
REMARK VINA RESULT:      -7.8      4.087      6.434
REMARK  2 active torsions:
REMARK  status: ('A' for Active; 'I' for Inactive)
REMARK    1  A    between atoms: N1_5  and  O4_4 
REMARK    2  A    between atoms: C12_17  and  C8_13 
ROOT
HETATM    1  O1  UNK     1      18.543   0.376  33.546  1.00  0.00    -0.307 OA
HETATM    2  O2  UNK     1      18.603   4.286  30.718  1.00  0.00    -0.274 OA
HETATM    3  O3  UNK     1      18.624   6.180  29.437  1.00  0.00    -0.260 OA
HETATM    4  C1  UNK     1      18.263   2.425  34.453  1.00  0.00     0.008 A 
HETATM    5  C2  UNK     1      18.472   1.711  33.280  1.00  0.00     0.095 A 
HETATM    6  C3  UNK     1      18.590   2.294  32.023  1.00  0.00     0.008 A 
HETATM    7  C4  UNK     1      18.274   4.475  33.134  1.00  0.00     0.005 A 
HETATM    8  C5  UNK     1      18.205   1.456  35.489  1.00  0.00    -0.013 A 
HETATM    9  C6  UNK     1      18.484   3.691  31.995  1.00  0.00     0.099 A 
HETATM   10  C7  UNK     1      18.162   3.830  34.381  1.00  0.00     0.029 A 
HETATM   11  C8  UNK     1      18.379   0.232  34.887  1.00  0.00     0.109 A 
HETATM   12  C9  UNK     1      18.179   5.934  32.975  1.00  0.00    -0.043 A 
HETATM   13  C10 UNK     1      18.814   1.498  30.784  1.00  0.00     0.054 C 
HETATM   14  C11 UNK     1      17.997   1.712  36.928  1.00  0.00     0.052 C 
HETATM   15  C13 UNK     1      18.297   6.466  31.751  1.00  0.00     0.090 A 
HETATM   16  C14 UNK     1      17.954   6.805  34.176  1.00  0.00     0.049 C 
HETATM   17  C15 UNK     1      18.519   5.658  30.541  1.00  0.00     0.288 A 
ENDROOT
BRANCH  11  18
HETATM   18  C12 UNK     1      18.416  -1.089  35.418  1.00  0.00     0.092 C 
HETATM   19  N1  UNK     1      17.406  -1.533  36.148  1.00  0.00    -0.139 NA
HETATM   20  C16 UNK     1      19.643  -1.987  35.176  1.00  0.00     0.076 C 
BRANCH  19  21
HETATM   21  O4  UNK     1      17.579  -2.842  36.600  1.00  0.00    -0.266 OA
HETATM   22  H15 UNK     1      16.667  -3.176  36.583  1.00  0.00     0.247 HD
ENDBRANCH  19  21
ENDBRANCH  11  18
TORSDOF 2
ENDMDL
MODEL 5
REMARK VINA RESULT:      -7.8     22.862     24.290
REMARK  2 active torsions:
REMARK  status: ('A' for Active; 'I' for Inactive)
REMARK    1  A    between atoms: N1_5  and  O4_4 
REMARK    2  A    between atoms: C12_17  and  C8_13 
ROOT
HETATM    1  O1  UNK     1      14.588   6.712   9.744  1.00  0.00    -0.307 OA
HETATM    2  O2  UNK     1      18.162   9.954   9.784  1.00  0.00    -0.274 OA
HETATM    3  O3  UNK     1      19.813  11.536   9.769  1.00  0.00    -0.260 OA
HETATM    4  C1  UNK     1      14.295   8.722   8.757  1.00  0.00     0.008 A 
HETATM    5  C2  UNK     1      15.174   7.910   9.462  1.00  0.00     0.095 A 
HETATM    6  C3  UNK     1      16.465   8.284   9.821  1.00  0.00     0.008 A 
HETATM    7  C4  UNK     1      16.021  10.443   8.710  1.00  0.00     0.005 A 
HETATM    8  C5  UNK     1      13.105   7.963   8.606  1.00  0.00    -0.013 A 
HETATM    9  C6  UNK     1      16.851   9.570   9.422  1.00  0.00     0.099 A 
HETATM   10  C7  UNK     1      14.724  10.010   8.373  1.00  0.00     0.029 A 
HETATM   11  C8  UNK     1      13.335   6.754   9.220  1.00  0.00     0.109 A 
HETATM   12  C9  UNK     1      16.542  11.769   8.347  1.00  0.00    -0.043 A 
HETATM   13  C10 UNK     1      17.382   7.388  10.578  1.00  0.00     0.054 C 
HETATM   14  C11 UNK     1      11.867   8.387   7.924  1.00  0.00     0.052 C 
HETATM   15  C13 UNK     1      17.789  12.102   8.706  1.00  0.00     0.090 A 
HETATM   16  C14 UNK     1      15.678  12.730   7.583  1.00  0.00     0.049 C 
HETATM   17  C15 UNK     1      18.677  11.198   9.455  1.00  0.00     0.288 A 
ENDROOT
BRANCH  11  18
HETATM   18  C12 UNK     1      12.512   5.604   9.387  1.00  0.00     0.092 C 
HETATM   19  N1  UNK     1      11.854   5.423  10.520  1.00  0.00    -0.139 NA
HETATM   20  C16 UNK     1      12.414   4.553   8.265  1.00  0.00     0.076 C 
BRANCH  19  21
HETATM   21  O4  UNK     1      11.089   4.256  10.540  1.00  0.00    -0.266 OA
HETATM   22  H15 UNK     1      10.434   4.464  11.228  1.00  0.00     0.247 HD
ENDBRANCH  19  21
ENDBRANCH  11  18
TORSDOF 2
ENDMDL
MODEL 6
REMARK VINA RESULT:      -7.6     22.902     24.539
REMARK  2 active torsions:
REMARK  status: ('A' for Active; 'I' for Inactive)
REMARK    1  A    between atoms: N1_5  and  O4_4 
REMARK    2  A    between atoms: C12_17  and  C8_13 
ROOT
HETATM    1  O1  UNK     1      11.374   5.988   8.501  1.00  0.00    -0.307 OA
HETATM    2  O2  UNK     1      15.939   7.032   9.664  1.00  0.00    -0.274 OA
HETATM    3  O3  UNK     1      18.080   7.590  10.242  1.00  0.00    -0.260 OA
HETATM    4  C1  UNK     1      11.867   7.978   9.447  1.00  0.00     0.008 A 
HETATM    5  C2  UNK     1      12.377   6.767   8.996  1.00  0.00     0.095 A 
HETATM    6  C3  UNK     1      13.721   6.418   9.052  1.00  0.00     0.008 A 
HETATM    7  C4  UNK     1      14.131   8.624  10.079  1.00  0.00     0.005 A 
HETATM    8  C5  UNK     1      10.469   7.923   9.206  1.00  0.00    -0.013 A 
HETATM    9  C6  UNK     1      14.571   7.384   9.606  1.00  0.00     0.099 A 
HETATM   10  C7  UNK     1      12.757   8.924   9.997  1.00  0.00     0.029 A 
HETATM   11  C8  UNK     1      10.222   6.697   8.632  1.00  0.00     0.109 A 
HETATM   12  C9  UNK     1      15.122   9.556  10.639  1.00  0.00    -0.043 A 
HETATM   13  C10 UNK     1      14.234   5.109   8.561  1.00  0.00     0.054 C 
HETATM   14  C11 UNK     1       9.477   8.972   9.510  1.00  0.00     0.052 C 
HETATM   15  C13 UNK     1      16.410   9.191  10.680  1.00  0.00     0.090 A 
HETATM   16  C14 UNK     1      14.683  10.895  11.155  1.00  0.00     0.049 C 
HETATM   17  C15 UNK     1      16.893   7.891  10.187  1.00  0.00     0.288 A 
ENDROOT
BRANCH  11  18
HETATM   18  C12 UNK     1       9.017   6.087   8.181  1.00  0.00     0.092 C 
HETATM   19  N1  UNK     1       8.512   5.058   8.841  1.00  0.00    -0.139 NA
HETATM   20  C16 UNK     1       8.320   6.599   6.906  1.00  0.00     0.076 C 
BRANCH  19  21
HETATM   21  O4  UNK     1       7.331   4.565   8.285  1.00  0.00    -0.266 OA
HETATM   22  H15 UNK     1       7.588   4.446   7.355  1.00  0.00     0.247 HD
ENDBRANCH  19  21
ENDBRANCH  11  18
TORSDOF 2
ENDMDL
MODEL 7
REMARK VINA RESULT:      -7.6     20.316     22.941
REMARK  2 active torsions:
REMARK  status: ('A' for Active; 'I' for Inactive)
REMARK    1  A    between atoms: N1_5  and  O4_4 
REMARK    2  A    between atoms: C12_17  and  C8_13 
ROOT
HETATM    1  O1  UNK     1      17.135  -4.880  16.098  1.00  0.00    -0.307 OA
HETATM    2  O2  UNK     1      20.039  -1.974  13.567  1.00  0.00    -0.274 OA
HETATM    3  O3  UNK     1      21.417  -0.646  12.316  1.00  0.00    -0.260 OA
HETATM    4  C1  UNK     1      17.942  -5.558  14.101  1.00  0.00     0.008 A 
HETATM    5  C2  UNK     1      17.918  -4.532  15.038  1.00  0.00     0.095 A 
HETATM    6  C3  UNK     1      18.600  -3.329  14.895  1.00  0.00     0.008 A 
HETATM    7  C4  UNK     1      19.416  -4.184  12.729  1.00  0.00     0.005 A 
HETATM    8  C5  UNK     1      17.122  -6.587  14.634  1.00  0.00    -0.013 A 
HETATM    9  C6  UNK     1      19.343  -3.196  13.715  1.00  0.00     0.099 A 
HETATM   10  C7  UNK     1      18.704  -5.383  12.927  1.00  0.00     0.029 A 
HETATM   11  C8  UNK     1      16.658  -6.127  15.845  1.00  0.00     0.109 A 
HETATM   12  C9  UNK     1      20.232  -3.926  11.533  1.00  0.00    -0.043 A 
HETATM   13  C10 UNK     1      18.552  -2.250  15.920  1.00  0.00     0.054 C 
HETATM   14  C11 UNK     1      16.826  -7.893  14.013  1.00  0.00     0.052 C 
HETATM   15  C13 UNK     1      20.878  -2.757  11.423  1.00  0.00     0.090 A 
HETATM   16  C14 UNK     1      20.331  -4.965  10.455  1.00  0.00     0.049 C 
HETATM   17  C15 UNK     1      20.814  -1.705  12.450  1.00  0.00     0.288 A 
ENDROOT
BRANCH  11  18
HETATM   18  C12 UNK     1      15.803  -6.717  16.818  1.00  0.00     0.092 C 
HETATM   19  N1  UNK     1      16.287  -7.057  18.001  1.00  0.00    -0.139 NA
HETATM   20  C16 UNK     1      14.325  -6.995  16.484  1.00  0.00     0.076 C 
BRANCH  19  21
HETATM   21  O4  UNK     1      15.336  -7.623  18.850  1.00  0.00    -0.266 OA
HETATM   22  H15 UNK     1      15.884  -7.891  19.607  1.00  0.00     0.247 HD
ENDBRANCH  19  21
ENDBRANCH  11  18
TORSDOF 2
ENDMDL
MODEL 8
REMARK VINA RESULT:      -7.6      6.502      8.994
REMARK  2 active torsions:
REMARK  status: ('A' for Active; 'I' for Inactive)
REMARK    1  A    between atoms: N1_5  and  O4_4 
REMARK    2  A    between atoms: C12_17  and  C8_13 
ROOT
HETATM    1  O1  UNK     1      18.584   1.403  32.094  1.00  0.00    -0.307 OA
HETATM    2  O2  UNK     1      17.984   1.340  36.881  1.00  0.00    -0.274 OA
HETATM    3  O3  UNK     1      17.718   1.240  39.150  1.00  0.00    -0.260 OA
HETATM    4  C1  UNK     1      18.870  -0.523  33.238  1.00  0.00     0.008 A 
HETATM    5  C2  UNK     1      18.555   0.827  33.328  1.00  0.00     0.095 A 
HETATM    6  C3  UNK     1      18.255   1.480  34.520  1.00  0.00     0.008 A 
HETATM    7  C4  UNK     1      18.596  -0.685  35.654  1.00  0.00     0.005 A 
HETATM    8  C5  UNK     1      19.102  -0.773  31.860  1.00  0.00    -0.013 A 
HETATM    9  C6  UNK     1      18.288   0.679  35.669  1.00  0.00     0.099 A 
HETATM   10  C7  UNK     1      18.891  -1.294  34.419  1.00  0.00     0.029 A 
HETATM   11  C8  UNK     1      18.917   0.425  31.210  1.00  0.00     0.109 A 
HETATM   12  C9  UNK     1      18.597  -1.419  36.929  1.00  0.00    -0.043 A 
HETATM   13  C10 UNK     1      17.922   2.930  34.581  1.00  0.00     0.054 C 
HETATM   14  C11 UNK     1      19.472  -2.063  31.246  1.00  0.00     0.052 C 
HETATM   15  C13 UNK     1      18.305  -0.763  38.060  1.00  0.00     0.090 A 
HETATM   16  C14 UNK     1      18.923  -2.884  36.950  1.00  0.00     0.049 C 
HETATM   17  C15 UNK     1      17.978   0.672  38.095  1.00  0.00     0.288 A 
ENDROOT
BRANCH  11  18
HETATM   18  C12 UNK     1      19.014   0.783  29.836  1.00  0.00     0.092 C 
HETATM   19  N1  UNK     1      18.083   1.544  29.285  1.00  0.00    -0.139 NA
HETATM   20  C16 UNK     1      20.181   0.256  28.979  1.00  0.00     0.076 C 
BRANCH  19  21
HETATM   21  O4  UNK     1      18.309   1.812  27.935  1.00  0.00    -0.266 OA
HETATM   22  H15 UNK     1      18.314   2.784  27.927  1.00  0.00     0.247 HD
ENDBRANCH  19  21
ENDBRANCH  11  18
TORSDOF 2
ENDMDL
MODEL 9
REMARK VINA RESULT:      -7.5     22.916     24.356
REMARK  2 active torsions:
REMARK  status: ('A' for Active; 'I' for Inactive)
REMARK    1  A    between atoms: N1_5  and  O4_4 
REMARK    2  A    between atoms: C12_17  and  C8_13 
ROOT
HETATM    1  O1  UNK     1      10.559   7.825   8.879  1.00  0.00    -0.307 OA
HETATM    2  O2  UNK     1      13.911  10.737  10.768  1.00  0.00    -0.274 OA
HETATM    3  O3  UNK     1      15.548  12.068  11.650  1.00  0.00    -0.260 OA
HETATM    4  C1  UNK     1      12.706   7.136   9.005  1.00  0.00     0.008 A 
HETATM    5  C2  UNK     1      11.818   8.171   9.271  1.00  0.00     0.095 A 
HETATM    6  C3  UNK     1      12.180   9.379   9.855  1.00  0.00     0.008 A 
HETATM    7  C4  UNK     1      14.489   8.512   9.937  1.00  0.00     0.005 A 
HETATM    8  C5  UNK     1      11.931   6.104   8.415  1.00  0.00    -0.013 A 
HETATM    9  C6  UNK     1      13.538   9.509  10.174  1.00  0.00     0.099 A 
HETATM   10  C7  UNK     1      14.065   7.308   9.343  1.00  0.00     0.029 A 
HETATM   11  C8  UNK     1      10.638   6.571   8.362  1.00  0.00     0.109 A 
HETATM   12  C9  UNK     1      15.887   8.768  10.318  1.00  0.00    -0.043 A 
HETATM   13  C10 UNK     1      11.201  10.468  10.126  1.00  0.00     0.054 C 
HETATM   14  C11 UNK     1      12.416   4.789   7.951  1.00  0.00     0.052 C 
HETATM   15  C13 UNK     1      16.206   9.943  10.878  1.00  0.00     0.090 A 
HETATM   16  C14 UNK     1      16.933   7.719  10.077  1.00  0.00     0.049 C 
HETATM   17  C15 UNK     1      15.219  11.004  11.136  1.00  0.00     0.288 A 
ENDROOT
BRANCH  11  18
HETATM   18  C12 UNK     1       9.437   5.980   7.875  1.00  0.00     0.092 C 
HETATM   19  N1  UNK     1       8.699   5.231   8.678  1.00  0.00    -0.139 NA
HETATM   20  C16 UNK     1       9.014   6.182   6.408  1.00  0.00     0.076 C 
BRANCH  19  21
HETATM   21  O4  UNK     1       7.554   4.720   8.066  1.00  0.00    -0.266 OA
HETATM   22  H15 UNK     1       7.121   4.266   8.809  1.00  0.00     0.247 HD
ENDBRANCH  19  21
ENDBRANCH  11  18
TORSDOF 2
ENDMDL
MODEL 10
REMARK VINA RESULT:      -7.4      5.704      8.419
REMARK  2 active torsions:
REMARK  status: ('A' for Active; 'I' for Inactive)
REMARK    1  A    between atoms: N1_5  and  O4_4 
REMARK    2  A    between atoms: C12_17  and  C8_13 
ROOT
HETATM    1  O1  UNK     1      18.921  -1.085  34.506  1.00  0.00    -0.307 OA
HETATM    2  O2  UNK     1      18.668   1.096  30.209  1.00  0.00    -0.274 OA
HETATM    3  O3  UNK     1      18.537   2.191  28.206  1.00  0.00    -0.260 OA
HETATM    4  C1  UNK     1      18.469   1.124  34.391  1.00  0.00     0.008 A 
HETATM    5  C2  UNK     1      18.741  -0.029  33.665  1.00  0.00     0.095 A 
HETATM    6  C3  UNK     1      18.815  -0.077  32.277  1.00  0.00     0.008 A 
HETATM    7  C4  UNK     1      18.315   2.340  32.284  1.00  0.00     0.005 A 
HETATM    8  C5  UNK     1      18.487   0.734  35.755  1.00  0.00    -0.013 A 
HETATM    9  C6  UNK     1      18.594   1.141  31.620  1.00  0.00     0.099 A 
HETATM   10  C7  UNK     1      18.251   2.329  33.691  1.00  0.00     0.029 A 
HETATM   11  C8  UNK     1      18.765  -0.614  35.771  1.00  0.00     0.109 A 
HETATM   12  C9  UNK     1      18.100   3.554  31.482  1.00  0.00    -0.043 A 
HETATM   13  C10 UNK     1      19.110  -1.331  31.529  1.00  0.00     0.054 C 
HETATM   14  C11 UNK     1      18.254   1.601  36.926  1.00  0.00     0.052 C 
HETATM   15  C13 UNK     1      18.178   3.477  30.146  1.00  0.00     0.090 A 
HETATM   16  C14 UNK     1      17.799   4.857  32.162  1.00  0.00     0.049 C 
HETATM   17  C15 UNK     1      18.471   2.224  29.430  1.00  0.00     0.288 A 
ENDROOT
BRANCH  11  18
HETATM   18  C12 UNK     1      18.908  -1.539  36.843  1.00  0.00     0.092 C 
HETATM   19  N1  UNK     1      19.810  -2.504  36.764  1.00  0.00    -0.139 NA
HETATM   20  C16 UNK     1      17.993  -1.442  38.078  1.00  0.00     0.076 C 
BRANCH  19  21
HETATM   21  O4  UNK     1      19.837  -3.333  37.886  1.00  0.00    -0.266 OA
HETATM   22  H15 UNK     1      19.250  -2.856  38.496  1.00  0.00     0.247 HD
ENDBRANCH  19  21
ENDBRANCH  11  18
TORSDOF 2
ENDMDL
