MODEL 1
REMARK VINA RESULT:      -8.6      0.000      0.000
REMARK  7 active torsions:
REMARK  status: ('A' for Active; 'I' for Inactive)
REMARK    1  A    between atoms: C17_23  and  O2_2 
REMARK    2  A    between atoms: C21_27  and  O2_2 
REMARK    3  A    between atoms: C2_8  and  N1_5 
REMARK    4  A    between atoms: N1_5  and  N2_6 
REMARK    5  A    between atoms: C10_16  and  C12_18 
REMARK    6  A    between atoms: C10_16  and  C14_20 
REMARK    7  A    between atoms: C12_18  and  C17_23 
ROOT
HETATM    1  N1  UNK     1      20.184  -3.545  35.589  1.00  0.00    -0.277 N 
HETATM    2  H7  UNK     1      20.537  -3.341  36.513  1.00  0.00     0.189 HD
ENDROOT
BRANCH   1   3
HETATM    3  C2  UNK     1      19.748  -2.460  34.795  1.00  0.00     0.057 A 
HETATM    4  C4  UNK     1      19.000  -1.426  35.355  1.00  0.00    -0.031 A 
HETATM    5  C7  UNK     1      18.582  -0.365  34.558  1.00  0.00     0.047 A 
HETATM    6  C8  UNK     1      18.634  -1.432  36.804  1.00  0.00     0.050 C 
HETATM    7  C3  UNK     1      18.920  -0.356  33.204  1.00  0.00     0.090 A 
HETATM    8  C1  UNK     1      19.668  -1.377  32.615  1.00  0.00     0.006 A 
HETATM    9  O1  UNK     1      18.470   0.745  32.449  1.00  0.00    -0.275 OA
HETATM   10  C5  UNK     1      20.080  -2.437  33.436  1.00  0.00     0.046 A 
HETATM   11  C6  UNK     1      19.979  -1.286  31.182  1.00  0.00    -0.043 A 
HETATM   12  C11 UNK     1      20.779  -2.368  30.519  1.00  0.00     0.049 C 
HETATM   13  C9  UNK     1      19.538  -0.227  30.489  1.00  0.00     0.090 A 
HETATM   14  C13 UNK     1      18.748   0.859  31.095  1.00  0.00     0.288 A 
HETATM   15  O3  UNK     1      18.361   1.812  30.429  1.00  0.00    -0.260 OA
ENDBRANCH   1   3
BRANCH   1  16
HETATM   16  N2  UNK     1      20.100  -4.798  35.124  1.00  0.00    -0.172 NA
HETATM   17  C12 UNK     1      19.804  -5.724  35.980  1.00  0.00     0.133 C 
BRANCH  17  18
HETATM   18  C10 UNK     1      19.564  -5.597  37.466  1.00  0.00     0.106 C 
BRANCH  18  19
HETATM   19  C14 UNK     1      20.598  -6.331  38.281  1.00  0.00    -0.052 A 
HETATM   20  C15 UNK     1      20.233  -7.476  38.975  1.00  0.00     0.007 A 
HETATM   21  C18 UNK     1      21.190  -8.155  39.728  1.00  0.00     0.001 A 
HETATM   22  C20 UNK     1      22.502  -7.684  39.778  1.00  0.00     0.000 A 
HETATM   23  C19 UNK     1      22.857  -6.532  39.076  1.00  0.00     0.001 A 
HETATM   24  C16 UNK     1      21.899  -5.852  38.323  1.00  0.00     0.007 A 
ENDBRANCH  18  19
ENDBRANCH  17  18
BRANCH  17  25
HETATM   25  C17 UNK     1      19.720  -7.110  35.407  1.00  0.00     0.309 C 
HETATM   26  O4  UNK     1      18.703  -7.771  35.485  1.00  0.00    -0.258 OA
BRANCH  25  27
HETATM   27  O2  UNK     1      20.918  -7.420  34.878  1.00  0.00    -0.317 OA
BRANCH  27  28
HETATM   28  C21 UNK     1      21.286  -8.799  34.978  1.00  0.00     0.175 C 
HETATM   29  C22 UNK     1      22.139  -8.994  36.214  1.00  0.00     0.034 C 
ENDBRANCH  27  28
ENDBRANCH  25  27
ENDBRANCH  17  25
ENDBRANCH   1  16
TORSDOF 7
ENDMDL
MODEL 2
REMARK VINA RESULT:      -8.4      1.797      2.624
REMARK  7 active torsions:
REMARK  status: ('A' for Active; 'I' for Inactive)
REMARK    1  A    between atoms: C17_23  and  O2_2 
REMARK    2  A    between atoms: C21_27  and  O2_2 
REMARK    3  A    between atoms: C2_8  and  N1_5 
REMARK    4  A    between atoms: N1_5  and  N2_6 
REMARK    5  A    between atoms: C10_16  and  C12_18 
REMARK    6  A    between atoms: C10_16  and  C14_20 
REMARK    7  A    between atoms: C12_18  and  C17_23 
ROOT
HETATM    1  N1  UNK     1      19.849  -3.828  37.423  1.00  0.00    -0.277 N 
HETATM    2  H7  UNK     1      19.148  -3.979  38.134  1.00  0.00     0.189 HD
ENDROOT
BRANCH   1   3
HETATM    3  C2  UNK     1      19.561  -2.897  36.399  1.00  0.00     0.057 A 
HETATM    4  C4  UNK     1      18.771  -1.778  36.659  1.00  0.00    -0.031 A 
HETATM    5  C7  UNK     1      18.499  -0.872  35.640  1.00  0.00     0.047 A 
HETATM    6  C8  UNK     1      18.205  -1.530  38.019  1.00  0.00     0.050 C 
HETATM    7  C3  UNK     1      19.026  -1.101  34.367  1.00  0.00     0.090 A 
HETATM    8  C1  UNK     1      19.819  -2.212  34.077  1.00  0.00     0.006 A 
HETATM    9  O1  UNK     1      18.717  -0.147  33.376  1.00  0.00    -0.275 OA
HETATM   10  C5  UNK     1      20.081  -3.113  35.118  1.00  0.00     0.046 A 
HETATM   11  C6  UNK     1      20.332  -2.373  32.709  1.00  0.00    -0.043 A 
HETATM   12  C11 UNK     1      21.185  -3.558  32.364  1.00  0.00     0.049 C 
HETATM   13  C9  UNK     1      20.023  -1.450  31.788  1.00  0.00     0.090 A 
HETATM   14  C13 UNK     1      19.187  -0.272  32.078  1.00  0.00     0.288 A 
HETATM   15  O3  UNK     1      18.924   0.552  31.208  1.00  0.00    -0.260 OA
ENDBRANCH   1   3
BRANCH   1  16
HETATM   16  N2  UNK     1      21.009  -4.496  37.420  1.00  0.00    -0.172 NA
HETATM   17  C12 UNK     1      21.071  -5.571  38.140  1.00  0.00     0.133 C 
BRANCH  17  18
HETATM   18  C10 UNK     1      20.008  -6.178  39.026  1.00  0.00     0.106 C 
BRANCH  18  19
HETATM   19  C14 UNK     1      19.684  -7.600  38.645  1.00  0.00    -0.052 A 
HETATM   20  C15 UNK     1      20.024  -8.631  39.509  1.00  0.00     0.007 A 
HETATM   21  C18 UNK     1      19.723  -9.947  39.157  1.00  0.00     0.001 A 
HETATM   22  C20 UNK     1      19.086 -10.217  37.946  1.00  0.00     0.000 A 
HETATM   23  C19 UNK     1      18.751  -9.172  37.086  1.00  0.00     0.001 A 
HETATM   24  C16 UNK     1      19.051  -7.856  37.438  1.00  0.00     0.007 A 
ENDBRANCH  18  19
ENDBRANCH  17  18
BRANCH  17  25
HETATM   25  C17 UNK     1      22.393  -6.284  38.099  1.00  0.00     0.309 C 
HETATM   26  O4  UNK     1      23.299  -5.989  38.853  1.00  0.00    -0.258 OA
BRANCH  25  27
HETATM   27  O2  UNK     1      22.346  -7.200  37.114  1.00  0.00    -0.317 OA
BRANCH  27  28
HETATM   28  C21 UNK     1      22.968  -8.451  37.420  1.00  0.00     0.175 C 
HETATM   29  C22 UNK     1      22.456  -9.504  36.460  1.00  0.00     0.034 C 
ENDBRANCH  27  28
ENDBRANCH  25  27
ENDBRANCH  17  25
ENDBRANCH   1  16
TORSDOF 7
ENDMDL
MODEL 3
REMARK VINA RESULT:      -8.1      3.779      9.458
REMARK  7 active torsions:
REMARK  status: ('A' for Active; 'I' for Inactive)
REMARK    1  A    between atoms: C17_23  and  O2_2 
REMARK    2  A    between atoms: C21_27  and  O2_2 
REMARK    3  A    between atoms: C2_8  and  N1_5 
REMARK    4  A    between atoms: N1_5  and  N2_6 
REMARK    5  A    between atoms: C10_16  and  C12_18 
REMARK    6  A    between atoms: C10_16  and  C14_20 
REMARK    7  A    between atoms: C12_18  and  C17_23 
ROOT
HETATM    1  N1  UNK     1      17.974   1.727  33.123  1.00  0.00    -0.277 N 
HETATM    2  H7  UNK     1      17.468   2.553  33.408  1.00  0.00     0.189 HD
ENDROOT
BRANCH   1   3
HETATM    3  C2  UNK     1      18.305   0.779  34.118  1.00  0.00     0.057 A 
HETATM    4  C4  UNK     1      17.942   0.991  35.447  1.00  0.00    -0.031 A 
HETATM    5  C7  UNK     1      18.275   0.046  36.413  1.00  0.00     0.047 A 
HETATM    6  C8  UNK     1      17.199   2.219  35.861  1.00  0.00     0.050 C 
HETATM    7  C3  UNK     1      18.970  -1.102  36.031  1.00  0.00     0.090 A 
HETATM    8  C1  UNK     1      19.347  -1.340  34.708  1.00  0.00     0.006 A 
HETATM    9  O1  UNK     1      19.278  -2.023  37.053  1.00  0.00    -0.275 OA
HETATM   10  C5  UNK     1      19.002  -0.377  33.750  1.00  0.00     0.046 A 
HETATM   11  C6  UNK     1      20.077  -2.577  34.395  1.00  0.00    -0.043 A 
HETATM   12  C11 UNK     1      20.498  -2.862  32.984  1.00  0.00     0.049 C 
HETATM   13  C9  UNK     1      20.355  -3.434  35.388  1.00  0.00     0.090 A 
HETATM   14  C13 UNK     1      19.964  -3.198  36.788  1.00  0.00     0.288 A 
HETATM   15  O3  UNK     1      20.237  -4.005  37.670  1.00  0.00    -0.260 OA
ENDBRANCH   1   3
BRANCH   1  16
HETATM   16  N2  UNK     1      18.348   1.530  31.852  1.00  0.00    -0.172 NA
HETATM   17  C12 UNK     1      18.224   2.531  31.040  1.00  0.00     0.133 C 
BRANCH  17  18
HETATM   18  C10 UNK     1      17.677   3.912  31.318  1.00  0.00     0.106 C 
BRANCH  18  19
HETATM   19  C14 UNK     1      18.715   4.835  31.905  1.00  0.00    -0.052 A 
HETATM   20  C15 UNK     1      19.734   5.316  31.096  1.00  0.00     0.007 A 
HETATM   21  C18 UNK     1      20.694   6.170  31.638  1.00  0.00     0.001 A 
HETATM   22  C20 UNK     1      20.623   6.534  32.983  1.00  0.00     0.000 A 
HETATM   23  C19 UNK     1      19.594   6.043  33.786  1.00  0.00     0.001 A 
HETATM   24  C16 UNK     1      18.634   5.189  33.244  1.00  0.00     0.007 A 
ENDBRANCH  18  19
ENDBRANCH  17  18
BRANCH  17  25
HETATM   25  C17 UNK     1      18.660   2.258  29.629  1.00  0.00     0.309 C 
HETATM   26  O4  UNK     1      18.125   2.798  28.681  1.00  0.00    -0.258 OA
BRANCH  25  27
HETATM   27  O2  UNK     1      19.650   1.347  29.663  1.00  0.00    -0.317 OA
BRANCH  27  28
HETATM   28  C21 UNK     1      19.483   0.236  28.778  1.00  0.00     0.175 C 
HETATM   29  C22 UNK     1      20.581  -0.773  29.038  1.00  0.00     0.034 C 
ENDBRANCH  27  28
ENDBRANCH  25  27
ENDBRANCH  17  25
ENDBRANCH   1  16
TORSDOF 7
ENDMDL
MODEL 4
REMARK VINA RESULT:      -8.1      4.053      9.987
REMARK  7 active torsions:
REMARK  status: ('A' for Active; 'I' for Inactive)
REMARK    1  A    between atoms: C17_23  and  O2_2 
REMARK    2  A    between atoms: C21_27  and  O2_2 
REMARK    3  A    between atoms: C2_8  and  N1_5 
REMARK    4  A    between atoms: N1_5  and  N2_6 
REMARK    5  A    between atoms: C10_16  and  C12_18 
REMARK    6  A    between atoms: C10_16  and  C14_20 
REMARK    7  A    between atoms: C12_18  and  C17_23 
ROOT
HETATM    1  N1  UNK     1      17.544   2.182  33.810  1.00  0.00    -0.277 N 
HETATM    2  H7  UNK     1      17.146   2.929  34.360  1.00  0.00     0.189 HD
ENDROOT
BRANCH   1   3
HETATM    3  C2  UNK     1      18.024   1.041  34.494  1.00  0.00     0.057 A 
HETATM    4  C4  UNK     1      17.809   0.893  35.863  1.00  0.00    -0.031 A 
HETATM    5  C7  UNK     1      18.287  -0.237  36.519  1.00  0.00     0.047 A 
HETATM    6  C8  UNK     1      17.072   1.929  36.648  1.00  0.00     0.050 C 
HETATM    7  C3  UNK     1      18.977  -1.206  35.789  1.00  0.00     0.090 A 
HETATM    8  C1  UNK     1      19.207  -1.085  34.418  1.00  0.00     0.006 A 
HETATM    9  O1  UNK     1      19.436  -2.329  36.508  1.00  0.00    -0.275 OA
HETATM   10  C5  UNK     1      18.717   0.061  33.776  1.00  0.00     0.046 A 
HETATM   11  C6  UNK     1      19.943  -2.155  33.730  1.00  0.00    -0.043 A 
HETATM   12  C11 UNK     1      20.209  -2.053  32.256  1.00  0.00     0.049 C 
HETATM   13  C9  UNK     1      20.366  -3.210  34.439  1.00  0.00     0.090 A 
HETATM   14  C13 UNK     1      20.131  -3.354  35.886  1.00  0.00     0.288 A 
HETATM   15  O3  UNK     1      20.535  -4.334  36.502  1.00  0.00    -0.260 OA
ENDBRANCH   1   3
BRANCH   1  16
HETATM   16  N2  UNK     1      17.643   2.260  32.477  1.00  0.00    -0.172 NA
HETATM   17  C12 UNK     1      18.214   3.317  31.991  1.00  0.00     0.133 C 
BRANCH  17  18
HETATM   18  C10 UNK     1      18.770   4.514  32.726  1.00  0.00     0.106 C 
BRANCH  18  19
HETATM   19  C14 UNK     1      17.715   5.550  33.019  1.00  0.00    -0.052 A 
HETATM   20  C15 UNK     1      16.835   5.929  32.015  1.00  0.00     0.007 A 
HETATM   21  C18 UNK     1      15.858   6.887  32.286  1.00  0.00     0.001 A 
HETATM   22  C20 UNK     1      15.770   7.454  33.557  1.00  0.00     0.000 A 
HETATM   23  C19 UNK     1      16.661   7.064  34.558  1.00  0.00     0.001 A 
HETATM   24  C16 UNK     1      17.638   6.107  34.287  1.00  0.00     0.007 A 
ENDBRANCH  18  19
ENDBRANCH  17  18
BRANCH  17  25
HETATM   25  C17 UNK     1      18.304   3.354  30.492  1.00  0.00     0.309 C 
HETATM   26  O4  UNK     1      18.978   4.184  29.915  1.00  0.00    -0.258 OA
BRANCH  25  27
HETATM   27  O2  UNK     1      17.517   2.380  29.999  1.00  0.00    -0.317 OA
BRANCH  27  28
HETATM   28  C21 UNK     1      18.008   1.746  28.814  1.00  0.00     0.175 C 
HETATM   29  C22 UNK     1      19.165   0.841  29.181  1.00  0.00     0.034 C 
ENDBRANCH  27  28
ENDBRANCH  25  27
ENDBRANCH  17  25
ENDBRANCH   1  16
TORSDOF 7
ENDMDL
MODEL 5
REMARK VINA RESULT:      -8.0      5.647      9.892
REMARK  7 active torsions:
REMARK  status: ('A' for Active; 'I' for Inactive)
REMARK    1  A    between atoms: C17_23  and  O2_2 
REMARK    2  A    between atoms: C21_27  and  O2_2 
REMARK    3  A    between atoms: C2_8  and  N1_5 
REMARK    4  A    between atoms: N1_5  and  N2_6 
REMARK    5  A    between atoms: C10_16  and  C12_18 
REMARK    6  A    between atoms: C10_16  and  C14_20 
REMARK    7  A    between atoms: C12_18  and  C17_23 
ROOT
HETATM    1  N1  UNK     1      25.086  -8.288  39.029  1.00  0.00    -0.277 N 
HETATM    2  H7  UNK     1      24.678  -9.094  39.481  1.00  0.00     0.189 HD
ENDROOT
BRANCH   1   3
HETATM    3  C2  UNK     1      26.488  -8.273  38.845  1.00  0.00     0.057 A 
HETATM    4  C4  UNK     1      27.194  -9.464  38.686  1.00  0.00    -0.031 A 
HETATM    5  C7  UNK     1      28.573  -9.430  38.504  1.00  0.00     0.047 A 
HETATM    6  C8  UNK     1      26.499 -10.786  38.709  1.00  0.00     0.050 C 
HETATM    7  C3  UNK     1      29.227  -8.197  38.483  1.00  0.00     0.090 A 
HETATM    8  C1  UNK     1      28.546  -6.989  38.640  1.00  0.00     0.006 A 
HETATM    9  O1  UNK     1      30.623  -8.226  38.293  1.00  0.00    -0.275 OA
HETATM   10  C5  UNK     1      27.157  -7.045  38.822  1.00  0.00     0.046 A 
HETATM   11  C6  UNK     1      29.315  -5.737  38.603  1.00  0.00    -0.043 A 
HETATM   12  C11 UNK     1      28.612  -4.422  38.771  1.00  0.00     0.049 C 
HETATM   13  C9  UNK     1      30.641  -5.796  38.421  1.00  0.00     0.090 A 
HETATM   14  C13 UNK     1      31.375  -7.062  38.255  1.00  0.00     0.288 A 
HETATM   15  O3  UNK     1      32.590  -7.076  38.090  1.00  0.00    -0.260 OA
ENDBRANCH   1   3
BRANCH   1  16
HETATM   16  N2  UNK     1      24.343  -7.247  38.633  1.00  0.00    -0.172 NA
HETATM   17  C12 UNK     1      23.100  -7.239  38.999  1.00  0.00     0.133 C 
BRANCH  17  18
HETATM   18  C10 UNK     1      22.343  -8.272  39.801  1.00  0.00     0.106 C 
BRANCH  18  19
HETATM   19  C14 UNK     1      21.456  -9.133  38.938  1.00  0.00    -0.052 A 
HETATM   20  C15 UNK     1      20.241  -9.577  39.440  1.00  0.00     0.007 A 
HETATM   21  C18 UNK     1      19.419 -10.373  38.642  1.00  0.00     0.001 A 
HETATM   22  C20 UNK     1      19.822 -10.715  37.350  1.00  0.00     0.000 A 
HETATM   23  C19 UNK     1      21.046 -10.263  36.858  1.00  0.00     0.001 A 
HETATM   24  C16 UNK     1      21.867  -9.467  37.656  1.00  0.00     0.007 A 
ENDBRANCH  18  19
ENDBRANCH  17  18
BRANCH  17  25
HETATM   25  C17 UNK     1      22.312  -6.049  38.530  1.00  0.00     0.309 C 
HETATM   26  O4  UNK     1      22.851  -5.095  38.004  1.00  0.00    -0.258 OA
BRANCH  25  27
HETATM   27  O2  UNK     1      21.017  -6.256  38.834  1.00  0.00    -0.317 OA
BRANCH  27  28
HETATM   28  C21 UNK     1      20.080  -5.689  37.913  1.00  0.00     0.175 C 
HETATM   29  C22 UNK     1      19.040  -6.731  37.563  1.00  0.00     0.034 C 
ENDBRANCH  27  28
ENDBRANCH  25  27
ENDBRANCH  17  25
ENDBRANCH   1  16
TORSDOF 7
ENDMDL
MODEL 6
REMARK VINA RESULT:      -7.9     10.011     12.601
REMARK  7 active torsions:
REMARK  status: ('A' for Active; 'I' for Inactive)
REMARK    1  A    between atoms: C17_23  and  O2_2 
REMARK    2  A    between atoms: C21_27  and  O2_2 
REMARK    3  A    between atoms: C2_8  and  N1_5 
REMARK    4  A    between atoms: N1_5  and  N2_6 
REMARK    5  A    between atoms: C10_16  and  C12_18 
REMARK    6  A    between atoms: C10_16  and  C14_20 
REMARK    7  A    between atoms: C12_18  and  C17_23 
ROOT
HETATM    1  N1  UNK     1      29.563  -6.130  29.907  1.00  0.00    -0.277 N 
HETATM    2  H7  UNK     1      28.899  -5.647  29.318  1.00  0.00     0.189 HD
ENDROOT
BRANCH   1   3
HETATM    3  C2  UNK     1      29.276  -6.220  31.289  1.00  0.00     0.057 A 
HETATM    4  C4  UNK     1      27.992  -6.538  31.727  1.00  0.00    -0.031 A 
HETATM    5  C7  UNK     1      27.729  -6.624  33.090  1.00  0.00     0.047 A 
HETATM    6  C8  UNK     1      26.883  -6.790  30.758  1.00  0.00     0.050 C 
HETATM    7  C3  UNK     1      28.762  -6.389  33.999  1.00  0.00     0.090 A 
HETATM    8  C1  UNK     1      30.057  -6.068  33.590  1.00  0.00     0.006 A 
HETATM    9  O1  UNK     1      28.435  -6.492  35.366  1.00  0.00    -0.275 OA
HETATM   10  C5  UNK     1      30.302  -5.987  32.211  1.00  0.00     0.046 A 
HETATM   11  C6  UNK     1      31.083  -5.837  34.616  1.00  0.00    -0.043 A 
HETATM   12  C11 UNK     1      32.485  -5.488  34.208  1.00  0.00     0.049 C 
HETATM   13  C9  UNK     1      30.743  -5.943  35.908  1.00  0.00     0.090 A 
HETATM   14  C13 UNK     1      29.382  -6.280  36.356  1.00  0.00     0.288 A 
HETATM   15  O3  UNK     1      29.108  -6.367  37.549  1.00  0.00    -0.260 OA
ENDBRANCH   1   3
BRANCH   1  16
HETATM   16  N2  UNK     1      30.694  -6.652  29.418  1.00  0.00    -0.172 NA
HETATM   17  C12 UNK     1      30.658  -7.893  29.049  1.00  0.00     0.133 C 
BRANCH  17  18
HETATM   18  C10 UNK     1      29.506  -8.868  29.122  1.00  0.00     0.106 C 
BRANCH  18  19
HETATM   19  C14 UNK     1      29.765  -9.995  30.090  1.00  0.00    -0.052 A 
HETATM   20  C15 UNK     1      29.620  -9.771  31.451  1.00  0.00     0.007 A 
HETATM   21  C18 UNK     1      29.860 -10.813  32.347  1.00  0.00     0.001 A 
HETATM   22  C20 UNK     1      30.240 -12.068  31.871  1.00  0.00     0.000 A 
HETATM   23  C19 UNK     1      30.383 -12.280  30.499  1.00  0.00     0.001 A 
HETATM   24  C16 UNK     1      30.143 -11.238  29.604  1.00  0.00     0.007 A 
ENDBRANCH  18  19
ENDBRANCH  17  18
BRANCH  17  25
HETATM   25  C17 UNK     1      31.952  -8.429  28.505  1.00  0.00     0.309 C 
HETATM   26  O4  UNK     1      31.990  -9.077  27.477  1.00  0.00    -0.258 OA
BRANCH  25  27
HETATM   27  O2  UNK     1      32.939  -8.088  29.353  1.00  0.00    -0.317 OA
BRANCH  27  28
HETATM   28  C21 UNK     1      33.302  -9.099  30.298  1.00  0.00     0.175 C 
HETATM   29  C22 UNK     1      33.105  -8.559  31.699  1.00  0.00     0.034 C 
ENDBRANCH  27  28
ENDBRANCH  25  27
ENDBRANCH  17  25
ENDBRANCH   1  16
TORSDOF 7
ENDMDL
MODEL 7
REMARK VINA RESULT:      -7.8      2.605      5.721
REMARK  7 active torsions:
REMARK  status: ('A' for Active; 'I' for Inactive)
REMARK    1  A    between atoms: C17_23  and  O2_2 
REMARK    2  A    between atoms: C21_27  and  O2_2 
REMARK    3  A    between atoms: C2_8  and  N1_5 
REMARK    4  A    between atoms: N1_5  and  N2_6 
REMARK    5  A    between atoms: C10_16  and  C12_18 
REMARK    6  A    between atoms: C10_16  and  C14_20 
REMARK    7  A    between atoms: C12_18  and  C17_23 
ROOT
HETATM    1  N1  UNK     1      19.025  -1.705  33.228  1.00  0.00    -0.277 N 
HETATM    2  H7  UNK     1      18.255  -2.347  33.112  1.00  0.00     0.189 HD
ENDROOT
BRANCH   1   3
HETATM    3  C2  UNK     1      19.061  -0.559  32.400  1.00  0.00     0.057 A 
HETATM    4  C4  UNK     1      19.454  -0.660  31.067  1.00  0.00    -0.031 A 
HETATM    5  C7  UNK     1      19.481   0.477  30.267  1.00  0.00     0.047 A 
HETATM    6  C8  UNK     1      19.851  -1.973  30.474  1.00  0.00     0.050 C 
HETATM    7  C3  UNK     1      19.111   1.706  30.817  1.00  0.00     0.090 A 
HETATM    8  C1  UNK     1      18.714   1.837  32.149  1.00  0.00     0.006 A 
HETATM    9  O1  UNK     1      19.157   2.822  29.957  1.00  0.00    -0.275 OA
HETATM   10  C5  UNK     1      18.693   0.679  32.938  1.00  0.00     0.046 A 
HETATM   11  C6  UNK     1      18.341   3.170  32.644  1.00  0.00    -0.043 A 
HETATM   12  C11 UNK     1      17.911   3.345  34.071  1.00  0.00     0.049 C 
HETATM   13  C9  UNK     1      18.394   4.212  31.804  1.00  0.00     0.090 A 
HETATM   14  C13 UNK     1      18.811   4.090  30.397  1.00  0.00     0.288 A 
HETATM   15  O3  UNK     1      18.847   5.068  29.657  1.00  0.00    -0.260 OA
ENDBRANCH   1   3
BRANCH   1  16
HETATM   16  N2  UNK     1      20.003  -1.926  34.116  1.00  0.00    -0.172 NA
HETATM   17  C12 UNK     1      19.646  -2.284  35.308  1.00  0.00     0.133 C 
BRANCH  17  18
HETATM   18  C10 UNK     1      18.252  -2.464  35.864  1.00  0.00     0.106 C 
BRANCH  18  19
HETATM   19  C14 UNK     1      17.618  -1.155  36.260  1.00  0.00    -0.052 A 
HETATM   20  C15 UNK     1      16.540  -0.672  35.533  1.00  0.00     0.007 A 
HETATM   21  C18 UNK     1      15.952   0.539  35.900  1.00  0.00     0.001 A 
HETATM   22  C20 UNK     1      16.449   1.253  36.991  1.00  0.00     0.000 A 
HETATM   23  C19 UNK     1      17.534   0.756  37.714  1.00  0.00     0.001 A 
HETATM   24  C16 UNK     1      18.121  -0.454  37.347  1.00  0.00     0.007 A 
ENDBRANCH  18  19
ENDBRANCH  17  18
BRANCH  17  25
HETATM   25  C17 UNK     1      20.781  -2.523  36.263  1.00  0.00     0.309 C 
HETATM   26  O4  UNK     1      21.911  -2.154  36.013  1.00  0.00    -0.258 OA
BRANCH  25  27
HETATM   27  O2  UNK     1      20.303  -3.200  37.323  1.00  0.00    -0.317 OA
BRANCH  27  28
HETATM   28  C21 UNK     1      20.930  -4.462  37.569  1.00  0.00     0.175 C 
HETATM   29  C22 UNK     1      20.186  -5.539  36.808  1.00  0.00     0.034 C 
ENDBRANCH  27  28
ENDBRANCH  25  27
ENDBRANCH  17  25
ENDBRANCH   1  16
TORSDOF 7
ENDMDL
MODEL 8
REMARK VINA RESULT:      -7.8      9.874     12.463
REMARK  7 active torsions:
REMARK  status: ('A' for Active; 'I' for Inactive)
REMARK    1  A    between atoms: C17_23  and  O2_2 
REMARK    2  A    between atoms: C21_27  and  O2_2 
REMARK    3  A    between atoms: C2_8  and  N1_5 
REMARK    4  A    between atoms: N1_5  and  N2_6 
REMARK    5  A    between atoms: C10_16  and  C12_18 
REMARK    6  A    between atoms: C10_16  and  C14_20 
REMARK    7  A    between atoms: C12_18  and  C17_23 
ROOT
HETATM    1  N1  UNK     1      32.513  -6.296  33.460  1.00  0.00    -0.277 N 
HETATM    2  H7  UNK     1      32.927  -5.692  32.764  1.00  0.00     0.189 HD
ENDROOT
BRANCH   1   3
HETATM    3  C2  UNK     1      32.114  -5.715  34.685  1.00  0.00     0.057 A 
HETATM    4  C4  UNK     1      32.915  -4.763  35.313  1.00  0.00    -0.031 A 
HETATM    5  C7  UNK     1      32.504  -4.200  36.517  1.00  0.00     0.047 A 
HETATM    6  C8  UNK     1      34.215  -4.331  34.717  1.00  0.00     0.050 C 
HETATM    7  C3  UNK     1      31.291  -4.601  37.077  1.00  0.00     0.090 A 
HETATM    8  C1  UNK     1      30.468  -5.552  36.472  1.00  0.00     0.006 A 
HETATM    9  O1  UNK     1      30.928  -3.995  38.297  1.00  0.00    -0.275 OA
HETATM   10  C5  UNK     1      30.899  -6.107  35.258  1.00  0.00     0.046 A 
HETATM   11  C6  UNK     1      29.206  -5.915  37.132  1.00  0.00    -0.043 A 
HETATM   12  C11 UNK     1      28.300  -6.935  36.508  1.00  0.00     0.049 C 
HETATM   13  C9  UNK     1      28.887  -5.321  38.290  1.00  0.00     0.090 A 
HETATM   14  C13 UNK     1      29.744  -4.317  38.942  1.00  0.00     0.288 A 
HETATM   15  O3  UNK     1      29.418  -3.795  40.004  1.00  0.00    -0.260 OA
ENDBRANCH   1   3
BRANCH   1  16
HETATM   16  N2  UNK     1      32.362  -7.611  33.256  1.00  0.00    -0.172 NA
HETATM   17  C12 UNK     1      31.784  -7.973  32.155  1.00  0.00     0.133 C 
BRANCH  17  18
HETATM   18  C10 UNK     1      31.216  -7.106  31.056  1.00  0.00     0.106 C 
BRANCH  18  19
HETATM   19  C14 UNK     1      29.713  -6.997  31.129  1.00  0.00    -0.052 A 
HETATM   20  C15 UNK     1      29.135  -6.220  32.123  1.00  0.00     0.007 A 
HETATM   21  C18 UNK     1      27.745  -6.118  32.190  1.00  0.00     0.001 A 
HETATM   22  C20 UNK     1      26.950  -6.792  31.262  1.00  0.00     0.000 A 
HETATM   23  C19 UNK     1      27.545  -7.569  30.268  1.00  0.00     0.001 A 
HETATM   24  C16 UNK     1      28.934  -7.672  30.201  1.00  0.00     0.007 A 
ENDBRANCH  18  19
ENDBRANCH  17  18
BRANCH  17  25
HETATM   25  C17 UNK     1      31.643  -9.458  31.974  1.00  0.00     0.309 C 
HETATM   26  O4  UNK     1      32.036 -10.017  30.969  1.00  0.00    -0.258 OA
BRANCH  25  27
HETATM   27  O2  UNK     1      31.015  -9.956  33.056  1.00  0.00    -0.317 OA
BRANCH  27  28
HETATM   28  C21 UNK     1      29.647 -10.319  32.849  1.00  0.00     0.175 C 
HETATM   29  C22 UNK     1      28.778  -9.535  33.808  1.00  0.00     0.034 C 
ENDBRANCH  27  28
ENDBRANCH  25  27
ENDBRANCH  17  25
ENDBRANCH   1  16
TORSDOF 7
ENDMDL
MODEL 9
REMARK VINA RESULT:      -7.7      5.733     11.886
REMARK  7 active torsions:
REMARK  status: ('A' for Active; 'I' for Inactive)
REMARK    1  A    between atoms: C17_23  and  O2_2 
REMARK    2  A    between atoms: C21_27  and  O2_2 
REMARK    3  A    between atoms: C2_8  and  N1_5 
REMARK    4  A    between atoms: N1_5  and  N2_6 
REMARK    5  A    between atoms: C10_16  and  C12_18 
REMARK    6  A    between atoms: C10_16  and  C14_20 
REMARK    7  A    between atoms: C12_18  and  C17_23 
ROOT
HETATM    1  N1  UNK     1      17.910   3.663  33.555  1.00  0.00    -0.277 N 
HETATM    2  H7  UNK     1      17.040   3.902  33.102  1.00  0.00     0.189 HD
ENDROOT
BRANCH   1   3
HETATM    3  C2  UNK     1      18.097   2.322  33.960  1.00  0.00     0.057 A 
HETATM    4  C4  UNK     1      18.458   1.345  33.033  1.00  0.00    -0.031 A 
HETATM    5  C7  UNK     1      18.639   0.031  33.449  1.00  0.00     0.047 A 
HETATM    6  C8  UNK     1      18.654   1.681  31.590  1.00  0.00     0.050 C 
HETATM    7  C3  UNK     1      18.455  -0.288  34.796  1.00  0.00     0.090 A 
HETATM    8  C1  UNK     1      18.094   0.668  35.746  1.00  0.00     0.006 A 
HETATM    9  O1  UNK     1      18.655  -1.636  35.158  1.00  0.00    -0.275 OA
HETATM   10  C5  UNK     1      17.917   1.987  35.306  1.00  0.00     0.046 A 
HETATM   11  C6  UNK     1      17.924   0.243  37.143  1.00  0.00    -0.043 A 
HETATM   12  C11 UNK     1      17.533   1.247  38.188  1.00  0.00     0.049 C 
HETATM   13  C9  UNK     1      18.120  -1.044  37.458  1.00  0.00     0.090 A 
HETATM   14  C13 UNK     1      18.501  -2.065  36.467  1.00  0.00     0.288 A 
HETATM   15  O3  UNK     1      18.672  -3.235  36.793  1.00  0.00    -0.260 OA
ENDBRANCH   1   3
BRANCH   1  16
HETATM   16  N2  UNK     1      18.858   4.578  33.795  1.00  0.00    -0.172 NA
HETATM   17  C12 UNK     1      18.827   5.658  33.079  1.00  0.00     0.133 C 
BRANCH  17  18
HETATM   18  C10 UNK     1      17.874   6.029  31.968  1.00  0.00     0.106 C 
BRANCH  18  19
HETATM   19  C14 UNK     1      16.780   6.957  32.434  1.00  0.00    -0.052 A 
HETATM   20  C15 UNK     1      16.332   7.961  31.587  1.00  0.00     0.007 A 
HETATM   21  C18 UNK     1      15.320   8.819  32.018  1.00  0.00     0.001 A 
HETATM   22  C20 UNK     1      14.767   8.663  33.289  1.00  0.00     0.000 A 
HETATM   23  C19 UNK     1      15.226   7.649  34.130  1.00  0.00     0.001 A 
HETATM   24  C16 UNK     1      16.239   6.791  33.700  1.00  0.00     0.007 A 
ENDBRANCH  18  19
ENDBRANCH  17  18
BRANCH  17  25
HETATM   25  C17 UNK     1      19.909   6.653  33.391  1.00  0.00     0.309 C 
HETATM   26  O4  UNK     1      20.935   6.702  32.740  1.00  0.00    -0.258 OA
BRANCH  25  27
HETATM   27  O2  UNK     1      19.527   7.368  34.464  1.00  0.00    -0.317 OA
BRANCH  27  28
HETATM   28  C21 UNK     1      19.310   8.761  34.218  1.00  0.00     0.175 C 
HETATM   29  C22 UNK     1      20.557   9.529  34.600  1.00  0.00     0.034 C 
ENDBRANCH  27  28
ENDBRANCH  25  27
ENDBRANCH  17  25
ENDBRANCH   1  16
TORSDOF 7
ENDMDL
MODEL 10
REMARK VINA RESULT:      -7.7      6.924     10.405
REMARK  7 active torsions:
REMARK  status: ('A' for Active; 'I' for Inactive)
REMARK    1  A    between atoms: C17_23  and  O2_2 
REMARK    2  A    between atoms: C21_27  and  O2_2 
REMARK    3  A    between atoms: C2_8  and  N1_5 
REMARK    4  A    between atoms: N1_5  and  N2_6 
REMARK    5  A    between atoms: C10_16  and  C12_18 
REMARK    6  A    between atoms: C10_16  and  C14_20 
REMARK    7  A    between atoms: C12_18  and  C17_23 
ROOT
HETATM    1  N1  UNK     1      17.992   4.374  31.599  1.00  0.00    -0.277 N 
HETATM    2  H7  UNK     1      18.357   4.272  30.663  1.00  0.00     0.189 HD
ENDROOT
BRANCH   1   3
HETATM    3  C2  UNK     1      17.770   5.685  32.081  1.00  0.00     0.057 A 
HETATM    4  C4  UNK     1      18.841   6.489  32.468  1.00  0.00    -0.031 A 
HETATM    5  C7  UNK     1      18.603   7.776  32.938  1.00  0.00     0.047 A 
HETATM    6  C8  UNK     1      20.248   5.994  32.389  1.00  0.00     0.050 C 
HETATM    7  C3  UNK     1      17.290   8.242  33.014  1.00  0.00     0.090 A 
HETATM    8  C1  UNK     1      16.198   7.459  32.635  1.00  0.00     0.006 A 
HETATM    9  O1  UNK     1      17.112   9.554  33.497  1.00  0.00    -0.275 OA
HETATM   10  C5  UNK     1      16.459   6.165  32.163  1.00  0.00     0.046 A 
HETATM   11  C6  UNK     1      14.848   8.031  32.747  1.00  0.00    -0.043 A 
HETATM   12  C11 UNK     1      13.654   7.215  32.349  1.00  0.00     0.049 C 
HETATM   13  C9  UNK     1      14.711   9.282  33.209  1.00  0.00     0.090 A 
HETATM   14  C13 UNK     1      15.852  10.120  33.614  1.00  0.00     0.288 A 
HETATM   15  O3  UNK     1      15.687  11.261  34.032  1.00  0.00    -0.260 OA
ENDBRANCH   1   3
BRANCH   1  16
HETATM   16  N2  UNK     1      17.741   3.317  32.381  1.00  0.00    -0.172 NA
HETATM   17  C12 UNK     1      18.547   2.307  32.280  1.00  0.00     0.133 C 
BRANCH  17  18
HETATM   18  C10 UNK     1      19.736   2.134  31.365  1.00  0.00     0.106 C 
BRANCH  18  19
HETATM   19  C14 UNK     1      19.419   1.278  30.165  1.00  0.00    -0.052 A 
HETATM   20  C15 UNK     1      20.208   0.170  29.891  1.00  0.00     0.007 A 
HETATM   21  C18 UNK     1      19.915  -0.622  28.781  1.00  0.00     0.001 A 
HETATM   22  C20 UNK     1      18.835  -0.299  27.958  1.00  0.00     0.000 A 
HETATM   23  C19 UNK     1      18.050   0.818  28.245  1.00  0.00     0.001 A 
HETATM   24  C16 UNK     1      18.344   1.611  29.355  1.00  0.00     0.007 A 
ENDBRANCH  18  19
ENDBRANCH  17  18
BRANCH  17  25
HETATM   25  C17 UNK     1      18.223   1.148  33.181  1.00  0.00     0.309 C 
HETATM   26  O4  UNK     1      18.934   0.163  33.230  1.00  0.00    -0.258 OA
BRANCH  25  27
HETATM   27  O2  UNK     1      17.070   1.420  33.818  1.00  0.00    -0.317 OA
BRANCH  27  28
HETATM   28  C21 UNK     1      16.776   0.567  34.928  1.00  0.00     0.175 C 
HETATM   29  C22 UNK     1      17.274   1.221  36.199  1.00  0.00     0.034 C 
ENDBRANCH  27  28
ENDBRANCH  25  27
ENDBRANCH  17  25
ENDBRANCH   1  16
TORSDOF 7
ENDMDL
