MODEL 1
REMARK VINA RESULT:      -8.8      0.000      0.000
REMARK  5 active torsions:
REMARK  status: ('A' for Active; 'I' for Inactive)
REMARK    1  A    between atoms: C2_7  and  N1_5 
REMARK       I    between atoms: C5_10  and  N1_5 
REMARK    2  A    between atoms: C1_6  and  C3_8 
REMARK    3  A    between atoms: C1_6  and  C5_10 
REMARK    4  A    between atoms: C12_17  and  C4_9 
REMARK    5  A    between atoms: C6_11  and  C7_12 
ROOT
HETATM    1  C1  UNK     1      18.338   2.967  33.957  1.00  0.00     0.043 C 
HETATM    2  C6  UNK     1      18.318   2.651  35.278  1.00  0.00     0.029 C 
ENDROOT
BRANCH   1   3
HETATM    3  C3  UNK     1      18.485   4.359  33.487  1.00  0.00    -0.021 A 
HETATM    4  C10 UNK     1      19.381   5.198  34.129  1.00  0.00     0.012 A 
HETATM    5  C17 UNK     1      19.519   6.513  33.685  1.00  0.00     0.001 A 
HETATM    6  C19 UNK     1      18.761   6.968  32.607  1.00  0.00     0.000 A 
HETATM    7  C18 UNK     1      17.864   6.109  31.972  1.00  0.00     0.001 A 
HETATM    8  C11 UNK     1      17.725   4.794  32.415  1.00  0.00     0.012 A 
ENDBRANCH   1   3
BRANCH   1   9
HETATM    9  C5  UNK     1      18.236   1.811  32.988  1.00  0.00     0.257 C 
HETATM   10  O1  UNK     1      17.293   1.028  33.052  1.00  0.00    -0.267 OA
HETATM   11  N1  UNK     1      19.285   1.773  32.077  1.00  0.00    -0.322 N 
HETATM   12  H1  UNK     1      19.990   2.503  32.156  1.00  0.00     0.169 HD
BRANCH  11  13
HETATM   13  C2  UNK     1      19.494   0.829  31.041  1.00  0.00     0.050 A 
HETATM   14  C4  UNK     1      19.051   1.095  29.757  1.00  0.00     0.074 A 
HETATM   15  C9  UNK     1      19.267   0.153  28.752  1.00  0.00     0.018 A 
HETATM   16  C14 UNK     1      19.921  -1.044  29.045  1.00  0.00     0.001 A 
HETATM   17  C13 UNK     1      20.360  -1.297  30.344  1.00  0.00     0.002 A 
HETATM   18  C8  UNK     1      20.145  -0.355  31.350  1.00  0.00     0.030 A 
BRANCH  14  19
HETATM   19  C12 UNK     1      18.349   2.368  29.412  1.00  0.00     0.419 C 
HETATM   20  F1  UNK     1      17.218   2.583  30.146  1.00  0.00    -0.166 F 
HETATM   21  F2  UNK     1      19.116   3.481  29.603  1.00  0.00    -0.166 F 
HETATM   22  F3  UNK     1      17.956   2.412  28.107  1.00  0.00    -0.166 F 
ENDBRANCH  14  19
ENDBRANCH  11  13
ENDBRANCH   1   9
BRANCH   2  23
HETATM   23  C7  UNK     1      18.179   1.320  35.849  1.00  0.00    -0.035 A 
HETATM   24  C15 UNK     1      17.042   0.994  36.589  1.00  0.00     0.011 A 
HETATM   25  C20 UNK     1      16.909  -0.282  37.136  1.00  0.00     0.001 A 
HETATM   26  C22 UNK     1      17.913  -1.232  36.944  1.00  0.00     0.000 A 
HETATM   27  C21 UNK     1      19.049  -0.905  36.205  1.00  0.00     0.001 A 
HETATM   28  C16 UNK     1      19.183   0.371  35.657  1.00  0.00     0.011 A 
ENDBRANCH   2  23
TORSDOF 5
ENDMDL
MODEL 2
REMARK VINA RESULT:      -8.3      2.226      6.233
REMARK  5 active torsions:
REMARK  status: ('A' for Active; 'I' for Inactive)
REMARK    1  A    between atoms: C2_7  and  N1_5 
REMARK       I    between atoms: C5_10  and  N1_5 
REMARK    2  A    between atoms: C1_6  and  C3_8 
REMARK    3  A    between atoms: C1_6  and  C5_10 
REMARK    4  A    between atoms: C12_17  and  C4_9 
REMARK    5  A    between atoms: C6_11  and  C7_12 
ROOT
HETATM    1  C1  UNK     1      18.692   3.122  30.969  1.00  0.00     0.043 C 
HETATM    2  C6  UNK     1      19.053   4.396  30.661  1.00  0.00     0.029 C 
ENDROOT
BRANCH   1   3
HETATM    3  C3  UNK     1      18.776   2.025  29.985  1.00  0.00    -0.021 A 
HETATM    4  C10 UNK     1      19.817   1.117  30.074  1.00  0.00     0.012 A 
HETATM    5  C17 UNK     1      19.896   0.080  29.144  1.00  0.00     0.001 A 
HETATM    6  C19 UNK     1      18.934  -0.033  28.141  1.00  0.00     0.000 A 
HETATM    7  C18 UNK     1      17.892   0.891  28.067  1.00  0.00     0.001 A 
HETATM    8  C11 UNK     1      17.812   1.928  28.996  1.00  0.00     0.012 A 
ENDBRANCH   1   3
BRANCH   1   9
HETATM    9  C5  UNK     1      18.229   2.880  32.388  1.00  0.00     0.257 C 
HETATM   10  O1  UNK     1      17.561   3.725  32.977  1.00  0.00    -0.267 OA
HETATM   11  N1  UNK     1      18.634   1.647  32.887  1.00  0.00    -0.322 N 
HETATM   12  H1  UNK     1      19.183   1.058  32.266  1.00  0.00     0.169 HD
BRANCH  11  13
HETATM   13  C2  UNK     1      18.372   1.110  34.171  1.00  0.00     0.050 A 
HETATM   14  C4  UNK     1      18.483  -0.253  34.391  1.00  0.00     0.074 A 
HETATM   15  C9  UNK     1      18.222  -0.762  35.663  1.00  0.00     0.018 A 
HETATM   16  C14 UNK     1      17.852   0.097  36.697  1.00  0.00     0.001 A 
HETATM   17  C13 UNK     1      17.745   1.467  36.459  1.00  0.00     0.002 A 
HETATM   18  C8  UNK     1      18.005   1.977  35.188  1.00  0.00     0.030 A 
BRANCH  14  19
HETATM   19  C12 UNK     1      18.878  -1.198  33.303  1.00  0.00     0.419 C 
HETATM   20  F1  UNK     1      17.843  -1.554  32.488  1.00  0.00    -0.166 F 
HETATM   21  F2  UNK     1      19.835  -0.697  32.469  1.00  0.00    -0.166 F 
HETATM   22  F3  UNK     1      19.387  -2.368  33.786  1.00  0.00    -0.166 F 
ENDBRANCH  14  19
ENDBRANCH  11  13
ENDBRANCH   1   9
BRANCH   2  23
HETATM   23  C7  UNK     1      19.010   5.547  31.549  1.00  0.00    -0.035 A 
HETATM   24  C15 UNK     1      20.103   5.843  32.363  1.00  0.00     0.011 A 
HETATM   25  C20 UNK     1      20.062   6.947  33.213  1.00  0.00     0.001 A 
HETATM   26  C22 UNK     1      18.926   7.756  33.251  1.00  0.00     0.000 A 
HETATM   27  C21 UNK     1      17.832   7.460  32.438  1.00  0.00     0.001 A 
HETATM   28  C16 UNK     1      17.873   6.356  31.587  1.00  0.00     0.011 A 
ENDBRANCH   2  23
TORSDOF 5
ENDMDL
MODEL 3
REMARK VINA RESULT:      -8.2      4.109      7.026
REMARK  5 active torsions:
REMARK  status: ('A' for Active; 'I' for Inactive)
REMARK    1  A    between atoms: C2_7  and  N1_5 
REMARK       I    between atoms: C5_10  and  N1_5 
REMARK    2  A    between atoms: C1_6  and  C3_8 
REMARK    3  A    between atoms: C1_6  and  C5_10 
REMARK    4  A    between atoms: C12_17  and  C4_9 
REMARK    5  A    between atoms: C6_11  and  C7_12 
ROOT
HETATM    1  C1  UNK     1      19.342  -2.859  36.501  1.00  0.00     0.043 C 
HETATM    2  C6  UNK     1      18.279  -2.407  37.217  1.00  0.00     0.029 C 
ENDROOT
BRANCH   1   3
HETATM    3  C3  UNK     1      19.931  -4.193  36.733  1.00  0.00    -0.021 A 
HETATM    4  C10 UNK     1      20.949  -4.329  37.661  1.00  0.00     0.012 A 
HETATM    5  C17 UNK     1      21.506  -5.589  37.880  1.00  0.00     0.001 A 
HETATM    6  C19 UNK     1      21.037  -6.692  37.167  1.00  0.00     0.000 A 
HETATM    7  C18 UNK     1      20.010  -6.536  36.236  1.00  0.00     0.001 A 
HETATM    8  C11 UNK     1      19.453  -5.277  36.017  1.00  0.00     0.012 A 
ENDBRANCH   1   3
BRANCH   1   9
HETATM    9  C5  UNK     1      19.871  -1.934  35.428  1.00  0.00     0.257 C 
HETATM   10  O1  UNK     1      20.828  -1.200  35.658  1.00  0.00    -0.267 OA
HETATM   11  N1  UNK     1      19.172  -2.037  34.232  1.00  0.00    -0.322 N 
HETATM   12  H1  UNK     1      18.401  -2.700  34.204  1.00  0.00     0.169 HD
BRANCH  11  13
HETATM   13  C2  UNK     1      19.406  -1.318  33.033  1.00  0.00     0.050 A 
HETATM   14  C4  UNK     1      20.314  -1.794  32.102  1.00  0.00     0.074 A 
HETATM   15  C9  UNK     1      20.529  -1.072  30.928  1.00  0.00     0.018 A 
HETATM   16  C14 UNK     1      19.834   0.116  30.702  1.00  0.00     0.001 A 
HETATM   17  C13 UNK     1      18.923   0.582  31.649  1.00  0.00     0.002 A 
HETATM   18  C8  UNK     1      18.708  -0.140  32.824  1.00  0.00     0.030 A 
BRANCH  14  19
HETATM   19  C12 UNK     1      21.072  -3.063  32.317  1.00  0.00     0.419 C 
HETATM   20  F1  UNK     1      20.417  -3.963  33.107  1.00  0.00    -0.166 F 
HETATM   21  F2  UNK     1      21.345  -3.735  31.160  1.00  0.00    -0.166 F 
HETATM   22  F3  UNK     1      22.280  -2.856  32.916  1.00  0.00    -0.166 F 
ENDBRANCH  14  19
ENDBRANCH  11  13
ENDBRANCH   1   9
BRANCH   2  23
HETATM   23  C7  UNK     1      17.622  -1.117  37.073  1.00  0.00    -0.035 A 
HETATM   24  C15 UNK     1      16.660  -0.930  36.080  1.00  0.00     0.011 A 
HETATM   25  C20 UNK     1      16.031   0.307  35.943  1.00  0.00     0.001 A 
HETATM   26  C22 UNK     1      16.365   1.358  36.798  1.00  0.00     0.000 A 
HETATM   27  C21 UNK     1      17.327   1.171  37.789  1.00  0.00     0.001 A 
HETATM   28  C16 UNK     1      17.957  -0.066  37.928  1.00  0.00     0.011 A 
ENDBRANCH   2  23
TORSDOF 5
ENDMDL
MODEL 4
REMARK VINA RESULT:      -8.2      2.295      5.436
REMARK  5 active torsions:
REMARK  status: ('A' for Active; 'I' for Inactive)
REMARK    1  A    between atoms: C2_7  and  N1_5 
REMARK       I    between atoms: C5_10  and  N1_5 
REMARK    2  A    between atoms: C1_6  and  C3_8 
REMARK    3  A    between atoms: C1_6  and  C5_10 
REMARK    4  A    between atoms: C12_17  and  C4_9 
REMARK    5  A    between atoms: C6_11  and  C7_12 
ROOT
HETATM    1  C1  UNK     1      18.081   2.299  33.905  1.00  0.00     0.043 C 
HETATM    2  C6  UNK     1      18.222   3.619  34.194  1.00  0.00     0.029 C 
ENDROOT
BRANCH   1   3
HETATM    3  C3  UNK     1      17.838   1.289  34.954  1.00  0.00    -0.021 A 
HETATM    4  C10 UNK     1      17.159   0.127  34.628  1.00  0.00     0.012 A 
HETATM    5  C17 UNK     1      16.930  -0.827  35.619  1.00  0.00     0.001 A 
HETATM    6  C19 UNK     1      17.382  -0.605  36.919  1.00  0.00     0.000 A 
HETATM    7  C18 UNK     1      18.065   0.571  37.229  1.00  0.00     0.001 A 
HETATM    8  C11 UNK     1      18.295   1.525  36.239  1.00  0.00     0.012 A 
ENDBRANCH   1   3
BRANCH   1   9
HETATM    9  C5  UNK     1      18.152   1.920  32.442  1.00  0.00     0.257 C 
HETATM   10  O1  UNK     1      17.465   2.511  31.613  1.00  0.00    -0.267 OA
HETATM   11  N1  UNK     1      19.048   0.888  32.193  1.00  0.00    -0.322 N 
HETATM   12  H1  UNK     1      19.545   0.506  32.994  1.00  0.00     0.169 HD
BRANCH  11  13
HETATM   13  C2  UNK     1      19.355   0.296  30.942  1.00  0.00     0.050 A 
HETATM   14  C4  UNK     1      19.966  -0.945  30.891  1.00  0.00     0.074 A 
HETATM   15  C9  UNK     1      20.259  -1.511  29.651  1.00  0.00     0.018 A 
HETATM   16  C14 UNK     1      19.937  -0.827  28.478  1.00  0.00     0.001 A 
HETATM   17  C13 UNK     1      19.322   0.422  28.547  1.00  0.00     0.002 A 
HETATM   18  C8  UNK     1      19.030   0.989  29.787  1.00  0.00     0.030 A 
BRANCH  14  19
HETATM   19  C12 UNK     1      20.321  -1.702  32.130  1.00  0.00     0.419 C 
HETATM   20  F1  UNK     1      21.466  -1.261  32.728  1.00  0.00    -0.166 F 
HETATM   21  F2  UNK     1      19.362  -1.637  33.099  1.00  0.00    -0.166 F 
HETATM   22  F3  UNK     1      20.516  -3.031  31.893  1.00  0.00    -0.166 F 
ENDBRANCH  14  19
ENDBRANCH  11  13
ENDBRANCH   1   9
BRANCH   2  23
HETATM   23  C7  UNK     1      18.464   4.693  33.244  1.00  0.00    -0.035 A 
HETATM   24  C15 UNK     1      19.764   4.973  32.821  1.00  0.00     0.011 A 
HETATM   25  C20 UNK     1      19.995   6.003  31.910  1.00  0.00     0.001 A 
HETATM   26  C22 UNK     1      18.926   6.755  31.422  1.00  0.00     0.000 A 
HETATM   27  C21 UNK     1      17.627   6.477  31.845  1.00  0.00     0.001 A 
HETATM   28  C16 UNK     1      17.395   5.446  32.756  1.00  0.00     0.011 A 
ENDBRANCH   2  23
TORSDOF 5
ENDMDL
MODEL 5
REMARK VINA RESULT:      -8.2      1.559      5.180
REMARK  5 active torsions:
REMARK  status: ('A' for Active; 'I' for Inactive)
REMARK    1  A    between atoms: C2_7  and  N1_5 
REMARK       I    between atoms: C5_10  and  N1_5 
REMARK    2  A    between atoms: C1_6  and  C3_8 
REMARK    3  A    between atoms: C1_6  and  C5_10 
REMARK    4  A    between atoms: C12_17  and  C4_9 
REMARK    5  A    between atoms: C6_11  and  C7_12 
ROOT
HETATM    1  C1  UNK     1      18.691   1.120  32.146  1.00  0.00     0.043 C 
HETATM    2  C6  UNK     1      18.677   0.442  33.323  1.00  0.00     0.029 C 
ENDROOT
BRANCH   1   3
HETATM    3  C3  UNK     1      19.304   0.559  30.926  1.00  0.00    -0.021 A 
HETATM    4  C10 UNK     1      20.351  -0.338  31.048  1.00  0.00     0.012 A 
HETATM    5  C17 UNK     1      20.931  -0.869  29.896  1.00  0.00     0.001 A 
HETATM    6  C19 UNK     1      20.454  -0.494  28.640  1.00  0.00     0.000 A 
HETATM    7  C18 UNK     1      19.398   0.410  28.536  1.00  0.00     0.001 A 
HETATM    8  C11 UNK     1      18.818   0.941  29.688  1.00  0.00     0.012 A 
ENDBRANCH   1   3
BRANCH   1   9
HETATM    9  C5  UNK     1      18.013   2.472  32.142  1.00  0.00     0.257 C 
HETATM   10  O1  UNK     1      16.867   2.590  31.718  1.00  0.00    -0.267 OA
HETATM   11  N1  UNK     1      18.815   3.482  32.658  1.00  0.00    -0.322 N 
HETATM   12  H1  UNK     1      19.745   3.215  32.972  1.00  0.00     0.169 HD
BRANCH  11  13
HETATM   13  C2  UNK     1      18.490   4.854  32.798  1.00  0.00     0.050 A 
HETATM   14  C4  UNK     1      18.885   5.765  31.833  1.00  0.00     0.074 A 
HETATM   15  C9  UNK     1      18.555   7.111  31.989  1.00  0.00     0.018 A 
HETATM   16  C14 UNK     1      17.836   7.528  33.109  1.00  0.00     0.001 A 
HETATM   17  C13 UNK     1      17.446   6.598  34.072  1.00  0.00     0.002 A 
HETATM   18  C8  UNK     1      17.776   5.252  33.917  1.00  0.00     0.030 A 
BRANCH  14  19
HETATM   19  C12 UNK     1      19.656   5.347  30.622  1.00  0.00     0.419 C 
HETATM   20  F1  UNK     1      19.189   4.201  30.047  1.00  0.00    -0.166 F 
HETATM   21  F2  UNK     1      19.646   6.279  29.625  1.00  0.00    -0.166 F 
HETATM   22  F3  UNK     1      20.972   5.114  30.895  1.00  0.00    -0.166 F 
ENDBRANCH  14  19
ENDBRANCH  11  13
ENDBRANCH   1   9
BRANCH   2  23
HETATM   23  C7  UNK     1      18.104   0.898  34.580  1.00  0.00    -0.035 A 
HETATM   24  C15 UNK     1      18.870   1.664  35.459  1.00  0.00     0.011 A 
HETATM   25  C20 UNK     1      18.320   2.102  36.664  1.00  0.00     0.001 A 
HETATM   26  C22 UNK     1      17.004   1.771  36.990  1.00  0.00     0.000 A 
HETATM   27  C21 UNK     1      16.239   1.004  36.113  1.00  0.00     0.001 A 
HETATM   28  C16 UNK     1      16.788   0.567  34.907  1.00  0.00     0.011 A 
ENDBRANCH   2  23
TORSDOF 5
ENDMDL
MODEL 6
REMARK VINA RESULT:      -8.1     13.388     15.671
REMARK  5 active torsions:
REMARK  status: ('A' for Active; 'I' for Inactive)
REMARK    1  A    between atoms: C2_7  and  N1_5 
REMARK       I    between atoms: C5_10  and  N1_5 
REMARK    2  A    between atoms: C1_6  and  C3_8 
REMARK    3  A    between atoms: C1_6  and  C5_10 
REMARK    4  A    between atoms: C12_17  and  C4_9 
REMARK    5  A    between atoms: C6_11  and  C7_12 
ROOT
HETATM    1  C1  UNK     1      30.315  -6.486  33.503  1.00  0.00     0.043 C 
HETATM    2  C6  UNK     1      31.534  -5.906  33.351  1.00  0.00     0.029 C 
ENDROOT
BRANCH   1   3
HETATM    3  C3  UNK     1      29.340  -6.560  32.396  1.00  0.00    -0.021 A 
HETATM    4  C10 UNK     1      29.349  -5.577  31.422  1.00  0.00     0.012 A 
HETATM    5  C17 UNK     1      28.428  -5.647  30.377  1.00  0.00     0.001 A 
HETATM    6  C19 UNK     1      27.514  -6.698  30.322  1.00  0.00     0.000 A 
HETATM    7  C18 UNK     1      27.520  -7.681  31.311  1.00  0.00     0.001 A 
HETATM    8  C11 UNK     1      28.440  -7.612  32.357  1.00  0.00     0.012 A 
ENDBRANCH   1   3
BRANCH   1   9
HETATM    9  C5  UNK     1      30.019  -7.085  34.860  1.00  0.00     0.257 C 
HETATM   10  O1  UNK     1      30.562  -8.130  35.209  1.00  0.00    -0.267 OA
HETATM   11  N1  UNK     1      29.118  -6.331  35.600  1.00  0.00    -0.322 N 
HETATM   12  H1  UNK     1      28.760  -5.484  35.165  1.00  0.00     0.169 HD
BRANCH  11  13
HETATM   13  C2  UNK     1      28.629  -6.605  36.901  1.00  0.00     0.050 A 
HETATM   14  C4  UNK     1      29.263  -6.071  38.010  1.00  0.00     0.074 A 
HETATM   15  C9  UNK     1      28.765  -6.352  39.282  1.00  0.00     0.018 A 
HETATM   16  C14 UNK     1      27.642  -7.166  39.429  1.00  0.00     0.001 A 
HETATM   17  C13 UNK     1      27.015  -7.697  38.302  1.00  0.00     0.002 A 
HETATM   18  C8  UNK     1      27.512  -7.416  37.029  1.00  0.00     0.030 A 
BRANCH  14  19
HETATM   19  C12 UNK     1      30.467  -5.195  37.885  1.00  0.00     0.419 C 
HETATM   20  F1  UNK     1      30.351  -4.244  36.913  1.00  0.00    -0.166 F 
HETATM   21  F2  UNK     1      30.760  -4.507  39.026  1.00  0.00    -0.166 F 
HETATM   22  F3  UNK     1      31.595  -5.899  37.579  1.00  0.00    -0.166 F 
ENDBRANCH  14  19
ENDBRANCH  11  13
ENDBRANCH   1   9
BRANCH   2  23
HETATM   23  C7  UNK     1      32.565  -5.778  34.369  1.00  0.00    -0.035 A 
HETATM   24  C15 UNK     1      32.813  -4.540  34.961  1.00  0.00     0.011 A 
HETATM   25  C20 UNK     1      33.802  -4.417  35.936  1.00  0.00     0.001 A 
HETATM   26  C22 UNK     1      34.545  -5.535  36.320  1.00  0.00     0.000 A 
HETATM   27  C21 UNK     1      34.298  -6.773  35.728  1.00  0.00     0.001 A 
HETATM   28  C16 UNK     1      33.308  -6.896  34.753  1.00  0.00     0.011 A 
ENDBRANCH   2  23
TORSDOF 5
ENDMDL
MODEL 7
REMARK VINA RESULT:      -8.1     13.337     15.747
REMARK  5 active torsions:
REMARK  status: ('A' for Active; 'I' for Inactive)
REMARK    1  A    between atoms: C2_7  and  N1_5 
REMARK       I    between atoms: C5_10  and  N1_5 
REMARK    2  A    between atoms: C1_6  and  C3_8 
REMARK    3  A    between atoms: C1_6  and  C5_10 
REMARK    4  A    between atoms: C12_17  and  C4_9 
REMARK    5  A    between atoms: C6_11  and  C7_12 
ROOT
HETATM    1  C1  UNK     1      29.672  -7.270  34.153  1.00  0.00     0.043 C 
HETATM    2  C6  UNK     1      30.661  -6.342  34.226  1.00  0.00     0.029 C 
ENDROOT
BRANCH   1   3
HETATM    3  C3  UNK     1      28.841  -7.435  32.944  1.00  0.00    -0.021 A 
HETATM    4  C10 UNK     1      27.966  -6.425  32.584  1.00  0.00     0.012 A 
HETATM    5  C17 UNK     1      27.180  -6.581  31.441  1.00  0.00     0.001 A 
HETATM    6  C19 UNK     1      27.283  -7.744  30.678  1.00  0.00     0.000 A 
HETATM    7  C18 UNK     1      28.170  -8.751  31.056  1.00  0.00     0.001 A 
HETATM    8  C11 UNK     1      28.956  -8.595  32.198  1.00  0.00     0.012 A 
ENDBRANCH   1   3
BRANCH   1   9
HETATM    9  C5  UNK     1      29.487  -8.152  35.368  1.00  0.00     0.257 C 
HETATM   10  O1  UNK     1      30.290  -9.049  35.612  1.00  0.00    -0.267 OA
HETATM   11  N1  UNK     1      28.365  -7.817  36.115  1.00  0.00    -0.322 N 
HETATM   12  H1  UNK     1      27.802  -7.040  35.777  1.00  0.00     0.169 HD
BRANCH  11  13
HETATM   13  C2  UNK     1      27.904  -8.436  37.304  1.00  0.00     0.050 A 
HETATM   14  C4  UNK     1      28.159  -7.856  38.535  1.00  0.00     0.074 A 
HETATM   15  C9  UNK     1      27.697  -8.481  39.693  1.00  0.00     0.018 A 
HETATM   16  C14 UNK     1      26.987  -9.678  39.604  1.00  0.00     0.001 A 
HETATM   17  C13 UNK     1      26.739 -10.250  38.356  1.00  0.00     0.002 A 
HETATM   18  C8  UNK     1      27.201  -9.625  37.198  1.00  0.00     0.030 A 
BRANCH  14  19
HETATM   19  C12 UNK     1      28.916  -6.573  38.661  1.00  0.00     0.419 C 
HETATM   20  F1  UNK     1      28.658  -5.686  37.656  1.00  0.00    -0.166 F 
HETATM   21  F2  UNK     1      28.648  -5.896  39.815  1.00  0.00    -0.166 F 
HETATM   22  F3  UNK     1      30.267  -6.761  38.650  1.00  0.00    -0.166 F 
ENDBRANCH  14  19
ENDBRANCH  11  13
ENDBRANCH   1   9
BRANCH   2  23
HETATM   23  C7  UNK     1      31.536  -6.094  35.362  1.00  0.00    -0.035 A 
HETATM   24  C15 UNK     1      31.318  -4.986  36.182  1.00  0.00     0.011 A 
HETATM   25  C20 UNK     1      32.156  -4.749  37.271  1.00  0.00     0.001 A 
HETATM   26  C22 UNK     1      33.214  -5.619  37.540  1.00  0.00     0.000 A 
HETATM   27  C21 UNK     1      33.432  -6.726  36.720  1.00  0.00     0.001 A 
HETATM   28  C16 UNK     1      32.593  -6.964  35.631  1.00  0.00     0.011 A 
ENDBRANCH   2  23
TORSDOF 5
ENDMDL
MODEL 8
REMARK VINA RESULT:      -8.0     13.640     15.959
REMARK  5 active torsions:
REMARK  status: ('A' for Active; 'I' for Inactive)
REMARK    1  A    between atoms: C2_7  and  N1_5 
REMARK       I    between atoms: C5_10  and  N1_5 
REMARK    2  A    between atoms: C1_6  and  C3_8 
REMARK    3  A    between atoms: C1_6  and  C5_10 
REMARK    4  A    between atoms: C12_17  and  C4_9 
REMARK    5  A    between atoms: C6_11  and  C7_12 
ROOT
HETATM    1  C1  UNK     1      29.584  -6.285  34.875  1.00  0.00     0.043 C 
HETATM    2  C6  UNK     1      28.467  -6.888  34.391  1.00  0.00     0.029 C 
ENDROOT
BRANCH   1   3
HETATM    3  C3  UNK     1      29.708  -5.888  36.291  1.00  0.00    -0.021 A 
HETATM    4  C10 UNK     1      28.966  -6.558  37.248  1.00  0.00     0.012 A 
HETATM    5  C17 UNK     1      29.083  -6.182  38.586  1.00  0.00     0.001 A 
HETATM    6  C19 UNK     1      29.941  -5.143  38.946  1.00  0.00     0.000 A 
HETATM    7  C18 UNK     1      30.682  -4.480  37.969  1.00  0.00     0.001 A 
HETATM    8  C11 UNK     1      30.566  -4.855  36.631  1.00  0.00     0.012 A 
ENDBRANCH   1   3
BRANCH   1   9
HETATM    9  C5  UNK     1      30.713  -6.072  33.890  1.00  0.00     0.257 C 
HETATM   10  O1  UNK     1      30.644  -5.179  33.050  1.00  0.00    -0.267 OA
HETATM   11  N1  UNK     1      31.764  -6.963  34.070  1.00  0.00    -0.322 N 
HETATM   12  H1  UNK     1      31.666  -7.645  34.818  1.00  0.00     0.169 HD
BRANCH  11  13
HETATM   13  C2  UNK     1      32.966  -7.039  33.324  1.00  0.00     0.050 A 
HETATM   14  C4  UNK     1      34.095  -6.362  33.754  1.00  0.00     0.074 A 
HETATM   15  C9  UNK     1      35.269  -6.449  33.007  1.00  0.00     0.018 A 
HETATM   16  C14 UNK     1      35.298  -7.211  31.839  1.00  0.00     0.001 A 
HETATM   17  C13 UNK     1      34.153  -7.887  31.419  1.00  0.00     0.002 A 
HETATM   18  C8  UNK     1      32.978  -7.799  32.166  1.00  0.00     0.030 A 
BRANCH  14  19
HETATM   19  C12 UNK     1      34.094  -5.539  35.002  1.00  0.00     0.419 C 
HETATM   20  F1  UNK     1      33.354  -4.397  34.901  1.00  0.00    -0.166 F 
HETATM   21  F2  UNK     1      33.592  -6.198  36.086  1.00  0.00    -0.166 F 
HETATM   22  F3  UNK     1      35.347  -5.136  35.363  1.00  0.00    -0.166 F 
ENDBRANCH  14  19
ENDBRANCH  11  13
ENDBRANCH   1   9
BRANCH   2  23
HETATM   23  C7  UNK     1      28.239  -7.319  33.020  1.00  0.00    -0.035 A 
HETATM   24  C15 UNK     1      27.536  -6.499  32.138  1.00  0.00     0.011 A 
HETATM   25  C20 UNK     1      27.318  -6.911  30.824  1.00  0.00     0.001 A 
HETATM   26  C22 UNK     1      27.802  -8.147  30.392  1.00  0.00     0.000 A 
HETATM   27  C21 UNK     1      28.503  -8.968  31.274  1.00  0.00     0.001 A 
HETATM   28  C16 UNK     1      28.723  -8.555  32.588  1.00  0.00     0.011 A 
ENDBRANCH   2  23
TORSDOF 5
ENDMDL
MODEL 9
REMARK VINA RESULT:      -8.0     13.156     15.533
REMARK  5 active torsions:
REMARK  status: ('A' for Active; 'I' for Inactive)
REMARK    1  A    between atoms: C2_7  and  N1_5 
REMARK       I    between atoms: C5_10  and  N1_5 
REMARK    2  A    between atoms: C1_6  and  C3_8 
REMARK    3  A    between atoms: C1_6  and  C5_10 
REMARK    4  A    between atoms: C12_17  and  C4_9 
REMARK    5  A    between atoms: C6_11  and  C7_12 
ROOT
HETATM    1  C1  UNK     1      31.207  -6.201  33.840  1.00  0.00     0.043 C 
HETATM    2  C6  UNK     1      30.750  -6.048  32.569  1.00  0.00     0.029 C 
ENDROOT
BRANCH   1   3
HETATM    3  C3  UNK     1      32.450  -5.558  34.308  1.00  0.00    -0.021 A 
HETATM    4  C10 UNK     1      33.666  -6.163  34.039  1.00  0.00     0.012 A 
HETATM    5  C17 UNK     1      34.841  -5.556  34.482  1.00  0.00     0.001 A 
HETATM    6  C19 UNK     1      34.782  -4.353  35.185  1.00  0.00     0.000 A 
HETATM    7  C18 UNK     1      33.549  -3.757  35.446  1.00  0.00     0.001 A 
HETATM    8  C11 UNK     1      32.373  -4.364  35.003  1.00  0.00     0.012 A 
ENDBRANCH   1   3
BRANCH   1   9
HETATM    9  C5  UNK     1      30.352  -7.041  34.763  1.00  0.00     0.257 C 
HETATM   10  O1  UNK     1      30.407  -8.266  34.717  1.00  0.00    -0.267 OA
HETATM   11  N1  UNK     1      29.562  -6.277  35.614  1.00  0.00    -0.322 N 
HETATM   12  H1  UNK     1      29.637  -5.266  35.527  1.00  0.00     0.169 HD
BRANCH  11  13
HETATM   13  C2  UNK     1      28.653  -6.743  36.595  1.00  0.00     0.050 A 
HETATM   14  C4  UNK     1      28.699  -6.235  37.883  1.00  0.00     0.074 A 
HETATM   15  C9  UNK     1      27.795  -6.707  38.835  1.00  0.00     0.018 A 
HETATM   16  C14 UNK     1      26.858  -7.681  38.486  1.00  0.00     0.001 A 
HETATM   17  C13 UNK     1      26.826  -8.182  37.185  1.00  0.00     0.002 A 
HETATM   18  C8  UNK     1      27.730  -7.711  36.233  1.00  0.00     0.030 A 
BRANCH  14  19
HETATM   19  C12 UNK     1      29.690  -5.192  38.285  1.00  0.00     0.419 C 
HETATM   20  F1  UNK     1      29.521  -4.743  39.563  1.00  0.00    -0.166 F 
HETATM   21  F2  UNK     1      30.984  -5.620  38.223  1.00  0.00    -0.166 F 
HETATM   22  F3  UNK     1      29.630  -4.082  37.494  1.00  0.00    -0.166 F 
ENDBRANCH  14  19
ENDBRANCH  11  13
ENDBRANCH   1   9
BRANCH   2  23
HETATM   23  C7  UNK     1      29.544  -6.633  32.004  1.00  0.00    -0.035 A 
HETATM   24  C15 UNK     1      28.324  -5.969  32.124  1.00  0.00     0.011 A 
HETATM   25  C20 UNK     1      27.168  -6.530  31.583  1.00  0.00     0.001 A 
HETATM   26  C22 UNK     1      27.232  -7.757  30.921  1.00  0.00     0.000 A 
HETATM   27  C21 UNK     1      28.452  -8.421  30.802  1.00  0.00     0.001 A 
HETATM   28  C16 UNK     1      29.609  -7.860  31.343  1.00  0.00     0.011 A 
ENDBRANCH   2  23
TORSDOF 5
ENDMDL
MODEL 10
REMARK VINA RESULT:      -8.0     23.370     25.112
REMARK  5 active torsions:
REMARK  status: ('A' for Active; 'I' for Inactive)
REMARK    1  A    between atoms: C2_7  and  N1_5 
REMARK       I    between atoms: C5_10  and  N1_5 
REMARK    2  A    between atoms: C1_6  and  C3_8 
REMARK    3  A    between atoms: C1_6  and  C5_10 
REMARK    4  A    between atoms: C12_17  and  C4_9 
REMARK    5  A    between atoms: C6_11  and  C7_12 
ROOT
HETATM    1  C1  UNK     1      11.212   8.681   9.364  1.00  0.00     0.043 C 
HETATM    2  C6  UNK     1      10.625   9.864   9.686  1.00  0.00     0.029 C 
ENDROOT
BRANCH   1   3
HETATM    3  C3  UNK     1      10.634   7.769   8.357  1.00  0.00    -0.021 A 
HETATM    4  C10 UNK     1       9.387   7.215   8.585  1.00  0.00     0.012 A 
HETATM    5  C17 UNK     1       8.841   6.353   7.633  1.00  0.00     0.001 A 
HETATM    6  C19 UNK     1       9.552   6.060   6.469  1.00  0.00     0.000 A 
HETATM    7  C18 UNK     1      10.807   6.629   6.256  1.00  0.00     0.001 A 
HETATM    8  C11 UNK     1      11.353   7.491   7.207  1.00  0.00     0.012 A 
ENDBRANCH   1   3
BRANCH   1   9
HETATM    9  C5  UNK     1      12.510   8.362  10.071  1.00  0.00     0.257 C 
HETATM   10  O1  UNK     1      12.537   8.229  11.292  1.00  0.00    -0.267 OA
HETATM   11  N1  UNK     1      13.586   8.240   9.199  1.00  0.00    -0.322 N 
HETATM   12  H1  UNK     1      13.393   8.377   8.210  1.00  0.00     0.169 HD
BRANCH  11  13
HETATM   13  C2  UNK     1      14.933   7.949   9.528  1.00  0.00     0.050 A 
HETATM   14  C4  UNK     1      15.368   6.635   9.578  1.00  0.00     0.074 A 
HETATM   15  C9  UNK     1      16.698   6.369   9.902  1.00  0.00     0.018 A 
HETATM   16  C14 UNK     1      17.574   7.420  10.175  1.00  0.00     0.001 A 
HETATM   17  C13 UNK     1      17.120   8.738  10.121  1.00  0.00     0.002 A 
HETATM   18  C8  UNK     1      15.790   9.004   9.796  1.00  0.00     0.030 A 
BRANCH  14  19
HETATM   19  C12 UNK     1      14.453   5.489   9.290  1.00  0.00     0.419 C 
HETATM   20  F1  UNK     1      13.347   5.461  10.089  1.00  0.00    -0.166 F 
HETATM   21  F2  UNK     1      13.974   5.485   8.012  1.00  0.00    -0.166 F 
HETATM   22  F3  UNK     1      15.062   4.280   9.459  1.00  0.00    -0.166 F 
ENDBRANCH  14  19
ENDBRANCH  11  13
ENDBRANCH   1   9
BRANCH   2  23
HETATM   23  C7  UNK     1      11.105  10.833  10.659  1.00  0.00    -0.035 A 
HETATM   24  C15 UNK     1      10.471  10.953  11.896  1.00  0.00     0.011 A 
HETATM   25  C20 UNK     1      10.931  11.882  12.829  1.00  0.00     0.001 A 
HETATM   26  C22 UNK     1      12.025  12.693  12.523  1.00  0.00     0.000 A 
HETATM   27  C21 UNK     1      12.657  12.575  11.287  1.00  0.00     0.001 A 
HETATM   28  C16 UNK     1      12.198  11.645  10.354  1.00  0.00     0.011 A 
ENDBRANCH   2  23
TORSDOF 5
ENDMDL
