MODEL 1
REMARK VINA RESULT:      -8.3      0.000      0.000
REMARK  2 active torsions:
REMARK  status: ('A' for Active; 'I' for Inactive)
REMARK    1  A    between atoms: C7_10  and  O3_3 
REMARK    2  A    between atoms: C1_4  and  C4_7 
ROOT
HETATM    1  O1  UNK     1      19.791  -1.516  33.750  1.00  0.00    -0.340 OA
HETATM    2  O2  UNK     1      17.135   1.306  35.099  1.00  0.00    -0.292 OA
HETATM    3  C1  UNK     1      18.871  -0.881  32.846  1.00  0.00     0.169 C 
HETATM    4  C2  UNK     1      18.536   0.534  33.310  1.00  0.00     0.121 C 
HETATM    5  C3  UNK     1      18.414  -0.626  35.556  1.00  0.00     0.076 A 
HETATM    6  C5  UNK     1      17.932   0.470  34.689  1.00  0.00     0.167 C 
HETATM    7  C6  UNK     1      19.334  -1.545  35.043  1.00  0.00     0.086 A 
HETATM    8  C7  UNK     1      17.989  -0.719  36.883  1.00  0.00     0.084 A 
HETATM    9  C8  UNK     1      19.857  -2.540  35.870  1.00  0.00     0.038 A 
HETATM   10  C11 UNK     1      18.500  -1.728  37.701  1.00  0.00     0.038 A 
HETATM   11  C12 UNK     1      19.435  -2.633  37.196  1.00  0.00     0.005 A 
ENDROOT
BRANCH   3  12
HETATM   12  C4  UNK     1      19.489  -0.871  31.464  1.00  0.00    -0.029 A 
HETATM   13  C10 UNK     1      20.052  -2.036  30.943  1.00  0.00     0.010 A 
HETATM   14  C14 UNK     1      20.622  -2.026  29.670  1.00  0.00     0.001 A 
HETATM   15  C15 UNK     1      20.628  -0.852  28.918  1.00  0.00     0.000 A 
HETATM   16  C13 UNK     1      20.065   0.313  29.438  1.00  0.00     0.001 A 
HETATM   17  C9  UNK     1      19.495   0.304  30.713  1.00  0.00     0.010 A 
ENDBRANCH   3  12
BRANCH   8  18
HETATM   18  O3  UNK     1      17.092   0.147  37.431  1.00  0.00    -0.355 OA
HETATM   19  C16 UNK     1      17.603   1.118  38.343  1.00  0.00     0.210 C 
ENDBRANCH   8  18
TORSDOF 2
ENDMDL
MODEL 2
REMARK VINA RESULT:      -7.8      1.847      6.192
REMARK  2 active torsions:
REMARK  status: ('A' for Active; 'I' for Inactive)
REMARK    1  A    between atoms: C7_10  and  O3_3 
REMARK    2  A    between atoms: C1_4  and  C4_7 
ROOT
HETATM    1  O1  UNK     1      19.165  -1.039  33.248  1.00  0.00    -0.340 OA
HETATM    2  O2  UNK     1      17.967   2.616  31.823  1.00  0.00    -0.292 OA
HETATM    3  C1  UNK     1      19.043   0.089  34.130  1.00  0.00     0.169 C 
HETATM    4  C2  UNK     1      17.963   1.052  33.642  1.00  0.00     0.121 C 
HETATM    5  C3  UNK     1      19.053   0.561  31.412  1.00  0.00     0.076 A 
HETATM    6  C5  UNK     1      18.316   1.524  32.256  1.00  0.00     0.167 C 
HETATM    7  C6  UNK     1      19.417  -0.677  31.950  1.00  0.00     0.086 A 
HETATM    8  C7  UNK     1      19.345   0.864  30.079  1.00  0.00     0.084 A 
HETATM    9  C8  UNK     1      20.045  -1.628  31.145  1.00  0.00     0.038 A 
HETATM   10  C11 UNK     1      19.992  -0.083  29.284  1.00  0.00     0.038 A 
HETATM   11  C12 UNK     1      20.336  -1.327  29.814  1.00  0.00     0.005 A 
ENDROOT
BRANCH   3  12
HETATM   12  C4  UNK     1      18.730  -0.422  35.521  1.00  0.00    -0.029 A 
HETATM   13  C10 UNK     1      19.147  -1.697  35.905  1.00  0.00     0.010 A 
HETATM   14  C14 UNK     1      18.858  -2.168  37.186  1.00  0.00     0.001 A 
HETATM   15  C15 UNK     1      18.154  -1.364  38.083  1.00  0.00     0.000 A 
HETATM   16  C13 UNK     1      17.738  -0.090  37.698  1.00  0.00     0.001 A 
HETATM   17  C9  UNK     1      18.026   0.382  36.416  1.00  0.00     0.010 A 
ENDBRANCH   3  12
BRANCH   8  18
HETATM   18  O3  UNK     1      19.017   2.055  29.507  1.00  0.00    -0.355 OA
HETATM   19  C16 UNK     1      17.949   2.047  28.561  1.00  0.00     0.210 C 
ENDBRANCH   8  18
TORSDOF 2
ENDMDL
MODEL 3
REMARK VINA RESULT:      -7.7     24.633     27.130
REMARK  2 active torsions:
REMARK  status: ('A' for Active; 'I' for Inactive)
REMARK    1  A    between atoms: C7_10  and  O3_3 
REMARK    2  A    between atoms: C1_4  and  C4_7 
ROOT
HETATM    1  O1  UNK     1      11.988   7.716   9.594  1.00  0.00    -0.340 OA
HETATM    2  O2  UNK     1      15.234   5.343   8.783  1.00  0.00    -0.292 OA
HETATM    3  C1  UNK     1      12.154   7.117   8.299  1.00  0.00     0.169 C 
HETATM    4  C2  UNK     1      12.909   5.793   8.401  1.00  0.00     0.121 C 
HETATM    5  C3  UNK     1      14.324   7.147  10.003  1.00  0.00     0.076 A 
HETATM    6  C5  UNK     1      14.258   6.044   9.023  1.00  0.00     0.167 C 
HETATM    7  C6  UNK     1      13.177   7.908  10.250  1.00  0.00     0.086 A 
HETATM    8  C7  UNK     1      15.503   7.400  10.708  1.00  0.00     0.084 A 
HETATM    9  C8  UNK     1      13.200   8.903  11.228  1.00  0.00     0.038 A 
HETATM   10  C11 UNK     1      15.527   8.410  11.671  1.00  0.00     0.038 A 
HETATM   11  C12 UNK     1      14.377   9.156  11.933  1.00  0.00     0.005 A 
ENDROOT
BRANCH   3  12
HETATM   12  C4  UNK     1      10.785   6.919   7.684  1.00  0.00    -0.029 A 
HETATM   13  C10 UNK     1       9.640   7.078   8.465  1.00  0.00     0.010 A 
HETATM   14  C14 UNK     1       8.379   6.895   7.899  1.00  0.00     0.001 A 
HETATM   15  C15 UNK     1       8.261   6.553   6.552  1.00  0.00     0.000 A 
HETATM   16  C13 UNK     1       9.406   6.393   5.771  1.00  0.00     0.001 A 
HETATM   17  C9  UNK     1      10.669   6.576   6.338  1.00  0.00     0.010 A 
ENDBRANCH   3  12
BRANCH   8  18
HETATM   18  O3  UNK     1      16.649   6.692  10.504  1.00  0.00    -0.355 OA
HETATM   19  C16 UNK     1      17.771   7.410   9.993  1.00  0.00     0.210 C 
ENDBRANCH   8  18
TORSDOF 2
ENDMDL
MODEL 4
REMARK VINA RESULT:      -7.6     25.562     27.462
REMARK  2 active torsions:
REMARK  status: ('A' for Active; 'I' for Inactive)
REMARK    1  A    between atoms: C7_10  and  O3_3 
REMARK    2  A    between atoms: C1_4  and  C4_7 
ROOT
HETATM    1  O1  UNK     1      12.953   6.666   7.793  1.00  0.00    -0.340 OA
HETATM    2  O2  UNK     1      10.429   4.640  10.313  1.00  0.00    -0.292 OA
HETATM    3  C1  UNK     1      13.153   6.699   9.216  1.00  0.00     0.169 C 
HETATM    4  C2  UNK     1      12.656   5.412   9.869  1.00  0.00     0.121 C 
HETATM    5  C3  UNK     1      10.732   5.776   8.266  1.00  0.00     0.076 A 
HETATM    6  C5  UNK     1      11.191   5.239   9.564  1.00  0.00     0.167 C 
HETATM    7  C6  UNK     1      11.646   6.440   7.443  1.00  0.00     0.086 A 
HETATM    8  C7  UNK     1       9.414   5.584   7.845  1.00  0.00     0.084 A 
HETATM    9  C8  UNK     1      11.250   6.885   6.181  1.00  0.00     0.038 A 
HETATM   10  C11 UNK     1       9.017   6.049   6.591  1.00  0.00     0.038 A 
HETATM   11  C12 UNK     1       9.934   6.693   5.759  1.00  0.00     0.005 A 
ENDROOT
BRANCH   3  12
HETATM   12  C4  UNK     1      14.627   6.916   9.486  1.00  0.00    -0.029 A 
HETATM   13  C10 UNK     1      15.526   5.861   9.338  1.00  0.00     0.010 A 
HETATM   14  C14 UNK     1      16.883   6.060   9.588  1.00  0.00     0.001 A 
HETATM   15  C15 UNK     1      17.342   7.316   9.986  1.00  0.00     0.000 A 
HETATM   16  C13 UNK     1      16.443   8.371  10.135  1.00  0.00     0.001 A 
HETATM   17  C9  UNK     1      15.084   8.172   9.885  1.00  0.00     0.010 A 
ENDBRANCH   3  12
BRANCH   8  18
HETATM   18  O3  UNK     1       8.483   4.948   8.609  1.00  0.00    -0.355 OA
HETATM   19  C16 UNK     1       7.481   5.759   9.219  1.00  0.00     0.210 C 
ENDBRANCH   8  18
TORSDOF 2
ENDMDL
MODEL 5
REMARK VINA RESULT:      -7.6     14.631     17.644
REMARK  2 active torsions:
REMARK  status: ('A' for Active; 'I' for Inactive)
REMARK    1  A    between atoms: C7_10  and  O3_3 
REMARK    2  A    between atoms: C1_4  and  C4_7 
ROOT
HETATM    1  O1  UNK     1      19.142  -1.132  17.165  1.00  0.00    -0.340 OA
HETATM    2  O2  UNK     1      19.390   2.661  15.622  1.00  0.00    -0.292 OA
HETATM    3  C1  UNK     1      18.647  -0.841  15.848  1.00  0.00     0.169 C 
HETATM    4  C2  UNK     1      19.434   0.299  15.206  1.00  0.00     0.121 C 
HETATM    5  C3  UNK     1      19.196   1.279  17.526  1.00  0.00     0.076 A 
HETATM    6  C5  UNK     1      19.322   1.524  16.075  1.00  0.00     0.167 C 
HETATM    7  C6  UNK     1      19.135  -0.038  17.991  1.00  0.00     0.086 A 
HETATM    8  C7  UNK     1      19.181   2.346  18.428  1.00  0.00     0.084 A 
HETATM    9  C8  UNK     1      19.093  -0.289  19.363  1.00  0.00     0.038 A 
HETATM   10  C11 UNK     1      19.118   2.090  19.798  1.00  0.00     0.038 A 
HETATM   11  C12 UNK     1      19.080   0.775  20.265  1.00  0.00     0.005 A 
ENDROOT
BRANCH   3  12
HETATM   12  C4  UNK     1      18.734  -2.102  15.014  1.00  0.00    -0.029 A 
HETATM   13  C10 UNK     1      19.550  -2.136  13.884  1.00  0.00     0.010 A 
HETATM   14  C14 UNK     1      19.630  -3.298  13.116  1.00  0.00     0.001 A 
HETATM   15  C15 UNK     1      18.894  -4.426  13.479  1.00  0.00     0.000 A 
HETATM   16  C13 UNK     1      18.077  -4.391  14.609  1.00  0.00     0.001 A 
HETATM   17  C9  UNK     1      17.997  -3.229  15.377  1.00  0.00     0.010 A 
ENDBRANCH   3  12
BRANCH   8  18
HETATM   18  O3  UNK     1      19.233   3.647  18.028  1.00  0.00    -0.355 OA
HETATM   19  C16 UNK     1      20.392   4.393  18.399  1.00  0.00     0.210 C 
ENDBRANCH   8  18
TORSDOF 2
ENDMDL
MODEL 6
REMARK VINA RESULT:      -7.6     13.434     17.176
REMARK  2 active torsions:
REMARK  status: ('A' for Active; 'I' for Inactive)
REMARK    1  A    between atoms: C7_10  and  O3_3 
REMARK    2  A    between atoms: C1_4  and  C4_7 
ROOT
HETATM    1  O1  UNK     1      19.063   0.528  16.040  1.00  0.00    -0.340 OA
HETATM    2  O2  UNK     1      18.225  -0.198  19.990  1.00  0.00    -0.292 OA
HETATM    3  C1  UNK     1      19.184  -0.796  16.585  1.00  0.00     0.169 C 
HETATM    4  C2  UNK     1      18.198  -1.008  17.732  1.00  0.00     0.121 C 
HETATM    5  C3  UNK     1      18.979   1.319  18.346  1.00  0.00     0.076 A 
HETATM    6  C5  UNK     1      18.468   0.012  18.807  1.00  0.00     0.167 C 
HETATM    7  C6  UNK     1      19.227   1.510  16.983  1.00  0.00     0.086 A 
HETATM    8  C7  UNK     1      19.171   2.365  19.251  1.00  0.00     0.084 A 
HETATM    9  C8  UNK     1      19.636   2.761  16.520  1.00  0.00     0.038 A 
HETATM   10  C11 UNK     1      19.600   3.609  18.785  1.00  0.00     0.038 A 
HETATM   11  C12 UNK     1      19.827   3.808  17.423  1.00  0.00     0.005 A 
ENDROOT
BRANCH   3  12
HETATM   12  C4  UNK     1      18.949  -1.795  15.472  1.00  0.00    -0.029 A 
HETATM   13  C10 UNK     1      18.370  -3.031  15.755  1.00  0.00     0.010 A 
HETATM   14  C14 UNK     1      18.155  -3.952  14.729  1.00  0.00     0.001 A 
HETATM   15  C15 UNK     1      18.519  -3.635  13.420  1.00  0.00     0.000 A 
HETATM   16  C13 UNK     1      19.098  -2.399  13.137  1.00  0.00     0.001 A 
HETATM   17  C9  UNK     1      19.314  -1.477  14.164  1.00  0.00     0.010 A 
ENDBRANCH   3  12
BRANCH   8  18
HETATM   18  O3  UNK     1      18.949   2.232  20.588  1.00  0.00    -0.355 OA
HETATM   19  C16 UNK     1      20.097   2.125  21.429  1.00  0.00     0.210 C 
ENDBRANCH   8  18
TORSDOF 2
ENDMDL
MODEL 7
REMARK VINA RESULT:      -7.6      3.715      5.768
REMARK  2 active torsions:
REMARK  status: ('A' for Active; 'I' for Inactive)
REMARK    1  A    between atoms: C7_10  and  O3_3 
REMARK    2  A    between atoms: C1_4  and  C4_7 
ROOT
HETATM    1  O1  UNK     1      19.102   2.679  30.268  1.00  0.00    -0.340 OA
HETATM    2  O2  UNK     1      17.728   3.120  34.109  1.00  0.00    -0.292 OA
HETATM    3  C1  UNK     1      19.473   1.743  31.293  1.00  0.00     0.169 C 
HETATM    4  C2  UNK     1      18.377   1.624  32.349  1.00  0.00     0.121 C 
HETATM    5  C3  UNK     1      18.345   4.138  32.070  1.00  0.00     0.076 A 
HETATM    6  C5  UNK     1      18.134   2.979  32.961  1.00  0.00     0.167 C 
HETATM    7  C6  UNK     1      18.796   3.921  30.765  1.00  0.00     0.086 A 
HETATM    8  C7  UNK     1      18.056   5.433  32.509  1.00  0.00     0.084 A 
HETATM    9  C8  UNK     1      18.927   4.997  29.886  1.00  0.00     0.038 A 
HETATM   10  C11 UNK     1      18.208   6.508  31.632  1.00  0.00     0.038 A 
HETATM   11  C12 UNK     1      18.637   6.289  30.323  1.00  0.00     0.005 A 
ENDROOT
BRANCH   3  12
HETATM   12  C4  UNK     1      19.751   0.405  30.641  1.00  0.00    -0.029 A 
HETATM   13  C10 UNK     1      19.842  -0.746  31.422  1.00  0.00     0.010 A 
HETATM   14  C14 UNK     1      20.099  -1.979  30.822  1.00  0.00     0.001 A 
HETATM   15  C15 UNK     1      20.264  -2.060  29.439  1.00  0.00     0.000 A 
HETATM   16  C13 UNK     1      20.172  -0.908  28.657  1.00  0.00     0.001 A 
HETATM   17  C9  UNK     1      19.916   0.325  29.258  1.00  0.00     0.010 A 
ENDBRANCH   3  12
BRANCH   8  18
HETATM   18  O3  UNK     1      17.618   5.701  33.770  1.00  0.00    -0.355 OA
HETATM   19  C16 UNK     1      17.351   7.066  34.087  1.00  0.00     0.210 C 
ENDBRANCH   8  18
TORSDOF 2
ENDMDL
MODEL 8
REMARK VINA RESULT:      -7.5      1.927      6.667
REMARK  2 active torsions:
REMARK  status: ('A' for Active; 'I' for Inactive)
REMARK    1  A    between atoms: C7_10  and  O3_3 
REMARK    2  A    between atoms: C1_4  and  C4_7 
ROOT
HETATM    1  O1  UNK     1      18.562   0.824  33.402  1.00  0.00    -0.340 OA
HETATM    2  O2  UNK     1      20.087  -1.948  30.790  1.00  0.00    -0.292 OA
HETATM    3  C1  UNK     1      18.377  -0.582  33.632  1.00  0.00     0.169 C 
HETATM    4  C2  UNK     1      19.539  -1.389  33.058  1.00  0.00     0.121 C 
HETATM    5  C3  UNK     1      19.226   0.223  31.133  1.00  0.00     0.076 A 
HETATM    6  C5  UNK     1      19.638  -1.124  31.578  1.00  0.00     0.167 C 
HETATM    7  C6  UNK     1      18.731   1.130  32.076  1.00  0.00     0.086 A 
HETATM    8  C7  UNK     1      19.368   0.603  29.797  1.00  0.00     0.084 A 
HETATM    9  C8  UNK     1      18.410   2.431  31.687  1.00  0.00     0.038 A 
HETATM   10  C11 UNK     1      19.026   1.900  29.409  1.00  0.00     0.038 A 
HETATM   11  C12 UNK     1      18.553   2.812  30.353  1.00  0.00     0.005 A 
ENDROOT
BRANCH   3  12
HETATM   12  C4  UNK     1      18.239  -0.809  35.123  1.00  0.00    -0.029 A 
HETATM   13  C10 UNK     1      18.983  -1.808  35.749  1.00  0.00     0.010 A 
HETATM   14  C14 UNK     1      18.855  -2.017  37.122  1.00  0.00     0.001 A 
HETATM   15  C15 UNK     1      17.983  -1.226  37.870  1.00  0.00     0.000 A 
HETATM   16  C13 UNK     1      17.239  -0.227  37.244  1.00  0.00     0.001 A 
HETATM   17  C9  UNK     1      17.366  -0.017  35.870  1.00  0.00     0.010 A 
ENDBRANCH   3  12
BRANCH   8  18
HETATM   18  O3  UNK     1      19.840  -0.241  28.838  1.00  0.00    -0.355 OA
HETATM   19  C16 UNK     1      18.961  -0.552  27.758  1.00  0.00     0.210 C 
ENDBRANCH   8  18
TORSDOF 2
ENDMDL
MODEL 9
REMARK VINA RESULT:      -7.4      3.933      6.310
REMARK  2 active torsions:
REMARK  status: ('A' for Active; 'I' for Inactive)
REMARK    1  A    between atoms: C7_10  and  O3_3 
REMARK    2  A    between atoms: C1_4  and  C4_7 
ROOT
HETATM    1  O1  UNK     1      17.988   2.752  32.844  1.00  0.00    -0.340 OA
HETATM    2  O2  UNK     1      19.472   1.158  29.368  1.00  0.00    -0.292 OA
HETATM    3  C1  UNK     1      18.685   3.578  31.897  1.00  0.00     0.169 C 
HETATM    4  C2  UNK     1      18.503   3.053  30.475  1.00  0.00     0.121 C 
HETATM    5  C3  UNK     1      18.894   0.839  31.635  1.00  0.00     0.076 A 
HETATM    6  C5  UNK     1      19.023   1.641  30.401  1.00  0.00     0.167 C 
HETATM    7  C6  UNK     1      18.363   1.435  32.782  1.00  0.00     0.086 A 
HETATM    8  C7  UNK     1      19.258  -0.510  31.645  1.00  0.00     0.084 A 
HETATM    9  C8  UNK     1      18.163   0.672  33.933  1.00  0.00     0.038 A 
HETATM   10  C11 UNK     1      19.075  -1.264  32.805  1.00  0.00     0.038 A 
HETATM   11  C12 UNK     1      18.524  -0.676  33.944  1.00  0.00     0.005 A 
ENDROOT
BRANCH   3  12
HETATM   12  C4  UNK     1      18.170   4.995  32.026  1.00  0.00    -0.029 A 
HETATM   13  C10 UNK     1      17.585   5.419  33.220  1.00  0.00     0.010 A 
HETATM   14  C14 UNK     1      17.109   6.724  33.339  1.00  0.00     0.001 A 
HETATM   15  C15 UNK     1      17.219   7.607  32.265  1.00  0.00     0.000 A 
HETATM   16  C13 UNK     1      17.804   7.184  31.071  1.00  0.00     0.001 A 
HETATM   17  C9  UNK     1      18.279   5.877  30.952  1.00  0.00     0.010 A 
ENDBRANCH   3  12
BRANCH   8  18
HETATM   18  O3  UNK     1      19.784  -1.138  30.557  1.00  0.00    -0.355 OA
HETATM   19  C16 UNK     1      20.492  -2.355  30.791  1.00  0.00     0.210 C 
ENDBRANCH   8  18
TORSDOF 2
ENDMDL
MODEL 10
REMARK VINA RESULT:      -7.4      1.763      3.460
REMARK  2 active torsions:
REMARK  status: ('A' for Active; 'I' for Inactive)
REMARK    1  A    between atoms: C7_10  and  O3_3 
REMARK    2  A    between atoms: C1_4  and  C4_7 
ROOT
HETATM    1  O1  UNK     1      18.232  -0.016  33.232  1.00  0.00    -0.340 OA
HETATM    2  O2  UNK     1      20.956  -3.083  33.276  1.00  0.00    -0.292 OA
HETATM    3  C1  UNK     1      19.353  -0.016  32.332  1.00  0.00     0.169 C 
HETATM    4  C2  UNK     1      19.776  -1.441  31.985  1.00  0.00     0.121 C 
HETATM    5  C3  UNK     1      19.401  -1.765  34.466  1.00  0.00     0.076 A 
HETATM    6  C5  UNK     1      20.141  -2.169  33.253  1.00  0.00     0.167 C 
HETATM    7  C6  UNK     1      18.471  -0.724  34.382  1.00  0.00     0.086 A 
HETATM    8  C7  UNK     1      19.595  -2.441  35.673  1.00  0.00     0.084 A 
HETATM    9  C8  UNK     1      17.709  -0.381  35.499  1.00  0.00     0.038 A 
HETATM   10  C11 UNK     1      18.844  -2.080  36.793  1.00  0.00     0.038 A 
HETATM   11  C12 UNK     1      17.900  -1.057  36.704  1.00  0.00     0.005 A 
ENDROOT
BRANCH   3  12
HETATM   12  C4  UNK     1      18.968   0.758  31.089  1.00  0.00    -0.029 A 
HETATM   13  C10 UNK     1      18.446   2.046  31.203  1.00  0.00     0.010 A 
HETATM   14  C14 UNK     1      18.090   2.759  30.058  1.00  0.00     0.001 A 
HETATM   15  C15 UNK     1      18.259   2.184  28.799  1.00  0.00     0.000 A 
HETATM   16  C13 UNK     1      18.781   0.896  28.684  1.00  0.00     0.001 A 
HETATM   17  C9  UNK     1      19.136   0.182  29.830  1.00  0.00     0.010 A 
ENDBRANCH   3  12
BRANCH   8  18
HETATM   18  O3  UNK     1      20.490  -3.458  35.811  1.00  0.00    -0.355 OA
HETATM   19  C16 UNK     1      20.486  -4.160  37.054  1.00  0.00     0.210 C 
ENDBRANCH   8  18
TORSDOF 2
ENDMDL
