MODEL 1
REMARK VINA RESULT:     -10.6      0.000      0.000
REMARK  7 active torsions:
REMARK  status: ('A' for Active; 'I' for Inactive)
REMARK    1  A    between atoms: C19_27  and  O4_4 
REMARK    2  A    between atoms: C21_29  and  O5_5 
REMARK    3  A    between atoms: C5_13  and  N1_6 
REMARK    4  A    between atoms: C6_14  and  N2_7 
REMARK    5  A    between atoms: C17_25  and  N3_8 
REMARK       I    between atoms: C9_17  and  N3_8 
REMARK    6  A    between atoms: C5_13  and  C7_15 
REMARK    7  A    between atoms: C6_14  and  C9_17 
ROOT
HETATM    1  N1  UNK     1      19.286  -3.160  36.210  1.00  0.00     0.096 N 
HETATM    2  N2  UNK     1      18.282  -0.549  35.480  1.00  0.00     0.100 N 
HETATM    3  C1  UNK     1      20.027  -2.287  35.293  1.00  0.00     0.303 C 
HETATM    4  C2  UNK     1      18.490  -2.360  37.148  1.00  0.00     0.303 C 
HETATM    5  C3  UNK     1      19.076  -1.350  34.541  1.00  0.00     0.303 C 
HETATM    6  C4  UNK     1      17.538  -1.423  36.396  1.00  0.00     0.303 C 
ENDROOT
BRANCH   2   7
HETATM    7  C6  UNK     1      17.372   0.343  34.762  1.00  0.00     0.375 C 
BRANCH   7   8
HETATM    8  C9  UNK     1      18.141   1.557  34.268  1.00  0.00     0.250 C 
HETATM    9  O2  UNK     1      19.050   2.071  34.911  1.00  0.00    -0.271 OA
HETATM   10  N3  UNK     1      17.660   1.956  33.023  1.00  0.00    -0.323 N 
HETATM   11  H15 UNK     1      16.904   1.415  32.609  1.00  0.00     0.169 HD
BRANCH  10  12
HETATM   12  C17 UNK     1      18.109   3.040  32.231  1.00  0.00     0.071 A 
HETATM   13  C19 UNK     1      18.423   2.856  30.884  1.00  0.00     0.095 A 
HETATM   14  C22 UNK     1      18.864   3.934  30.118  1.00  0.00     0.042 A 
HETATM   15  C23 UNK     1      18.991   5.197  30.697  1.00  0.00     0.039 A 
HETATM   16  C21 UNK     1      18.677   5.380  32.044  1.00  0.00     0.070 A 
HETATM   17  C20 UNK     1      18.236   4.302  32.811  1.00  0.00     0.069 A 
BRANCH  13  18
HETATM   18  O4  UNK     1      18.306   1.631  30.298  1.00  0.00    -0.354 OA
HETATM   19  C24 UNK     1      18.015   1.607  28.902  1.00  0.00     0.210 C 
ENDBRANCH  13  18
BRANCH  16  20
HETATM   20  O5  UNK     1      18.801   6.613  32.610  1.00  0.00    -0.356 OA
HETATM   21  C25 UNK     1      20.005   6.879  33.328  1.00  0.00     0.210 C 
ENDBRANCH  16  20
ENDBRANCH  10  12
ENDBRANCH   7   8
ENDBRANCH   2   7
BRANCH   1  22
HETATM   22  C5  UNK     1      20.196  -4.050  36.928  1.00  0.00     0.312 C 
BRANCH  22  23
HETATM   23  C7  UNK     1      20.188  -5.431  36.370  1.00  0.00    -0.011 A 
HETATM   24  C10 UNK     1      20.276  -5.645  35.050  1.00  0.00     0.092 A 
HETATM   25  C13 UNK     1      20.272  -6.991  34.452  1.00  0.00     0.288 A 
HETATM   26  O1  UNK     1      20.170  -8.061  35.328  1.00  0.00    -0.275 OA
HETATM   27  O3  UNK     1      20.355  -7.149  33.239  1.00  0.00    -0.260 OA
HETATM   28  C11 UNK     1      20.076  -7.867  36.720  1.00  0.00     0.090 A 
HETATM   29  C8  UNK     1      20.081  -6.586  37.272  1.00  0.00     0.006 A 
HETATM   30  C14 UNK     1      19.978  -9.018  37.505  1.00  0.00     0.045 A 
HETATM   31  C12 UNK     1      19.982  -6.478  38.666  1.00  0.00     0.015 A 
HETATM   32  C16 UNK     1      19.884  -7.622  39.466  1.00  0.00     0.007 A 
HETATM   33  C15 UNK     1      19.882  -8.890  38.887  1.00  0.00    -0.059 A 
HETATM   34  C18 UNK     1      19.776 -10.104  39.745  1.00  0.00     0.048 C 
ENDBRANCH  22  23
ENDBRANCH   1  22
TORSDOF 7
ENDMDL
MODEL 2
REMARK VINA RESULT:     -10.0      1.652      3.039
REMARK  7 active torsions:
REMARK  status: ('A' for Active; 'I' for Inactive)
REMARK    1  A    between atoms: C19_27  and  O4_4 
REMARK    2  A    between atoms: C21_29  and  O5_5 
REMARK    3  A    between atoms: C5_13  and  N1_6 
REMARK    4  A    between atoms: C6_14  and  N2_7 
REMARK    5  A    between atoms: C17_25  and  N3_8 
REMARK       I    between atoms: C9_17  and  N3_8 
REMARK    6  A    between atoms: C5_13  and  C7_15 
REMARK    7  A    between atoms: C6_14  and  C9_17 
ROOT
HETATM    1  N1  UNK     1      19.507  -3.432  36.560  1.00  0.00     0.096 N 
HETATM    2  N2  UNK     1      18.831  -0.672  36.029  1.00  0.00     0.100 N 
HETATM    3  C1  UNK     1      20.387  -2.572  35.760  1.00  0.00     0.303 C 
HETATM    4  C2  UNK     1      18.753  -2.632  37.532  1.00  0.00     0.303 C 
HETATM    5  C3  UNK     1      19.583  -1.473  35.056  1.00  0.00     0.303 C 
HETATM    6  C4  UNK     1      17.950  -1.533  36.828  1.00  0.00     0.303 C 
ENDROOT
BRANCH   2   7
HETATM    7  C6  UNK     1      18.064   0.375  35.357  1.00  0.00     0.375 C 
BRANCH   7   8
HETATM    8  C9  UNK     1      17.955   0.051  33.877  1.00  0.00     0.250 C 
HETATM    9  O2  UNK     1      17.259  -0.864  33.449  1.00  0.00    -0.271 OA
HETATM   10  N3  UNK     1      18.739   0.931  33.133  1.00  0.00    -0.323 N 
HETATM   11  H15 UNK     1      19.253   1.651  33.636  1.00  0.00     0.169 HD
BRANCH  10  12
HETATM   12  C17 UNK     1      18.907   0.961  31.728  1.00  0.00     0.071 A 
HETATM   13  C19 UNK     1      18.328   1.973  30.963  1.00  0.00     0.095 A 
HETATM   14  C22 UNK     1      18.503   1.988  29.580  1.00  0.00     0.042 A 
HETATM   15  C23 UNK     1      19.258   0.992  28.961  1.00  0.00     0.039 A 
HETATM   16  C21 UNK     1      19.837  -0.020  29.726  1.00  0.00     0.070 A 
HETATM   17  C20 UNK     1      19.662  -0.036  31.110  1.00  0.00     0.069 A 
BRANCH  13  18
HETATM   18  O4  UNK     1      17.587   2.956  31.547  1.00  0.00    -0.354 OA
HETATM   19  C24 UNK     1      18.213   4.226  31.715  1.00  0.00     0.210 C 
ENDBRANCH  13  18
BRANCH  16  20
HETATM   20  O5  UNK     1      20.575  -0.993  29.122  1.00  0.00    -0.356 OA
HETATM   21  C25 UNK     1      20.620  -2.266  29.765  1.00  0.00     0.210 C 
ENDBRANCH  16  20
ENDBRANCH  10  12
ENDBRANCH   7   8
ENDBRANCH   2   7
BRANCH   1  22
HETATM   22  C5  UNK     1      20.275  -4.478  37.233  1.00  0.00     0.312 C 
BRANCH  22  23
HETATM   23  C7  UNK     1      20.214  -5.777  36.506  1.00  0.00    -0.011 A 
HETATM   24  C10 UNK     1      20.349  -5.832  35.174  1.00  0.00     0.092 A 
HETATM   25  C13 UNK     1      20.295  -7.091  34.412  1.00  0.00     0.288 A 
HETATM   26  O1  UNK     1      20.094  -8.252  35.142  1.00  0.00    -0.275 OA
HETATM   27  O3  UNK     1      20.423  -7.103  33.193  1.00  0.00    -0.260 OA
HETATM   28  C11 UNK     1      19.948  -8.225  36.543  1.00  0.00     0.090 A 
HETATM   29  C8  UNK     1      20.001  -7.025  37.251  1.00  0.00     0.006 A 
HETATM   30  C14 UNK     1      19.750  -9.455  37.174  1.00  0.00     0.045 A 
HETATM   31  C12 UNK     1      19.846  -7.083  38.644  1.00  0.00     0.015 A 
HETATM   32  C16 UNK     1      19.648  -8.308  39.290  1.00  0.00     0.007 A 
HETATM   33  C15 UNK     1      19.599  -9.493  38.556  1.00  0.00    -0.059 A 
HETATM   34  C18 UNK     1      19.386 -10.794  39.251  1.00  0.00     0.048 C 
ENDBRANCH  22  23
ENDBRANCH   1  22
TORSDOF 7
ENDMDL
MODEL 3
REMARK VINA RESULT:      -9.8      3.888     11.608
REMARK  7 active torsions:
REMARK  status: ('A' for Active; 'I' for Inactive)
REMARK    1  A    between atoms: C19_27  and  O4_4 
REMARK    2  A    between atoms: C21_29  and  O5_5 
REMARK    3  A    between atoms: C5_13  and  N1_6 
REMARK    4  A    between atoms: C6_14  and  N2_7 
REMARK    5  A    between atoms: C17_25  and  N3_8 
REMARK       I    between atoms: C9_17  and  N3_8 
REMARK    6  A    between atoms: C5_13  and  C7_15 
REMARK    7  A    between atoms: C6_14  and  C9_17 
ROOT
HETATM    1  N1  UNK     1      19.904  -4.124  36.759  1.00  0.00     0.096 N 
HETATM    2  N2  UNK     1      20.155  -6.996  36.977  1.00  0.00     0.100 N 
HETATM    3  C1  UNK     1      20.745  -4.740  37.793  1.00  0.00     0.303 C 
HETATM    4  C2  UNK     1      19.833  -4.987  35.574  1.00  0.00     0.303 C 
HETATM    5  C3  UNK     1      20.224  -6.133  38.162  1.00  0.00     0.303 C 
HETATM    6  C4  UNK     1      19.312  -6.380  35.944  1.00  0.00     0.303 C 
ENDROOT
BRANCH   2   7
HETATM    7  C6  UNK     1      19.655  -8.324  37.330  1.00  0.00     0.375 C 
BRANCH   7   8
HETATM    8  C9  UNK     1      20.830  -9.248  37.605  1.00  0.00     0.250 C 
HETATM    9  O2  UNK     1      20.882  -9.974  38.592  1.00  0.00    -0.271 OA
HETATM   10  N3  UNK     1      21.780  -9.135  36.593  1.00  0.00    -0.323 N 
HETATM   11  H15 UNK     1      21.584  -8.493  35.827  1.00  0.00     0.169 HD
BRANCH  10  12
HETATM   12  C17 UNK     1      23.010  -9.825  36.481  1.00  0.00     0.071 A 
HETATM   13  C19 UNK     1      24.188  -9.267  36.979  1.00  0.00     0.095 A 
HETATM   14  C22 UNK     1      25.392  -9.959  36.861  1.00  0.00     0.042 A 
HETATM   15  C23 UNK     1      25.420 -11.210  36.245  1.00  0.00     0.039 A 
HETATM   16  C21 UNK     1      24.242 -11.769  35.748  1.00  0.00     0.070 A 
HETATM   17  C20 UNK     1      23.037 -11.076  35.865  1.00  0.00     0.069 A 
BRANCH  13  18
HETATM   18  O4  UNK     1      24.183  -8.045  37.584  1.00  0.00    -0.354 OA
HETATM   19  C24 UNK     1      24.097  -8.028  39.007  1.00  0.00     0.210 C 
ENDBRANCH  13  18
BRANCH  16  20
HETATM   20  O5  UNK     1      24.269 -12.990  35.147  1.00  0.00    -0.356 OA
HETATM   21  C25 UNK     1      24.661 -14.101  35.952  1.00  0.00     0.210 C 
ENDBRANCH  16  20
ENDBRANCH  10  12
ENDBRANCH   7   8
ENDBRANCH   2   7
BRANCH   1  22
HETATM   22  C5  UNK     1      20.404  -2.797  36.406  1.00  0.00     0.312 C 
BRANCH  22  23
HETATM   23  C7  UNK     1      19.449  -2.048  35.543  1.00  0.00    -0.011 A 
HETATM   24  C10 UNK     1      18.349  -1.480  36.057  1.00  0.00     0.092 A 
HETATM   25  C13 UNK     1      17.377  -0.731  35.243  1.00  0.00     0.288 A 
HETATM   26  O1  UNK     1      17.646  -0.630  33.887  1.00  0.00    -0.275 OA
HETATM   27  O3  UNK     1      16.381  -0.224  35.749  1.00  0.00    -0.260 OA
HETATM   28  C11 UNK     1      18.793  -1.217  33.318  1.00  0.00     0.090 A 
HETATM   29  C8  UNK     1      19.705  -1.924  34.101  1.00  0.00     0.006 A 
HETATM   30  C14 UNK     1      18.962  -1.051  31.942  1.00  0.00     0.045 A 
HETATM   31  C12 UNK     1      20.822  -2.478  33.459  1.00  0.00     0.015 A 
HETATM   32  C16 UNK     1      21.005  -2.320  32.081  1.00  0.00     0.007 A 
HETATM   33  C15 UNK     1      20.076  -1.608  31.323  1.00  0.00    -0.059 A 
HETATM   34  C18 UNK     1      20.277  -1.445  29.855  1.00  0.00     0.048 C 
ENDBRANCH  22  23
ENDBRANCH   1  22
TORSDOF 7
ENDMDL
MODEL 4
REMARK VINA RESULT:      -9.7      2.310      3.824
REMARK  7 active torsions:
REMARK  status: ('A' for Active; 'I' for Inactive)
REMARK    1  A    between atoms: C19_27  and  O4_4 
REMARK    2  A    between atoms: C21_29  and  O5_5 
REMARK    3  A    between atoms: C5_13  and  N1_6 
REMARK    4  A    between atoms: C6_14  and  N2_7 
REMARK    5  A    between atoms: C17_25  and  N3_8 
REMARK       I    between atoms: C9_17  and  N3_8 
REMARK    6  A    between atoms: C5_13  and  C7_15 
REMARK    7  A    between atoms: C6_14  and  C9_17 
ROOT
HETATM    1  N1  UNK     1      19.580  -4.176  36.500  1.00  0.00     0.096 N 
HETATM    2  N2  UNK     1      18.680  -1.602  35.542  1.00  0.00     0.100 N 
HETATM    3  C1  UNK     1      18.216  -3.703  36.757  1.00  0.00     0.303 C 
HETATM    4  C2  UNK     1      20.095  -3.607  35.249  1.00  0.00     0.303 C 
HETATM    5  C3  UNK     1      18.167  -2.171  36.794  1.00  0.00     0.303 C 
HETATM    6  C4  UNK     1      20.046  -2.075  35.286  1.00  0.00     0.303 C 
ENDROOT
BRANCH   2   7
HETATM    7  C6  UNK     1      18.635  -0.142  35.578  1.00  0.00     0.375 C 
BRANCH   7   8
HETATM    8  C9  UNK     1      18.004   0.377  34.297  1.00  0.00     0.250 C 
HETATM    9  O2  UNK     1      16.790   0.400  34.120  1.00  0.00    -0.271 OA
HETATM   10  N3  UNK     1      18.992   0.802  33.411  1.00  0.00    -0.323 N 
HETATM   11  H15 UNK     1      19.962   0.731  33.712  1.00  0.00     0.169 HD
BRANCH  10  12
HETATM   12  C17 UNK     1      18.816   1.348  32.117  1.00  0.00     0.071 A 
HETATM   13  C19 UNK     1      18.363   2.657  31.952  1.00  0.00     0.095 A 
HETATM   14  C22 UNK     1      18.194   3.179  30.670  1.00  0.00     0.042 A 
HETATM   15  C23 UNK     1      18.478   2.393  29.553  1.00  0.00     0.039 A 
HETATM   16  C21 UNK     1      18.931   1.084  29.719  1.00  0.00     0.070 A 
HETATM   17  C20 UNK     1      19.100   0.561  31.002  1.00  0.00     0.069 A 
BRANCH  13  18
HETATM   18  O4  UNK     1      18.079   3.442  33.029  1.00  0.00    -0.354 OA
HETATM   19  C24 UNK     1      17.787   4.814  32.772  1.00  0.00     0.210 C 
ENDBRANCH  13  18
BRANCH  16  20
HETATM   20  O5  UNK     1      19.209   0.317  28.629  1.00  0.00    -0.356 OA
HETATM   21  C25 UNK     1      20.225  -0.674  28.775  1.00  0.00     0.210 C 
ENDBRANCH  16  20
ENDBRANCH  10  12
ENDBRANCH   7   8
ENDBRANCH   2   7
BRANCH   1  22
HETATM   22  C5  UNK     1      19.624  -5.637  36.462  1.00  0.00     0.312 C 
BRANCH  22  23
HETATM   23  C7  UNK     1      20.869  -6.178  37.075  1.00  0.00    -0.011 A 
HETATM   24  C10 UNK     1      21.554  -5.475  37.988  1.00  0.00     0.092 A 
HETATM   25  C13 UNK     1      22.788  -5.968  38.622  1.00  0.00     0.288 A 
HETATM   26  O1  UNK     1      23.232  -7.222  38.229  1.00  0.00    -0.275 OA
HETATM   27  O3  UNK     1      23.389  -5.297  39.454  1.00  0.00    -0.260 OA
HETATM   28  C11 UNK     1      22.533  -7.984  37.272  1.00  0.00     0.090 A 
HETATM   29  C8  UNK     1      21.365  -7.503  36.680  1.00  0.00     0.006 A 
HETATM   30  C14 UNK     1      23.072  -9.232  36.953  1.00  0.00     0.045 A 
HETATM   31  C12 UNK     1      20.730  -8.322  35.736  1.00  0.00     0.015 A 
HETATM   32  C16 UNK     1      21.258  -9.576  35.407  1.00  0.00     0.007 A 
HETATM   33  C15 UNK     1      22.428 -10.030  36.015  1.00  0.00    -0.059 A 
HETATM   34  C18 UNK     1      22.984 -11.366  35.659  1.00  0.00     0.048 C 
ENDBRANCH  22  23
ENDBRANCH   1  22
TORSDOF 7
ENDMDL
MODEL 5
REMARK VINA RESULT:      -9.5      3.948     11.440
REMARK  7 active torsions:
REMARK  status: ('A' for Active; 'I' for Inactive)
REMARK    1  A    between atoms: C19_27  and  O4_4 
REMARK    2  A    between atoms: C21_29  and  O5_5 
REMARK    3  A    between atoms: C5_13  and  N1_6 
REMARK    4  A    between atoms: C6_14  and  N2_7 
REMARK    5  A    between atoms: C17_25  and  N3_8 
REMARK       I    between atoms: C9_17  and  N3_8 
REMARK    6  A    between atoms: C5_13  and  C7_15 
REMARK    7  A    between atoms: C6_14  and  C9_17 
ROOT
HETATM    1  N1  UNK     1      20.157  -3.859  36.615  1.00  0.00     0.096 N 
HETATM    2  N2  UNK     1      20.329  -6.719  37.002  1.00  0.00     0.100 N 
HETATM    3  C1  UNK     1      21.083  -4.441  37.593  1.00  0.00     0.303 C 
HETATM    4  C2  UNK     1      19.926  -4.793  35.507  1.00  0.00     0.303 C 
HETATM    5  C3  UNK     1      20.558  -5.785  38.111  1.00  0.00     0.303 C 
HETATM    6  C4  UNK     1      19.401  -6.136  36.025  1.00  0.00     0.303 C 
ENDROOT
BRANCH   2   7
HETATM    7  C6  UNK     1      19.826  -7.999  37.497  1.00  0.00     0.375 C 
BRANCH   7   8
HETATM    8  C9  UNK     1      20.996  -8.928  37.778  1.00  0.00     0.250 C 
HETATM    9  O2  UNK     1      21.123  -9.529  38.839  1.00  0.00    -0.271 OA
HETATM   10  N3  UNK     1      21.847  -8.976  36.676  1.00  0.00    -0.323 N 
HETATM   11  H15 UNK     1      21.595  -8.426  35.857  1.00  0.00     0.169 HD
BRANCH  10  12
HETATM   12  C17 UNK     1      23.042  -9.722  36.539  1.00  0.00     0.071 A 
HETATM   13  C19 UNK     1      24.249  -9.230  37.034  1.00  0.00     0.095 A 
HETATM   14  C22 UNK     1      25.418  -9.977  36.892  1.00  0.00     0.042 A 
HETATM   15  C23 UNK     1      25.380 -11.217  36.254  1.00  0.00     0.039 A 
HETATM   16  C21 UNK     1      24.172 -11.709  35.759  1.00  0.00     0.070 A 
HETATM   17  C20 UNK     1      23.003 -10.962  35.902  1.00  0.00     0.069 A 
BRANCH  13  18
HETATM   18  O4  UNK     1      24.309  -8.020  37.661  1.00  0.00    -0.354 OA
HETATM   19  C24 UNK     1      24.338  -8.030  39.086  1.00  0.00     0.210 C 
ENDBRANCH  13  18
BRANCH  16  20
HETATM   20  O5  UNK     1      24.135 -12.920  35.136  1.00  0.00    -0.356 OA
HETATM   21  C25 UNK     1      24.698 -14.027  35.837  1.00  0.00     0.210 C 
ENDBRANCH  16  20
ENDBRANCH  10  12
ENDBRANCH   7   8
ENDBRANCH   2   7
BRANCH   1  22
HETATM   22  C5  UNK     1      20.661  -2.580  36.120  1.00  0.00     0.312 C 
BRANCH  22  23
HETATM   23  C7  UNK     1      19.739  -1.958  35.128  1.00  0.00    -0.011 A 
HETATM   24  C10 UNK     1      19.950  -2.085  33.811  1.00  0.00     0.092 A 
HETATM   25  C13 UNK     1      19.067  -1.489  32.795  1.00  0.00     0.288 A 
HETATM   26  O1  UNK     1      17.977  -0.771  33.261  1.00  0.00    -0.275 OA
HETATM   27  O3  UNK     1      19.291  -1.627  31.597  1.00  0.00    -0.260 OA
HETATM   28  C11 UNK     1      17.729  -0.620  34.640  1.00  0.00     0.090 A 
HETATM   29  C8  UNK     1      18.575  -1.190  35.591  1.00  0.00     0.006 A 
HETATM   30  C14 UNK     1      16.602   0.125  34.994  1.00  0.00     0.045 A 
HETATM   31  C12 UNK     1      18.260  -0.993  36.943  1.00  0.00     0.015 A 
HETATM   32  C16 UNK     1      17.134  -0.250  37.313  1.00  0.00     0.007 A 
HETATM   33  C15 UNK     1      16.306   0.308  36.340  1.00  0.00    -0.059 A 
HETATM   34  C18 UNK     1      15.108   1.100  36.743  1.00  0.00     0.048 C 
ENDBRANCH  22  23
ENDBRANCH   1  22
TORSDOF 7
ENDMDL
MODEL 6
REMARK VINA RESULT:      -9.3      0.858      2.388
REMARK  7 active torsions:
REMARK  status: ('A' for Active; 'I' for Inactive)
REMARK    1  A    between atoms: C19_27  and  O4_4 
REMARK    2  A    between atoms: C21_29  and  O5_5 
REMARK    3  A    between atoms: C5_13  and  N1_6 
REMARK    4  A    between atoms: C6_14  and  N2_7 
REMARK    5  A    between atoms: C17_25  and  N3_8 
REMARK       I    between atoms: C9_17  and  N3_8 
REMARK    6  A    between atoms: C5_13  and  C7_15 
REMARK    7  A    between atoms: C6_14  and  C9_17 
ROOT
HETATM    1  N1  UNK     1      19.349  -3.150  36.331  1.00  0.00     0.096 N 
HETATM    2  N2  UNK     1      18.502  -0.505  35.529  1.00  0.00     0.100 N 
HETATM    3  C1  UNK     1      20.053  -2.411  35.277  1.00  0.00     0.303 C 
HETATM    4  C2  UNK     1      18.742  -2.221  37.291  1.00  0.00     0.303 C 
HETATM    5  C3  UNK     1      19.107  -1.435  34.568  1.00  0.00     0.303 C 
HETATM    6  C4  UNK     1      17.796  -1.245  36.583  1.00  0.00     0.303 C 
ENDROOT
BRANCH   2   7
HETATM    7  C6  UNK     1      17.598   0.424  34.854  1.00  0.00     0.375 C 
BRANCH   7   8
HETATM    8  C9  UNK     1      18.266   0.956  33.597  1.00  0.00     0.250 C 
HETATM    9  O2  UNK     1      19.113   0.319  32.978  1.00  0.00    -0.271 OA
HETATM   10  N3  UNK     1      17.772   2.221  33.287  1.00  0.00    -0.323 N 
HETATM   11  H15 UNK     1      17.056   2.613  33.895  1.00  0.00     0.169 HD
BRANCH  10  12
HETATM   12  C17 UNK     1      18.138   3.049  32.199  1.00  0.00     0.071 A 
HETATM   13  C19 UNK     1      18.525   4.372  32.409  1.00  0.00     0.095 A 
HETATM   14  C22 UNK     1      18.881   5.175  31.326  1.00  0.00     0.042 A 
HETATM   15  C23 UNK     1      18.851   4.654  30.032  1.00  0.00     0.039 A 
HETATM   16  C21 UNK     1      18.464   3.331  29.822  1.00  0.00     0.070 A 
HETATM   17  C20 UNK     1      18.107   2.528  30.906  1.00  0.00     0.069 A 
BRANCH  13  18
HETATM   18  O4  UNK     1      18.561   4.901  33.665  1.00  0.00    -0.354 OA
HETATM   19  C24 UNK     1      17.906   6.152  33.860  1.00  0.00     0.210 C 
ENDBRANCH  13  18
BRANCH  16  20
HETATM   20  O5  UNK     1      18.435   2.823  28.559  1.00  0.00    -0.356 OA
HETATM   21  C25 UNK     1      18.054   1.455  28.419  1.00  0.00     0.210 C 
ENDBRANCH  16  20
ENDBRANCH  10  12
ENDBRANCH   7   8
ENDBRANCH   2   7
BRANCH   1  22
HETATM   22  C5  UNK     1      20.253  -4.078  37.008  1.00  0.00     0.312 C 
BRANCH  22  23
HETATM   23  C7  UNK     1      20.204  -5.444  36.414  1.00  0.00    -0.011 A 
HETATM   24  C10 UNK     1      20.287  -5.626  35.089  1.00  0.00     0.092 A 
HETATM   25  C13 UNK     1      20.244  -6.956  34.457  1.00  0.00     0.288 A 
HETATM   26  O1  UNK     1      20.109  -8.044  35.305  1.00  0.00    -0.275 OA
HETATM   27  O3  UNK     1      20.323  -7.085  33.240  1.00  0.00    -0.260 OA
HETATM   28  C11 UNK     1      20.019  -7.883  36.702  1.00  0.00     0.090 A 
HETATM   29  C8  UNK     1      20.062  -6.617  37.286  1.00  0.00     0.006 A 
HETATM   30  C14 UNK     1      19.886  -9.050  37.458  1.00  0.00     0.045 A 
HETATM   31  C12 UNK     1      19.965  -6.542  38.683  1.00  0.00     0.015 A 
HETATM   32  C16 UNK     1      19.832  -7.702  39.454  1.00  0.00     0.007 A 
HETATM   33  C15 UNK     1      19.792  -8.954  38.842  1.00  0.00    -0.059 A 
HETATM   34  C18 UNK     1      19.649 -10.186  39.670  1.00  0.00     0.048 C 
ENDBRANCH  22  23
ENDBRANCH   1  22
TORSDOF 7
ENDMDL
MODEL 7
REMARK VINA RESULT:      -9.2      1.858      2.426
REMARK  7 active torsions:
REMARK  status: ('A' for Active; 'I' for Inactive)
REMARK    1  A    between atoms: C19_27  and  O4_4 
REMARK    2  A    between atoms: C21_29  and  O5_5 
REMARK    3  A    between atoms: C5_13  and  N1_6 
REMARK    4  A    between atoms: C6_14  and  N2_7 
REMARK    5  A    between atoms: C17_25  and  N3_8 
REMARK       I    between atoms: C9_17  and  N3_8 
REMARK    6  A    between atoms: C5_13  and  C7_15 
REMARK    7  A    between atoms: C6_14  and  C9_17 
ROOT
HETATM    1  N1  UNK     1      19.593  -3.824  36.460  1.00  0.00     0.096 N 
HETATM    2  N2  UNK     1      18.429  -1.222  35.981  1.00  0.00     0.100 N 
HETATM    3  C1  UNK     1      18.186  -3.549  36.773  1.00  0.00     0.303 C 
HETATM    4  C2  UNK     1      20.046  -2.980  35.348  1.00  0.00     0.303 C 
HETATM    5  C3  UNK     1      17.978  -2.065  37.094  1.00  0.00     0.303 C 
HETATM    6  C4  UNK     1      19.838  -1.496  35.669  1.00  0.00     0.303 C 
ENDROOT
BRANCH   2   7
HETATM    7  C6  UNK     1      18.232   0.194  36.289  1.00  0.00     0.375 C 
BRANCH   7   8
HETATM    8  C9  UNK     1      17.664   0.902  35.071  1.00  0.00     0.250 C 
HETATM    9  O2  UNK     1      16.556   0.641  34.612  1.00  0.00    -0.271 OA
HETATM   10  N3  UNK     1      18.570   1.848  34.598  1.00  0.00    -0.323 N 
HETATM   11  H15 UNK     1      19.449   1.957  35.099  1.00  0.00     0.169 HD
BRANCH  10  12
HETATM   12  C17 UNK     1      18.416   2.712  33.487  1.00  0.00     0.071 A 
HETATM   13  C19 UNK     1      18.516   2.221  32.184  1.00  0.00     0.095 A 
HETATM   14  C22 UNK     1      18.362   3.085  31.101  1.00  0.00     0.042 A 
HETATM   15  C23 UNK     1      18.109   4.439  31.318  1.00  0.00     0.039 A 
HETATM   16  C21 UNK     1      18.009   4.930  32.620  1.00  0.00     0.070 A 
HETATM   17  C20 UNK     1      18.163   4.065  33.705  1.00  0.00     0.069 A 
BRANCH  13  18
HETATM   18  O4  UNK     1      18.763   0.902  31.949  1.00  0.00    -0.354 OA
HETATM   19  C24 UNK     1      19.258   0.556  30.657  1.00  0.00     0.210 C 
ENDBRANCH  13  18
BRANCH  16  20
HETATM   20  O5  UNK     1      17.762   6.252  32.833  1.00  0.00    -0.356 OA
HETATM   21  C25 UNK     1      18.603   6.928  33.766  1.00  0.00     0.210 C 
ENDBRANCH  16  20
ENDBRANCH  10  12
ENDBRANCH   7   8
ENDBRANCH   2   7
BRANCH   1  22
HETATM   22  C5  UNK     1      19.789  -5.239  36.150  1.00  0.00     0.312 C 
BRANCH  22  23
HETATM   23  C7  UNK     1      20.621  -5.929  37.176  1.00  0.00    -0.011 A 
HETATM   24  C10 UNK     1      21.712  -5.345  37.690  1.00  0.00     0.092 A 
HETATM   25  C13 UNK     1      22.564  -5.987  38.706  1.00  0.00     0.288 A 
HETATM   26  O1  UNK     1      22.187  -7.254  39.124  1.00  0.00    -0.275 OA
HETATM   27  O3  UNK     1      23.556  -5.423  39.154  1.00  0.00    -0.260 OA
HETATM   28  C11 UNK     1      21.045  -7.893  38.602  1.00  0.00     0.090 A 
HETATM   29  C8  UNK     1      20.248  -7.272  37.640  1.00  0.00     0.006 A 
HETATM   30  C14 UNK     1      20.761  -9.168  39.096  1.00  0.00     0.045 A 
HETATM   31  C12 UNK     1      19.129  -7.975  37.170  1.00  0.00     0.015 A 
HETATM   32  C16 UNK     1      18.832  -9.253  37.657  1.00  0.00     0.007 A 
HETATM   33  C15 UNK     1      19.647  -9.848  38.619  1.00  0.00    -0.059 A 
HETATM   34  C18 UNK     1      19.324 -11.210  39.132  1.00  0.00     0.048 C 
ENDBRANCH  22  23
ENDBRANCH   1  22
TORSDOF 7
ENDMDL
MODEL 8
REMARK VINA RESULT:      -9.2      5.021     12.548
REMARK  7 active torsions:
REMARK  status: ('A' for Active; 'I' for Inactive)
REMARK    1  A    between atoms: C19_27  and  O4_4 
REMARK    2  A    between atoms: C21_29  and  O5_5 
REMARK    3  A    between atoms: C5_13  and  N1_6 
REMARK    4  A    between atoms: C6_14  and  N2_7 
REMARK    5  A    between atoms: C17_25  and  N3_8 
REMARK       I    between atoms: C9_17  and  N3_8 
REMARK    6  A    between atoms: C5_13  and  C7_15 
REMARK    7  A    between atoms: C6_14  and  C9_17 
ROOT
HETATM    1  N1  UNK     1      18.310   6.427  32.238  1.00  0.00     0.096 N 
HETATM    2  N2  UNK     1      18.980   4.258  30.448  1.00  0.00     0.100 N 
HETATM    3  C1  UNK     1      18.146   5.026  32.643  1.00  0.00     0.303 C 
HETATM    4  C2  UNK     1      19.397   6.554  31.260  1.00  0.00     0.303 C 
HETATM    5  C3  UNK     1      17.892   4.131  31.424  1.00  0.00     0.303 C 
HETATM    6  C4  UNK     1      19.143   5.660  30.042  1.00  0.00     0.303 C 
ENDROOT
BRANCH   2   7
HETATM    7  C6  UNK     1      18.736   3.406  29.285  1.00  0.00     0.375 C 
BRANCH   7   8
HETATM    8  C9  UNK     1      18.472   1.983  29.748  1.00  0.00     0.250 C 
HETATM    9  O2  UNK     1      17.548   1.306  29.308  1.00  0.00    -0.271 OA
HETATM   10  N3  UNK     1      19.414   1.603  30.701  1.00  0.00    -0.323 N 
HETATM   11  H15 UNK     1      20.133   2.279  30.953  1.00  0.00     0.169 HD
BRANCH  10  12
HETATM   12  C17 UNK     1      19.511   0.362  31.373  1.00  0.00     0.071 A 
HETATM   13  C19 UNK     1      20.233  -0.695  30.817  1.00  0.00     0.095 A 
HETATM   14  C22 UNK     1      20.318  -1.912  31.492  1.00  0.00     0.042 A 
HETATM   15  C23 UNK     1      19.682  -2.073  32.723  1.00  0.00     0.039 A 
HETATM   16  C21 UNK     1      18.961  -1.017  33.279  1.00  0.00     0.070 A 
HETATM   17  C20 UNK     1      18.875   0.201  32.604  1.00  0.00     0.069 A 
BRANCH  13  18
HETATM   18  O4  UNK     1      20.861  -0.558  29.616  1.00  0.00    -0.354 OA
HETATM   19  C24 UNK     1      20.135  -0.958  28.456  1.00  0.00     0.210 C 
ENDBRANCH  13  18
BRANCH  16  20
HETATM   20  O5  UNK     1      18.340  -1.174  34.481  1.00  0.00    -0.356 OA
HETATM   21  C25 UNK     1      18.647  -0.224  35.499  1.00  0.00     0.210 C 
ENDBRANCH  16  20
ENDBRANCH  10  12
ENDBRANCH   7   8
ENDBRANCH   2   7
BRANCH   1  22
HETATM   22  C5  UNK     1      18.556   7.278  33.401  1.00  0.00     0.312 C 
BRANCH  22  23
HETATM   23  C7  UNK     1      17.398   8.166  33.702  1.00  0.00    -0.011 A 
HETATM   24  C10 UNK     1      16.151   7.680  33.770  1.00  0.00     0.092 A 
HETATM   25  C13 UNK     1      14.977   8.518  34.064  1.00  0.00     0.288 A 
HETATM   26  O1  UNK     1      15.212   9.868  34.273  1.00  0.00    -0.275 OA
HETATM   27  O3  UNK     1      13.850   8.038  34.119  1.00  0.00    -0.260 OA
HETATM   28  C11 UNK     1      16.512  10.408  34.207  1.00  0.00     0.090 A 
HETATM   29  C8  UNK     1      17.615   9.601  33.928  1.00  0.00     0.006 A 
HETATM   30  C14 UNK     1      16.630  11.781  34.435  1.00  0.00     0.045 A 
HETATM   31  C12 UNK     1      18.874  10.216  33.879  1.00  0.00     0.015 A 
HETATM   32  C16 UNK     1      19.008  11.590  34.106  1.00  0.00     0.007 A 
HETATM   33  C15 UNK     1      17.887  12.371  34.383  1.00  0.00    -0.059 A 
HETATM   34  C18 UNK     1      18.038  13.835  34.622  1.00  0.00     0.048 C 
ENDBRANCH  22  23
ENDBRANCH   1  22
TORSDOF 7
ENDMDL
MODEL 9
REMARK VINA RESULT:      -9.1      4.580      8.132
REMARK  7 active torsions:
REMARK  status: ('A' for Active; 'I' for Inactive)
REMARK    1  A    between atoms: C19_27  and  O4_4 
REMARK    2  A    between atoms: C21_29  and  O5_5 
REMARK    3  A    between atoms: C5_13  and  N1_6 
REMARK    4  A    between atoms: C6_14  and  N2_7 
REMARK    5  A    between atoms: C17_25  and  N3_8 
REMARK       I    between atoms: C9_17  and  N3_8 
REMARK    6  A    between atoms: C5_13  and  C7_15 
REMARK    7  A    between atoms: C6_14  and  C9_17 
ROOT
HETATM    1  N1  UNK     1      18.784   3.589  31.379  1.00  0.00     0.096 N 
HETATM    2  N2  UNK     1      19.148   6.288  32.347  1.00  0.00     0.100 N 
HETATM    3  C1  UNK     1      17.923   4.144  32.429  1.00  0.00     0.303 C 
HETATM    4  C2  UNK     1      19.271   4.655  30.496  1.00  0.00     0.303 C 
HETATM    5  C3  UNK     1      18.664   5.221  33.230  1.00  0.00     0.303 C 
HETATM    6  C4  UNK     1      20.012   5.731  31.297  1.00  0.00     0.303 C 
ENDROOT
BRANCH   2   7
HETATM    7  C6  UNK     1      19.857   7.313  33.111  1.00  0.00     0.375 C 
BRANCH   7   8
HETATM    8  C9  UNK     1      18.889   7.991  34.066  1.00  0.00     0.250 C 
HETATM    9  O2  UNK     1      18.996   7.907  35.285  1.00  0.00    -0.271 OA
HETATM   10  N3  UNK     1      17.917   8.688  33.353  1.00  0.00    -0.323 N 
HETATM   11  H15 UNK     1      17.972   8.673  32.336  1.00  0.00     0.169 HD
BRANCH  10  12
HETATM   12  C17 UNK     1      16.842   9.447  33.872  1.00  0.00     0.071 A 
HETATM   13  C19 UNK     1      15.586   8.869  34.058  1.00  0.00     0.095 A 
HETATM   14  C22 UNK     1      14.537   9.630  34.571  1.00  0.00     0.042 A 
HETATM   15  C23 UNK     1      14.742  10.971  34.898  1.00  0.00     0.039 A 
HETATM   16  C21 UNK     1      15.998  11.549  34.713  1.00  0.00     0.070 A 
HETATM   17  C20 UNK     1      17.048  10.787  34.200  1.00  0.00     0.069 A 
BRANCH  13  18
HETATM   18  O4  UNK     1      15.363   7.561  33.744  1.00  0.00    -0.354 OA
HETATM   19  C24 UNK     1      14.711   7.295  32.504  1.00  0.00     0.210 C 
ENDBRANCH  13  18
BRANCH  16  20
HETATM   20  O5  UNK     1      16.199  12.857  35.033  1.00  0.00    -0.356 OA
HETATM   21  C25 UNK     1      15.969  13.236  36.389  1.00  0.00     0.210 C 
ENDBRANCH  16  20
ENDBRANCH  10  12
ENDBRANCH   7   8
ENDBRANCH   2   7
BRANCH   1  22
HETATM   22  C5  UNK     1      18.075   2.564  30.614  1.00  0.00     0.312 C 
BRANCH  22  23
HETATM   23  C7  UNK     1      18.845   1.292  30.529  1.00  0.00    -0.011 A 
HETATM   24  C10 UNK     1      19.442   0.919  29.389  1.00  0.00     0.092 A 
HETATM   25  C13 UNK     1      20.214  -0.329  29.258  1.00  0.00     0.288 A 
HETATM   26  O1  UNK     1      20.303  -1.128  30.387  1.00  0.00    -0.275 OA
HETATM   27  O3  UNK     1      20.748  -0.639  28.198  1.00  0.00    -0.260 OA
HETATM   28  C11 UNK     1      19.685  -0.761  31.599  1.00  0.00     0.090 A 
HETATM   29  C8  UNK     1      18.957   0.424  31.709  1.00  0.00     0.006 A 
HETATM   30  C14 UNK     1      19.841  -1.643  32.671  1.00  0.00     0.045 A 
HETATM   31  C12 UNK     1      18.372   0.716  32.949  1.00  0.00     0.015 A 
HETATM   32  C16 UNK     1      18.521  -0.158  34.032  1.00  0.00     0.007 A 
HETATM   33  C15 UNK     1      19.254  -1.335  33.894  1.00  0.00    -0.059 A 
HETATM   34  C18 UNK     1      19.407  -2.261  35.052  1.00  0.00     0.048 C 
ENDBRANCH  22  23
ENDBRANCH   1  22
TORSDOF 7
ENDMDL
MODEL 10
REMARK VINA RESULT:      -8.9      6.085      9.974
REMARK  7 active torsions:
REMARK  status: ('A' for Active; 'I' for Inactive)
REMARK    1  A    between atoms: C19_27  and  O4_4 
REMARK    2  A    between atoms: C21_29  and  O5_5 
REMARK    3  A    between atoms: C5_13  and  N1_6 
REMARK    4  A    between atoms: C6_14  and  N2_7 
REMARK    5  A    between atoms: C17_25  and  N3_8 
REMARK       I    between atoms: C9_17  and  N3_8 
REMARK    6  A    between atoms: C5_13  and  C7_15 
REMARK    7  A    between atoms: C6_14  and  C9_17 
ROOT
HETATM    1  N1  UNK     1      18.421   4.964  32.575  1.00  0.00     0.096 N 
HETATM    2  N2  UNK     1      18.660   7.765  33.248  1.00  0.00     0.100 N 
HETATM    3  C1  UNK     1      17.235   5.799  32.795  1.00  0.00     0.303 C 
HETATM    4  C2  UNK     1      19.534   5.776  32.070  1.00  0.00     0.303 C 
HETATM    5  C3  UNK     1      17.549   6.952  33.755  1.00  0.00     0.303 C 
HETATM    6  C4  UNK     1      19.848   6.929  33.030  1.00  0.00     0.303 C 
ENDROOT
BRANCH   2   7
HETATM    7  C6  UNK     1      18.961   8.863  34.165  1.00  0.00     0.375 C 
BRANCH   7   8
HETATM    8  C9  UNK     1      18.128  10.077  33.791  1.00  0.00     0.250 C 
HETATM    9  O2  UNK     1      17.009   9.984  33.296  1.00  0.00    -0.271 OA
HETATM   10  N3  UNK     1      18.819  11.248  34.095  1.00  0.00    -0.323 N 
HETATM   11  H15 UNK     1      19.741  11.159  34.518  1.00  0.00     0.169 HD
BRANCH  10  12
HETATM   12  C17 UNK     1      18.387  12.581  33.899  1.00  0.00     0.071 A 
HETATM   13  C19 UNK     1      17.394  13.135  34.707  1.00  0.00     0.095 A 
HETATM   14  C22 UNK     1      16.980  14.450  34.501  1.00  0.00     0.042 A 
HETATM   15  C23 UNK     1      17.559  15.213  33.487  1.00  0.00     0.039 A 
HETATM   16  C21 UNK     1      18.552  14.659  32.679  1.00  0.00     0.070 A 
HETATM   17  C20 UNK     1      18.967  13.343  32.885  1.00  0.00     0.069 A 
BRANCH  13  18
HETATM   18  O4  UNK     1      16.814  12.407  35.704  1.00  0.00    -0.354 OA
HETATM   19  C24 UNK     1      15.448  12.688  36.000  1.00  0.00     0.210 C 
ENDBRANCH  13  18
BRANCH  16  20
HETATM   20  O5  UNK     1      19.118  15.404  31.689  1.00  0.00    -0.356 OA
HETATM   21  C25 UNK     1      18.580  15.255  30.376  1.00  0.00     0.210 C 
ENDBRANCH  16  20
ENDBRANCH  10  12
ENDBRANCH   7   8
ENDBRANCH   2   7
BRANCH   1  22
HETATM   22  C5  UNK     1      18.121   3.867  31.656  1.00  0.00     0.312 C 
BRANCH  22  23
HETATM   23  C7  UNK     1      18.352   2.534  32.278  1.00  0.00    -0.011 A 
HETATM   24  C10 UNK     1      18.054   2.309  33.565  1.00  0.00     0.092 A 
HETATM   25  C13 UNK     1      18.265   1.008  34.223  1.00  0.00     0.288 A 
HETATM   26  O1  UNK     1      18.799  -0.005  33.443  1.00  0.00    -0.275 OA
HETATM   27  O3  UNK     1      17.981   0.839  35.404  1.00  0.00    -0.260 OA
HETATM   28  C11 UNK     1      19.123   0.202  32.087  1.00  0.00     0.090 A 
HETATM   29  C8  UNK     1      18.917   1.439  31.478  1.00  0.00     0.006 A 
HETATM   30  C14 UNK     1      19.654  -0.891  31.398  1.00  0.00     0.045 A 
HETATM   31  C12 UNK     1      19.265   1.564  30.125  1.00  0.00     0.015 A 
HETATM   32  C16 UNK     1      19.799   0.478  29.422  1.00  0.00     0.007 A 
HETATM   33  C15 UNK     1      19.993  -0.747  30.058  1.00  0.00    -0.059 A 
HETATM   34  C18 UNK     1      20.563  -1.899  29.302  1.00  0.00     0.048 C 
ENDBRANCH  22  23
ENDBRANCH   1  22
TORSDOF 7
ENDMDL
