MODEL 1
REMARK VINA RESULT:      -8.5      0.000      0.000
REMARK  3 active torsions:
REMARK  status: ('A' for Active; 'I' for Inactive)
REMARK    1  A    between atoms: C5_13  and  N1_6 
REMARK       I    between atoms: C6_14  and  N2_7 
REMARK    2  A    between atoms: C14_22  and  N3_8 
REMARK    3  A    between atoms: C6_14  and  C7_15 
ROOT
HETATM    1  O1  UNK     1       9.755   5.565   6.871  1.00  0.00    -0.267 OA
HETATM    2  N1  UNK     1      13.505   8.504   8.555  1.00  0.00    -0.378 N 
HETATM    3  N2  UNK     1      11.038   7.054   8.117  1.00  0.00    -0.345 N 
HETATM    4  C1  UNK     1      13.441   7.371   7.627  1.00  0.00     0.143 C 
HETATM    5  C2  UNK     1      12.256   8.974   9.158  1.00  0.00     0.143 C 
HETATM    6  C3  UNK     1      12.032   7.218   7.059  1.00  0.00     0.146 C 
HETATM    7  C4  UNK     1      11.273   7.817   9.347  1.00  0.00     0.146 C 
HETATM    8  C6  UNK     1       9.953   6.206   7.904  1.00  0.00     0.260 C 
ENDROOT
BRANCH   8   9
HETATM    9  C7  UNK     1       8.981   6.064   9.007  1.00  0.00     0.108 A 
HETATM   10  C10 UNK     1       8.041   7.012   9.094  1.00  0.00     0.037 A 
HETATM   11  C15 UNK     1       7.040   6.958  10.147  1.00  0.00    -0.001 A 
HETATM   12  C16 UNK     1       7.077   5.908  11.059  1.00  0.00     0.089 A 
HETATM   13  C17 UNK     1       6.041   7.927  10.275  1.00  0.00     0.014 A 
HETATM   14  O2  UNK     1       8.069   4.912  10.962  1.00  0.00    -0.274 OA
HETATM   15  C18 UNK     1       6.147   5.799  12.090  1.00  0.00     0.038 A 
HETATM   16  C13 UNK     1       9.040   4.938   9.966  1.00  0.00     0.304 A 
HETATM   17  O3  UNK     1       9.900   4.067   9.890  1.00  0.00    -0.259 OA
HETATM   18  C20 UNK     1       5.154   6.768  12.212  1.00  0.00     0.003 A 
HETATM   19  C19 UNK     1       5.100   7.830  11.306  1.00  0.00     0.001 A 
ENDBRANCH   8   9
BRANCH   2  20
HETATM   20  C5  UNK     1      14.715   9.148   8.800  1.00  0.00     0.030 A 
HETATM   21  C8  UNK     1      15.049  10.362   8.155  1.00  0.00     0.032 A 
HETATM   22  C11 UNK     1      16.260  11.007   8.401  1.00  0.00     0.038 A 
HETATM   23  C14 UNK     1      17.175  10.455   9.299  1.00  0.00     0.103 A 
HETATM   24  C12 UNK     1      16.876   9.259   9.952  1.00  0.00     0.038 A 
HETATM   25  C9  UNK     1      15.663   8.615   9.706  1.00  0.00     0.032 A 
BRANCH  23  26
HETATM   26  N3  UNK     1      18.409  11.111   9.549  1.00  0.00    -0.116 N 
HETATM   27  O4  UNK     1      19.318  11.048   8.686  1.00  0.00    -0.532 OA
HETATM   28  O5  UNK     1      18.556  11.737  10.627  1.00  0.00    -0.532 OA
ENDBRANCH  23  26
ENDBRANCH   2  20
TORSDOF 3
ENDMDL
MODEL 2
REMARK VINA RESULT:      -8.4     14.315     16.203
REMARK  3 active torsions:
REMARK  status: ('A' for Active; 'I' for Inactive)
REMARK    1  A    between atoms: C5_13  and  N1_6 
REMARK       I    between atoms: C6_14  and  N2_7 
REMARK    2  A    between atoms: C14_22  and  N3_8 
REMARK    3  A    between atoms: C6_14  and  C7_15 
ROOT
HETATM    1  O1  UNK     1      17.054  -5.898  13.928  1.00  0.00    -0.267 OA
HETATM    2  N1  UNK     1      18.847  -1.921  16.478  1.00  0.00    -0.378 N 
HETATM    3  N2  UNK     1      18.442  -4.252  14.810  1.00  0.00    -0.345 N 
HETATM    4  C1  UNK     1      17.502  -2.352  16.084  1.00  0.00     0.143 C 
HETATM    5  C2  UNK     1      19.980  -2.775  16.119  1.00  0.00     0.143 C 
HETATM    6  C3  UNK     1      17.472  -3.858  15.830  1.00  0.00     0.146 C 
HETATM    7  C4  UNK     1      19.710  -3.514  14.807  1.00  0.00     0.146 C 
HETATM    8  C6  UNK     1      18.118  -5.277  13.925  1.00  0.00     0.260 C 
ENDROOT
BRANCH   8   9
HETATM    9  C7  UNK     1      19.126  -5.633  12.906  1.00  0.00     0.108 A 
HETATM   10  C10 UNK     1      19.934  -6.657  13.204  1.00  0.00     0.037 A 
HETATM   11  C15 UNK     1      20.959  -7.081  12.263  1.00  0.00    -0.001 A 
HETATM   12  C16 UNK     1      21.083  -6.406  11.053  1.00  0.00     0.089 A 
HETATM   13  C17 UNK     1      21.825  -8.144  12.534  1.00  0.00     0.014 A 
HETATM   14  O2  UNK     1      20.230  -5.329  10.744  1.00  0.00    -0.274 OA
HETATM   15  C18 UNK     1      22.044  -6.762  10.110  1.00  0.00     0.038 A 
HETATM   16  C13 UNK     1      19.240  -4.900  11.625  1.00  0.00     0.304 A 
HETATM   17  O3  UNK     1      18.502  -3.961  11.348  1.00  0.00    -0.259 OA
HETATM   18  C20 UNK     1      22.903  -7.823  10.387  1.00  0.00     0.003 A 
HETATM   19  C19 UNK     1      22.793  -8.514  11.596  1.00  0.00     0.001 A 
ENDBRANCH   8   9
BRANCH   2  20
HETATM   20  C5  UNK     1      19.024  -0.760  17.227  1.00  0.00     0.030 A 
HETATM   21  C8  UNK     1      18.974   0.521  16.629  1.00  0.00     0.032 A 
HETATM   22  C11 UNK     1      19.152   1.682  17.380  1.00  0.00     0.038 A 
HETATM   23  C14 UNK     1      19.388   1.596  18.752  1.00  0.00     0.103 A 
HETATM   24  C12 UNK     1      19.444   0.348  19.373  1.00  0.00     0.038 A 
HETATM   25  C9  UNK     1      19.265  -0.814  18.621  1.00  0.00     0.032 A 
BRANCH  23  26
HETATM   26  N3  UNK     1      19.570   2.778  19.517  1.00  0.00    -0.116 N 
HETATM   27  O4  UNK     1      19.815   3.856  18.922  1.00  0.00    -0.532 OA
HETATM   28  O5  UNK     1      19.480   2.714  20.767  1.00  0.00    -0.532 OA
ENDBRANCH  23  26
ENDBRANCH   2  20
TORSDOF 3
ENDMDL
MODEL 3
REMARK VINA RESULT:      -8.4     24.613     26.154
REMARK  3 active torsions:
REMARK  status: ('A' for Active; 'I' for Inactive)
REMARK    1  A    between atoms: C5_13  and  N1_6 
REMARK       I    between atoms: C6_14  and  N2_7 
REMARK    2  A    between atoms: C14_22  and  N3_8 
REMARK    3  A    between atoms: C6_14  and  C7_15 
ROOT
HETATM    1  O1  UNK     1      20.169   6.179  33.029  1.00  0.00    -0.267 OA
HETATM    2  N1  UNK     1      15.941   8.842  33.782  1.00  0.00    -0.378 N 
HETATM    3  N2  UNK     1      17.946   6.810  33.303  1.00  0.00    -0.345 N 
HETATM    4  C1  UNK     1      17.360   9.095  34.045  1.00  0.00     0.143 C 
HETATM    5  C2  UNK     1      15.571   7.579  33.141  1.00  0.00     0.143 C 
HETATM    6  C3  UNK     1      18.238   8.232  33.141  1.00  0.00     0.146 C 
HETATM    7  C4  UNK     1      16.540   6.464  33.538  1.00  0.00     0.146 C 
HETATM    8  C6  UNK     1      18.988   5.889  33.227  1.00  0.00     0.260 C 
ENDROOT
BRANCH   8   9
HETATM    9  C7  UNK     1      18.644   4.464  33.407  1.00  0.00     0.108 A 
HETATM   10  C10 UNK     1      18.758   3.981  34.650  1.00  0.00     0.037 A 
HETATM   11  C15 UNK     1      18.443   2.588  34.928  1.00  0.00    -0.001 A 
HETATM   12  C16 UNK     1      18.022   1.772  33.882  1.00  0.00     0.089 A 
HETATM   13  C17 UNK     1      18.548   2.042  36.210  1.00  0.00     0.014 A 
HETATM   14  O2  UNK     1      17.904   2.286  32.577  1.00  0.00    -0.274 OA
HETATM   15  C18 UNK     1      17.705   0.430  34.082  1.00  0.00     0.038 A 
HETATM   16  C13 UNK     1      18.200   3.614  32.281  1.00  0.00     0.304 A 
HETATM   17  O3  UNK     1      18.094   4.052  31.140  1.00  0.00    -0.259 OA
HETATM   18  C20 UNK     1      17.812  -0.107  35.363  1.00  0.00     0.003 A 
HETATM   19  C19 UNK     1      18.232   0.697  36.425  1.00  0.00     0.001 A 
ENDBRANCH   8   9
BRANCH   2  20
HETATM   20  C5  UNK     1      14.984   9.810  34.078  1.00  0.00     0.030 A 
HETATM   21  C8  UNK     1      14.082  10.282  33.096  1.00  0.00     0.032 A 
HETATM   22  C11 UNK     1      13.125  11.251  33.393  1.00  0.00     0.038 A 
HETATM   23  C14 UNK     1      13.043  11.779  34.683  1.00  0.00     0.103 A 
HETATM   24  C12 UNK     1      13.918  11.335  35.674  1.00  0.00     0.038 A 
HETATM   25  C9  UNK     1      14.875  10.365  35.376  1.00  0.00     0.032 A 
BRANCH  23  26
HETATM   26  N3  UNK     1      12.069  12.766  34.985  1.00  0.00    -0.116 N 
HETATM   27  O4  UNK     1      11.162  12.494  35.810  1.00  0.00    -0.532 OA
HETATM   28  O5  UNK     1      12.141  13.884  34.420  1.00  0.00    -0.532 OA
ENDBRANCH  23  26
ENDBRANCH   2  20
TORSDOF 3
ENDMDL
MODEL 4
REMARK VINA RESULT:      -8.3     29.528     30.844
REMARK  3 active torsions:
REMARK  status: ('A' for Active; 'I' for Inactive)
REMARK    1  A    between atoms: C5_13  and  N1_6 
REMARK       I    between atoms: C6_14  and  N2_7 
REMARK    2  A    between atoms: C14_22  and  N3_8 
REMARK    3  A    between atoms: C6_14  and  C7_15 
ROOT
HETATM    1  O1  UNK     1      20.091  -5.710  39.214  1.00  0.00    -0.267 OA
HETATM    2  N1  UNK     1      19.446  -2.126  35.711  1.00  0.00    -0.378 N 
HETATM    3  N2  UNK     1      20.057  -4.524  37.213  1.00  0.00    -0.345 N 
HETATM    4  C1  UNK     1      18.888  -2.351  37.048  1.00  0.00     0.143 C 
HETATM    5  C2  UNK     1      20.433  -3.081  35.204  1.00  0.00     0.143 C 
HETATM    6  C3  UNK     1      19.811  -3.245  37.874  1.00  0.00     0.146 C 
HETATM    7  C4  UNK     1      20.162  -4.484  35.750  1.00  0.00     0.146 C 
HETATM    8  C6  UNK     1      20.178  -5.676  37.986  1.00  0.00     0.260 C 
ENDROOT
BRANCH   8   9
HETATM    9  C7  UNK     1      20.416  -6.947  37.272  1.00  0.00     0.108 A 
HETATM   10  C10 UNK     1      21.651  -7.454  37.361  1.00  0.00     0.037 A 
HETATM   11  C15 UNK     1      21.982  -8.701  36.691  1.00  0.00    -0.001 A 
HETATM   12  C16 UNK     1      20.996  -9.355  35.959  1.00  0.00     0.089 A 
HETATM   13  C17 UNK     1      23.259  -9.266  36.758  1.00  0.00     0.014 A 
HETATM   14  O2  UNK     1      19.698  -8.817  35.869  1.00  0.00    -0.274 OA
HETATM   15  C18 UNK     1      21.249 -10.553  35.295  1.00  0.00     0.038 A 
HETATM   16  C13 UNK     1      19.352  -7.625  36.498  1.00  0.00     0.304 A 
HETATM   17  O3  UNK     1      18.218  -7.164  36.413  1.00  0.00    -0.259 OA
HETATM   18  C20 UNK     1      22.524 -11.110  35.365  1.00  0.00     0.003 A 
HETATM   19  C19 UNK     1      23.527 -10.469  36.096  1.00  0.00     0.001 A 
ENDBRANCH   8   9
BRANCH   2  20
HETATM   20  C5  UNK     1      19.090  -0.996  34.979  1.00  0.00     0.030 A 
HETATM   21  C8  UNK     1      18.744   0.219  35.616  1.00  0.00     0.032 A 
HETATM   22  C11 UNK     1      18.387   1.349  34.883  1.00  0.00     0.038 A 
HETATM   23  C14 UNK     1      18.365   1.298  33.488  1.00  0.00     0.103 A 
HETATM   24  C12 UNK     1      18.701   0.115  32.829  1.00  0.00     0.038 A 
HETATM   25  C9  UNK     1      19.058  -1.016  33.564  1.00  0.00     0.032 A 
BRANCH  23  26
HETATM   26  N3  UNK     1      18.001   2.449  32.741  1.00  0.00    -0.116 N 
HETATM   27  O4  UNK     1      18.008   3.569  33.307  1.00  0.00    -0.532 OA
HETATM   28  O5  UNK     1      17.683   2.315  31.535  1.00  0.00    -0.532 OA
ENDBRANCH  23  26
ENDBRANCH   2  20
TORSDOF 3
ENDMDL
MODEL 5
REMARK VINA RESULT:      -8.3     24.744     26.310
REMARK  3 active torsions:
REMARK  status: ('A' for Active; 'I' for Inactive)
REMARK    1  A    between atoms: C5_13  and  N1_6 
REMARK       I    between atoms: C6_14  and  N2_7 
REMARK    2  A    between atoms: C14_22  and  N3_8 
REMARK    3  A    between atoms: C6_14  and  C7_15 
ROOT
HETATM    1  O1  UNK     1      17.849   6.943  30.525  1.00  0.00    -0.267 OA
HETATM    2  N1  UNK     1      18.301   3.031  33.692  1.00  0.00    -0.378 N 
HETATM    3  N2  UNK     1      18.015   5.623  32.434  1.00  0.00    -0.345 N 
HETATM    4  C1  UNK     1      17.934   3.156  32.279  1.00  0.00     0.143 C 
HETATM    5  C2  UNK     1      18.653   4.249  34.425  1.00  0.00     0.143 C 
HETATM    6  C3  UNK     1      18.483   4.455  31.692  1.00  0.00     0.146 C 
HETATM    7  C4  UNK     1      17.879   5.452  33.885  1.00  0.00     0.146 C 
HETATM    8  C6  UNK     1      17.734   6.799  31.743  1.00  0.00     0.260 C 
ENDROOT
BRANCH   8   9
HETATM    9  C7  UNK     1      17.253   7.949  32.536  1.00  0.00     0.108 A 
HETATM   10  C10 UNK     1      15.956   8.253  32.410  1.00  0.00     0.037 A 
HETATM   11  C15 UNK     1      15.390   9.370  33.151  1.00  0.00    -0.001 A 
HETATM   12  C16 UNK     1      16.218  10.112  33.987  1.00  0.00     0.089 A 
HETATM   13  C17 UNK     1      14.042   9.723  33.050  1.00  0.00     0.014 A 
HETATM   14  O2  UNK     1      17.582   9.788  34.115  1.00  0.00    -0.274 OA
HETATM   15  C18 UNK     1      15.737  11.193  34.723  1.00  0.00     0.038 A 
HETATM   16  C13 UNK     1      18.152   8.725  33.419  1.00  0.00     0.304 A 
HETATM   17  O3  UNK     1      19.342   8.450  33.536  1.00  0.00    -0.259 OA
HETATM   18  C20 UNK     1      14.392  11.539  34.617  1.00  0.00     0.003 A 
HETATM   19  C19 UNK     1      13.546  10.805  33.784  1.00  0.00     0.001 A 
ENDBRANCH   8   9
BRANCH   2  20
HETATM   20  C5  UNK     1      18.372   1.778  34.296  1.00  0.00     0.030 A 
HETATM   21  C8  UNK     1      18.335   0.588  33.532  1.00  0.00     0.032 A 
HETATM   22  C11 UNK     1      18.406  -0.667  34.137  1.00  0.00     0.038 A 
HETATM   23  C14 UNK     1      18.513  -0.767  35.525  1.00  0.00     0.103 A 
HETATM   24  C12 UNK     1      18.551   0.388  36.307  1.00  0.00     0.038 A 
HETATM   25  C9  UNK     1      18.481   1.642  35.701  1.00  0.00     0.032 A 
BRANCH  23  26
HETATM   26  N3  UNK     1      18.584  -2.044  36.140  1.00  0.00    -0.116 N 
HETATM   27  O4  UNK     1      19.632  -2.724  36.013  1.00  0.00    -0.532 OA
HETATM   28  O5  UNK     1      17.598  -2.459  36.795  1.00  0.00    -0.532 OA
ENDBRANCH  23  26
ENDBRANCH   2  20
TORSDOF 3
ENDMDL
MODEL 6
REMARK VINA RESULT:      -8.2     35.058     37.654
REMARK  3 active torsions:
REMARK  status: ('A' for Active; 'I' for Inactive)
REMARK    1  A    between atoms: C5_13  and  N1_6 
REMARK       I    between atoms: C6_14  and  N2_7 
REMARK    2  A    between atoms: C14_22  and  N3_8 
REMARK    3  A    between atoms: C6_14  and  C7_15 
ROOT
HETATM    1  O1  UNK     1      30.970 -10.731  39.075  1.00  0.00    -0.267 OA
HETATM    2  N1  UNK     1      26.405  -8.737  38.224  1.00  0.00    -0.378 N 
HETATM    3  N2  UNK     1      29.229  -9.360  38.366  1.00  0.00    -0.345 N 
HETATM    4  C1  UNK     1      26.874 -10.066  38.629  1.00  0.00     0.143 C 
HETATM    5  C2  UNK     1      27.403  -7.685  38.022  1.00  0.00     0.143 C 
HETATM    6  C3  UNK     1      28.259  -9.979  39.266  1.00  0.00     0.146 C 
HETATM    7  C4  UNK     1      28.722  -8.275  37.519  1.00  0.00     0.146 C 
HETATM    8  C6  UNK     1      30.543  -9.820  38.363  1.00  0.00     0.260 C 
ENDROOT
BRANCH   8   9
HETATM    9  C7  UNK     1      31.485  -9.170  37.428  1.00  0.00     0.108 A 
HETATM   10  C10 UNK     1      32.271  -8.220  37.946  1.00  0.00     0.037 A 
HETATM   11  C15 UNK     1      33.230  -7.522  37.104  1.00  0.00    -0.001 A 
HETATM   12  C16 UNK     1      33.314  -7.860  35.757  1.00  0.00     0.089 A 
HETATM   13  C17 UNK     1      34.071  -6.523  37.602  1.00  0.00     0.014 A 
HETATM   14  O2  UNK     1      32.484  -8.861  35.218  1.00  0.00    -0.274 OA
HETATM   15  C18 UNK     1      34.211  -7.230  34.898  1.00  0.00     0.038 A 
HETATM   16  C13 UNK     1      31.556  -9.546  35.999  1.00  0.00     0.304 A 
HETATM   17  O3  UNK     1      30.837 -10.416  35.520  1.00  0.00    -0.259 OA
HETATM   18  C20 UNK     1      35.046  -6.235  35.401  1.00  0.00     0.003 A 
HETATM   19  C19 UNK     1      34.977  -5.883  36.751  1.00  0.00     0.001 A 
ENDBRANCH   8   9
BRANCH   2  20
HETATM   20  C5  UNK     1      25.043  -8.476  38.101  1.00  0.00     0.030 A 
HETATM   21  C8  UNK     1      24.382  -7.574  38.967  1.00  0.00     0.032 A 
HETATM   22  C11 UNK     1      23.018  -7.314  38.844  1.00  0.00     0.038 A 
HETATM   23  C14 UNK     1      22.274  -7.950  37.849  1.00  0.00     0.103 A 
HETATM   24  C12 UNK     1      22.895  -8.845  36.979  1.00  0.00     0.038 A 
HETATM   25  C9  UNK     1      24.260  -9.105  37.103  1.00  0.00     0.032 A 
BRANCH  23  26
HETATM   26  N3  UNK     1      20.885  -7.684  37.723  1.00  0.00    -0.116 N 
HETATM   27  O4  UNK     1      20.232  -7.360  38.745  1.00  0.00    -0.532 OA
HETATM   28  O5  UNK     1      20.348  -7.781  36.594  1.00  0.00    -0.532 OA
ENDBRANCH  23  26
ENDBRANCH   2  20
TORSDOF 3
ENDMDL
MODEL 7
REMARK VINA RESULT:      -8.1     13.765     15.696
REMARK  3 active torsions:
REMARK  status: ('A' for Active; 'I' for Inactive)
REMARK    1  A    between atoms: C5_13  and  N1_6 
REMARK       I    between atoms: C6_14  and  N2_7 
REMARK    2  A    between atoms: C14_22  and  N3_8 
REMARK    3  A    between atoms: C6_14  and  C7_15 
ROOT
HETATM    1  O1  UNK     1      17.289  -5.775  13.643  1.00  0.00    -0.267 OA
HETATM    2  N1  UNK     1      18.936  -1.870  16.396  1.00  0.00    -0.378 N 
HETATM    3  N2  UNK     1      18.603  -4.095  14.574  1.00  0.00    -0.345 N 
HETATM    4  C1  UNK     1      17.606  -2.376  16.045  1.00  0.00     0.143 C 
HETATM    5  C2  UNK     1      20.105  -2.604  15.907  1.00  0.00     0.143 C 
HETATM    6  C3  UNK     1      17.672  -3.856  15.674  1.00  0.00     0.146 C 
HETATM    7  C4  UNK     1      19.810  -3.261  14.558  1.00  0.00     0.146 C 
HETATM    8  C6  UNK     1      18.302  -5.074  13.630  1.00  0.00     0.260 C 
ENDROOT
BRANCH   8   9
HETATM    9  C7  UNK     1      19.269  -5.271  12.530  1.00  0.00     0.108 A 
HETATM   10  C10 UNK     1      19.043  -4.573  11.411  1.00  0.00     0.037 A 
HETATM   11  C15 UNK     1      19.940  -4.701  10.274  1.00  0.00    -0.001 A 
HETATM   12  C16 UNK     1      21.031  -5.559  10.370  1.00  0.00     0.089 A 
HETATM   13  C17 UNK     1      19.743  -3.992   9.086  1.00  0.00     0.014 A 
HETATM   14  O2  UNK     1      21.264  -6.291  11.550  1.00  0.00    -0.274 OA
HETATM   15  C18 UNK     1      21.927  -5.726   9.316  1.00  0.00     0.038 A 
HETATM   16  C13 UNK     1      20.423  -6.190  12.655  1.00  0.00     0.304 A 
HETATM   17  O3  UNK     1      20.633  -6.831  13.678  1.00  0.00    -0.259 OA
HETATM   18  C20 UNK     1      21.724  -5.015   8.135  1.00  0.00     0.003 A 
HETATM   19  C19 UNK     1      20.635  -4.149   8.021  1.00  0.00     0.001 A 
ENDBRANCH   8   9
BRANCH   2  20
HETATM   20  C5  UNK     1      19.073  -0.758  17.224  1.00  0.00     0.030 A 
HETATM   21  C8  UNK     1      19.323  -0.896  18.609  1.00  0.00     0.032 A 
HETATM   22  C11 UNK     1      19.460   0.217  19.437  1.00  0.00     0.038 A 
HETATM   23  C14 UNK     1      19.349   1.502  18.904  1.00  0.00     0.103 A 
HETATM   24  C12 UNK     1      19.102   1.672  17.542  1.00  0.00     0.038 A 
HETATM   25  C9  UNK     1      18.966   0.558  16.713  1.00  0.00     0.032 A 
BRANCH  23  26
HETATM   26  N3  UNK     1      19.488   2.635  19.748  1.00  0.00    -0.116 N 
HETATM   27  O4  UNK     1      20.059   3.660  19.302  1.00  0.00    -0.532 OA
HETATM   28  O5  UNK     1      19.035   2.581  20.917  1.00  0.00    -0.532 OA
ENDBRANCH  23  26
ENDBRANCH   2  20
TORSDOF 3
ENDMDL
MODEL 8
REMARK VINA RESULT:      -8.1     28.318     29.594
REMARK  3 active torsions:
REMARK  status: ('A' for Active; 'I' for Inactive)
REMARK    1  A    between atoms: C5_13  and  N1_6 
REMARK       I    between atoms: C6_14  and  N2_7 
REMARK    2  A    between atoms: C14_22  and  N3_8 
REMARK    3  A    between atoms: C6_14  and  C7_15 
ROOT
HETATM    1  O1  UNK     1      19.829  -3.058  38.394  1.00  0.00    -0.267 OA
HETATM    2  N1  UNK     1      19.843  -1.855  33.486  1.00  0.00    -0.378 N 
HETATM    3  N2  UNK     1      20.150  -3.083  36.090  1.00  0.00    -0.345 N 
HETATM    4  C1  UNK     1      19.067  -1.396  34.642  1.00  0.00     0.143 C 
HETATM    5  C2  UNK     1      20.881  -2.864  33.707  1.00  0.00     0.143 C 
HETATM    6  C3  UNK     1      19.822  -1.667  35.941  1.00  0.00     0.146 C 
HETATM    7  C4  UNK     1      20.496  -3.797  34.857  1.00  0.00     0.146 C 
HETATM    8  C6  UNK     1      20.118  -3.658  37.358  1.00  0.00     0.260 C 
ENDROOT
BRANCH   8   9
HETATM    9  C7  UNK     1      20.446  -5.095  37.456  1.00  0.00     0.108 A 
HETATM   10  C10 UNK     1      19.441  -5.948  37.227  1.00  0.00     0.037 A 
HETATM   11  C15 UNK     1      19.666  -7.383  37.301  1.00  0.00    -0.001 A 
HETATM   12  C16 UNK     1      20.939  -7.850  37.613  1.00  0.00     0.089 A 
HETATM   13  C17 UNK     1      18.646  -8.310  37.069  1.00  0.00     0.014 A 
HETATM   14  O2  UNK     1      21.993  -6.947  37.854  1.00  0.00    -0.274 OA
HETATM   15  C18 UNK     1      21.220  -9.211  37.700  1.00  0.00     0.038 A 
HETATM   16  C13 UNK     1      21.807  -5.569  37.791  1.00  0.00     0.304 A 
HETATM   17  O3  UNK     1      22.731  -4.790  38.002  1.00  0.00    -0.259 OA
HETATM   18  C20 UNK     1      20.198 -10.129  37.468  1.00  0.00     0.003 A 
HETATM   19  C19 UNK     1      18.914  -9.680  37.152  1.00  0.00     0.001 A 
ENDBRANCH   8   9
BRANCH   2  20
HETATM   20  C5  UNK     1      19.635  -1.294  32.228  1.00  0.00     0.030 A 
HETATM   21  C8  UNK     1      19.017  -0.031  32.076  1.00  0.00     0.032 A 
HETATM   22  C11 UNK     1      18.809   0.529  30.816  1.00  0.00     0.038 A 
HETATM   23  C14 UNK     1      19.212  -0.159  29.671  1.00  0.00     0.103 A 
HETATM   24  C12 UNK     1      19.825  -1.407  29.787  1.00  0.00     0.038 A 
HETATM   25  C9  UNK     1      20.033  -1.967  31.048  1.00  0.00     0.032 A 
BRANCH  23  26
HETATM   26  N3  UNK     1      19.000   0.412  28.389  1.00  0.00    -0.116 N 
HETATM   27  O4  UNK     1      18.690   1.625  28.306  1.00  0.00    -0.532 OA
HETATM   28  O5  UNK     1      19.129  -0.313  27.372  1.00  0.00    -0.532 OA
ENDBRANCH  23  26
ENDBRANCH   2  20
TORSDOF 3
ENDMDL
MODEL 9
REMARK VINA RESULT:      -8.0     36.017     37.277
REMARK  3 active torsions:
REMARK  status: ('A' for Active; 'I' for Inactive)
REMARK    1  A    between atoms: C5_13  and  N1_6 
REMARK       I    between atoms: C6_14  and  N2_7 
REMARK    2  A    between atoms: C14_22  and  N3_8 
REMARK    3  A    between atoms: C6_14  and  C7_15 
ROOT
HETATM    1  O1  UNK     1      32.753  -4.885  39.040  1.00  0.00    -0.267 OA
HETATM    2  N1  UNK     1      34.337  -7.633  35.106  1.00  0.00    -0.378 N 
HETATM    3  N2  UNK     1      32.872  -6.399  37.276  1.00  0.00    -0.345 N 
HETATM    4  C1  UNK     1      34.800  -6.389  35.728  1.00  0.00     0.143 C 
HETATM    5  C2  UNK     1      33.184  -8.315  35.698  1.00  0.00     0.143 C 
HETATM    6  C3  UNK     1      34.326  -6.302  37.177  1.00  0.00     0.146 C 
HETATM    7  C4  UNK     1      32.220  -7.306  36.326  1.00  0.00     0.146 C 
HETATM    8  C6  UNK     1      32.205  -5.647  38.241  1.00  0.00     0.260 C 
ENDROOT
BRANCH   8   9
HETATM    9  C7  UNK     1      30.734  -5.770  38.295  1.00  0.00     0.108 A 
HETATM   10  C10 UNK     1      30.254  -6.968  38.649  1.00  0.00     0.037 A 
HETATM   11  C15 UNK     1      28.818  -7.187  38.730  1.00  0.00    -0.001 A 
HETATM   12  C16 UNK     1      27.958  -6.134  38.435  1.00  0.00     0.089 A 
HETATM   13  C17 UNK     1      28.273  -8.421  39.095  1.00  0.00     0.014 A 
HETATM   14  O2  UNK     1      28.470  -4.876  38.064  1.00  0.00    -0.274 OA
HETATM   15  C18 UNK     1      26.574  -6.279  38.495  1.00  0.00     0.038 A 
HETATM   16  C13 UNK     1      29.839  -4.636  37.977  1.00  0.00     0.304 A 
HETATM   17  O3  UNK     1      30.275  -3.537  37.652  1.00  0.00    -0.259 OA
HETATM   18  C20 UNK     1      26.038  -7.512  38.859  1.00  0.00     0.003 A 
HETATM   19  C19 UNK     1      26.885  -8.581  39.159  1.00  0.00     0.001 A 
ENDBRANCH   8   9
BRANCH   2  20
HETATM   20  C5  UNK     1      35.020  -8.177  34.021  1.00  0.00     0.030 A 
HETATM   21  C8  UNK     1      36.434  -8.216  33.983  1.00  0.00     0.032 A 
HETATM   22  C11 UNK     1      37.117  -8.761  32.897  1.00  0.00     0.038 A 
HETATM   23  C14 UNK     1      36.406  -9.282  31.815  1.00  0.00     0.103 A 
HETATM   24  C12 UNK     1      35.011  -9.259  31.821  1.00  0.00     0.038 A 
HETATM   25  C9  UNK     1      34.328  -8.714  32.909  1.00  0.00     0.032 A 
BRANCH  23  26
HETATM   26  N3  UNK     1      37.102  -9.836  30.709  1.00  0.00    -0.116 N 
HETATM   27  O4  UNK     1      36.801  -9.461  29.550  1.00  0.00    -0.532 OA
HETATM   28  O5  UNK     1      38.000 -10.687  30.920  1.00  0.00    -0.532 OA
ENDBRANCH  23  26
ENDBRANCH   2  20
TORSDOF 3
ENDMDL
MODEL 10
REMARK VINA RESULT:      -8.0     14.219     15.947
REMARK  3 active torsions:
REMARK  status: ('A' for Active; 'I' for Inactive)
REMARK    1  A    between atoms: C5_13  and  N1_6 
REMARK       I    between atoms: C6_14  and  N2_7 
REMARK    2  A    between atoms: C14_22  and  N3_8 
REMARK    3  A    between atoms: C6_14  and  C7_15 
ROOT
HETATM    1  O1  UNK     1      18.892  -3.183  11.059  1.00  0.00    -0.267 OA
HETATM    2  N1  UNK     1      18.957  -1.180  15.697  1.00  0.00    -0.378 N 
HETATM    3  N2  UNK     1      18.892  -2.897  13.368  1.00  0.00    -0.345 N 
HETATM    4  C1  UNK     1      19.320  -0.677  14.369  1.00  0.00     0.143 C 
HETATM    5  C2  UNK     1      18.429  -2.541  15.801  1.00  0.00     0.143 C 
HETATM    6  C3  UNK     1      18.601  -1.468  13.278  1.00  0.00     0.146 C 
HETATM    7  C4  UNK     1      19.034  -3.442  14.722  1.00  0.00     0.146 C 
HETATM    8  C6  UNK     1      19.013  -3.640  12.197  1.00  0.00     0.260 C 
ENDROOT
BRANCH   8   9
HETATM    9  C7  UNK     1      19.318  -5.079  12.338  1.00  0.00     0.108 A 
HETATM   10  C10 UNK     1      20.488  -5.488  11.833  1.00  0.00     0.037 A 
HETATM   11  C15 UNK     1      20.877  -6.886  11.924  1.00  0.00    -0.001 A 
HETATM   12  C16 UNK     1      20.014  -7.787  12.542  1.00  0.00     0.089 A 
HETATM   13  C17 UNK     1      22.088  -7.358  11.410  1.00  0.00     0.014 A 
HETATM   14  O2  UNK     1      18.785  -7.350  13.071  1.00  0.00    -0.274 OA
HETATM   15  C18 UNK     1      20.328  -9.139  12.661  1.00  0.00     0.038 A 
HETATM   16  C13 UNK     1      18.385  -6.019  12.999  1.00  0.00     0.304 A 
HETATM   17  O3  UNK     1      17.312  -5.648  13.463  1.00  0.00    -0.259 OA
HETATM   18  C20 UNK     1      21.537  -9.601  12.146  1.00  0.00     0.003 A 
HETATM   19  C19 UNK     1      22.416  -8.712  11.524  1.00  0.00     0.001 A 
ENDBRANCH   8   9
BRANCH   2  20
HETATM   20  C5  UNK     1      19.057  -0.355  16.816  1.00  0.00     0.030 A 
HETATM   21  C8  UNK     1      18.999   1.054  16.702  1.00  0.00     0.032 A 
HETATM   22  C11 UNK     1      19.098   1.879  17.821  1.00  0.00     0.038 A 
HETATM   23  C14 UNK     1      19.260   1.318  19.089  1.00  0.00     0.103 A 
HETATM   24  C12 UNK     1      19.321  -0.068  19.236  1.00  0.00     0.038 A 
HETATM   25  C9  UNK     1      19.221  -0.893  18.115  1.00  0.00     0.032 A 
BRANCH  23  26
HETATM   26  N3  UNK     1      19.362   2.158  20.229  1.00  0.00    -0.116 N 
HETATM   27  O4  UNK     1      18.384   2.244  21.011  1.00  0.00    -0.532 OA
HETATM   28  O5  UNK     1      20.428   2.791  20.424  1.00  0.00    -0.532 OA
ENDBRANCH  23  26
ENDBRANCH   2  20
TORSDOF 3
ENDMDL
