MODEL 1
REMARK VINA RESULT:      -8.0      0.000      0.000
REMARK  3 active torsions:
REMARK  status: ('A' for Active; 'I' for Inactive)
REMARK    1  A    between atoms: C11_16  and  O3_4 
REMARK    2  A    between atoms: C13_18  and  O4_5 
REMARK    3  A    between atoms: C1_6  and  C3_8 
ROOT
HETATM    1 Cl1  UNK     1      18.639  11.834  34.542  1.00  0.00    -0.084 Cl
HETATM    2  O1  UNK     1      19.089   6.122  33.209  1.00  0.00    -0.340 OA
HETATM    3  O2  UNK     1      15.730   8.136  31.990  1.00  0.00    -0.292 OA
HETATM    4  C1  UNK     1      17.840   5.433  33.042  1.00  0.00     0.169 C 
HETATM    5  C2  UNK     1      16.990   6.095  31.960  1.00  0.00     0.121 C 
HETATM    6  C4  UNK     1      16.732   7.529  32.346  1.00  0.00     0.165 C 
HETATM    7  C5  UNK     1      17.800   8.191  33.124  1.00  0.00     0.045 A 
HETATM    8  C6  UNK     1      18.930   7.454  33.492  1.00  0.00     0.083 A 
HETATM    9  C9  UNK     1      17.704   9.545  33.450  1.00  0.00     0.042 A 
HETATM   10  C10 UNK     1      19.981   8.084  34.160  1.00  0.00     0.039 A 
HETATM   11  C14 UNK     1      18.749  10.164  34.135  1.00  0.00     0.035 A 
HETATM   12  C15 UNK     1      19.887   9.437  34.486  1.00  0.00     0.026 A 
ENDROOT
BRANCH   4  13
HETATM   13  C3  UNK     1      18.133   3.988  32.697  1.00  0.00    -0.026 A 
HETATM   14  C7  UNK     1      18.405   3.627  31.378  1.00  0.00     0.049 A 
HETATM   15  C11 UNK     1      18.674   2.297  31.060  1.00  0.00     0.102 A 
HETATM   16  C13 UNK     1      18.670   1.326  32.062  1.00  0.00     0.101 A 
HETATM   17  C12 UNK     1      18.398   1.687  33.382  1.00  0.00     0.040 A 
HETATM   18  C8  UNK     1      18.129   3.018  33.700  1.00  0.00     0.012 A 
BRANCH  15  19
HETATM   19  O3  UNK     1      18.937   1.956  29.768  1.00  0.00    -0.353 OA
HETATM   20  C16 UNK     1      17.855   2.042  28.842  1.00  0.00     0.210 C 
ENDBRANCH  15  19
BRANCH  16  21
HETATM   21  O4  UNK     1      18.932   0.023  31.764  1.00  0.00    -0.353 OA
HETATM   22  C17 UNK     1      18.734  -0.932  32.805  1.00  0.00     0.210 C 
ENDBRANCH  16  21
ENDBRANCH   4  13
TORSDOF 3
ENDMDL
MODEL 2
REMARK VINA RESULT:      -7.6      1.064      2.224
REMARK  3 active torsions:
REMARK  status: ('A' for Active; 'I' for Inactive)
REMARK    1  A    between atoms: C11_16  and  O3_4 
REMARK    2  A    between atoms: C13_18  and  O4_5 
REMARK    3  A    between atoms: C1_6  and  C3_8 
ROOT
HETATM    1 Cl1  UNK     1      18.746  12.310  34.554  1.00  0.00    -0.084 Cl
HETATM    2  O1  UNK     1      19.089   6.557  33.373  1.00  0.00    -0.340 OA
HETATM    3  O2  UNK     1      15.872   8.645  31.917  1.00  0.00    -0.292 OA
HETATM    4  C1  UNK     1      17.831   5.903  33.148  1.00  0.00     0.169 C 
HETATM    5  C2  UNK     1      17.065   6.566  32.004  1.00  0.00     0.121 C 
HETATM    6  C4  UNK     1      16.832   8.015  32.343  1.00  0.00     0.165 C 
HETATM    7  C5  UNK     1      17.874   8.662  33.167  1.00  0.00     0.045 A 
HETATM    8  C6  UNK     1      18.956   7.900  33.617  1.00  0.00     0.083 A 
HETATM    9  C9  UNK     1      17.802  10.026  33.459  1.00  0.00     0.042 A 
HETATM   10  C10 UNK     1      19.987   8.513  34.332  1.00  0.00     0.039 A 
HETATM   11  C14 UNK     1      18.826  10.629  34.190  1.00  0.00     0.035 A 
HETATM   12  C15 UNK     1      19.918   9.875  34.622  1.00  0.00     0.026 A 
ENDROOT
BRANCH   4  13
HETATM   13  C3  UNK     1      18.096   4.442  32.852  1.00  0.00    -0.026 A 
HETATM   14  C7  UNK     1      18.124   3.515  33.893  1.00  0.00     0.049 A 
HETATM   15  C11 UNK     1      18.369   2.169  33.622  1.00  0.00     0.102 A 
HETATM   16  C13 UNK     1      18.587   1.751  32.309  1.00  0.00     0.101 A 
HETATM   17  C12 UNK     1      18.559   2.679  31.268  1.00  0.00     0.040 A 
HETATM   18  C8  UNK     1      18.314   4.025  31.539  1.00  0.00     0.012 A 
BRANCH  15  19
HETATM   19  O3  UNK     1      18.395   1.273  34.647  1.00  0.00    -0.353 OA
HETATM   20  C16 UNK     1      18.918   1.729  35.893  1.00  0.00     0.210 C 
ENDBRANCH  15  19
BRANCH  16  21
HETATM   21  O4  UNK     1      18.826   0.440  32.031  1.00  0.00    -0.353 OA
HETATM   22  C17 UNK     1      19.753   0.158  30.983  1.00  0.00     0.210 C 
ENDBRANCH  16  21
ENDBRANCH   4  13
TORSDOF 3
ENDMDL
MODEL 3
REMARK VINA RESULT:      -7.6      7.468     12.329
REMARK  3 active torsions:
REMARK  status: ('A' for Active; 'I' for Inactive)
REMARK    1  A    between atoms: C11_16  and  O3_4 
REMARK    2  A    between atoms: C13_18  and  O4_5 
REMARK    3  A    between atoms: C1_6  and  C3_8 
ROOT
HETATM    1 Cl1  UNK     1      20.436 -10.355  37.519  1.00  0.00    -0.084 Cl
HETATM    2  O1  UNK     1      18.935  -4.789  36.342  1.00  0.00    -0.340 OA
HETATM    3  O2  UNK     1      22.475  -5.468  38.302  1.00  0.00    -0.292 OA
HETATM    4  C1  UNK     1      19.478  -3.807  37.238  1.00  0.00     0.169 C 
HETATM    5  C2  UNK     1      21.003  -3.878  37.270  1.00  0.00     0.121 C 
HETATM    6  C4  UNK     1      21.422  -5.257  37.712  1.00  0.00     0.165 C 
HETATM    7  C5  UNK     1      20.519  -6.361  37.327  1.00  0.00     0.045 A 
HETATM    8  C6  UNK     1      19.336  -6.065  36.644  1.00  0.00     0.083 A 
HETATM    9  C9  UNK     1      20.861  -7.686  37.604  1.00  0.00     0.042 A 
HETATM   10  C10 UNK     1      18.510  -7.102  36.206  1.00  0.00     0.039 A 
HETATM   11  C14 UNK     1      20.022  -8.717  37.182  1.00  0.00     0.035 A 
HETATM   12  C15 UNK     1      18.851  -8.427  36.480  1.00  0.00     0.026 A 
ENDROOT
BRANCH   4  13
HETATM   13  C3  UNK     1      19.005  -2.439  36.793  1.00  0.00    -0.026 A 
HETATM   14  C7  UNK     1      19.242  -2.011  35.488  1.00  0.00     0.049 A 
HETATM   15  C11 UNK     1      18.807  -0.751  35.077  1.00  0.00     0.102 A 
HETATM   16  C13 UNK     1      18.136   0.080  35.973  1.00  0.00     0.101 A 
HETATM   17  C12 UNK     1      17.899  -0.349  37.280  1.00  0.00     0.040 A 
HETATM   18  C8  UNK     1      18.334  -1.609  37.690  1.00  0.00     0.012 A 
BRANCH  15  19
HETATM   19  O3  UNK     1      19.045  -0.344  33.799  1.00  0.00    -0.353 OA
HETATM   20  C16 UNK     1      18.928  -1.328  32.774  1.00  0.00     0.210 C 
ENDBRANCH  15  19
BRANCH  16  21
HETATM   21  O4  UNK     1      17.705   1.313  35.585  1.00  0.00    -0.353 OA
HETATM   22  C17 UNK     1      18.651   2.379  35.645  1.00  0.00     0.210 C 
ENDBRANCH  16  21
ENDBRANCH   4  13
TORSDOF 3
ENDMDL
MODEL 4
REMARK VINA RESULT:      -7.5      3.413      7.419
REMARK  3 active torsions:
REMARK  status: ('A' for Active; 'I' for Inactive)
REMARK    1  A    between atoms: C11_16  and  O3_4 
REMARK    2  A    between atoms: C13_18  and  O4_5 
REMARK    3  A    between atoms: C1_6  and  C3_8 
ROOT
HETATM    1 Cl1  UNK     1      19.558  -1.743  31.576  1.00  0.00    -0.084 Cl
HETATM    2  O1  UNK     1      17.847   3.561  33.460  1.00  0.00    -0.340 OA
HETATM    3  O2  UNK     1      18.944   3.164  29.527  1.00  0.00    -0.292 OA
HETATM    4  C1  UNK     1      18.394   4.673  32.735  1.00  0.00     0.169 C 
HETATM    5  C2  UNK     1      18.055   4.578  31.249  1.00  0.00     0.121 C 
HETATM    6  C4  UNK     1      18.610   3.290  30.699  1.00  0.00     0.165 C 
HETATM    7  C5  UNK     1      18.661   2.154  31.642  1.00  0.00     0.045 A 
HETATM    8  C6  UNK     1      18.256   2.349  32.966  1.00  0.00     0.083 A 
HETATM    9  C9  UNK     1      19.070   0.891  31.209  1.00  0.00     0.042 A 
HETATM   10  C10 UNK     1      18.226   1.268  33.849  1.00  0.00     0.039 A 
HETATM   11  C14 UNK     1      19.057  -0.181  32.101  1.00  0.00     0.035 A 
HETATM   12  C15 UNK     1      18.632   0.006  33.418  1.00  0.00     0.026 A 
ENDROOT
BRANCH   4  13
HETATM   13  C3  UNK     1      17.851   5.952  33.338  1.00  0.00    -0.026 A 
HETATM   14  C7  UNK     1      16.531   6.330  33.096  1.00  0.00     0.049 A 
HETATM   15  C11 UNK     1      16.030   7.508  33.650  1.00  0.00     0.102 A 
HETATM   16  C13 UNK     1      16.851   8.307  34.446  1.00  0.00     0.101 A 
HETATM   17  C12 UNK     1      18.172   7.928  34.687  1.00  0.00     0.040 A 
HETATM   18  C8  UNK     1      18.672   6.750  34.133  1.00  0.00     0.012 A 
BRANCH  15  19
HETATM   19  O3  UNK     1      14.739   7.867  33.407  1.00  0.00    -0.353 OA
HETATM   20  C16 UNK     1      14.097   7.256  32.289  1.00  0.00     0.210 C 
ENDBRANCH  15  19
BRANCH  16  21
HETATM   21  O4  UNK     1      16.374   9.459  34.994  1.00  0.00    -0.353 OA
HETATM   22  C17 UNK     1      16.647  10.671  34.294  1.00  0.00     0.210 C 
ENDBRANCH  16  21
ENDBRANCH   4  13
TORSDOF 3
ENDMDL
MODEL 5
REMARK VINA RESULT:      -7.5      1.752      3.039
REMARK  3 active torsions:
REMARK  status: ('A' for Active; 'I' for Inactive)
REMARK    1  A    between atoms: C11_16  and  O3_4 
REMARK    2  A    between atoms: C13_18  and  O4_5 
REMARK    3  A    between atoms: C1_6  and  C3_8 
ROOT
HETATM    1 Cl1  UNK     1      16.583  13.375  35.671  1.00  0.00    -0.084 Cl
HETATM    2  O1  UNK     1      18.128   8.423  32.897  1.00  0.00    -0.340 OA
HETATM    3  O2  UNK     1      14.149   9.044  33.681  1.00  0.00    -0.292 OA
HETATM    4  C1  UNK     1      17.235   7.314  33.082  1.00  0.00     0.169 C 
HETATM    5  C2  UNK     1      15.818   7.671  32.638  1.00  0.00     0.121 C 
HETATM    6  C4  UNK     1      15.335   8.853  33.438  1.00  0.00     0.165 C 
HETATM    7  C5  UNK     1      16.373   9.819  33.856  1.00  0.00     0.045 A 
HETATM    8  C6  UNK     1      17.710   9.559  33.541  1.00  0.00     0.083 A 
HETATM    9  C9  UNK     1      16.020  10.996  34.519  1.00  0.00     0.042 A 
HETATM   10  C10 UNK     1      18.693  10.497  33.861  1.00  0.00     0.039 A 
HETATM   11  C14 UNK     1      17.009  11.921  34.854  1.00  0.00     0.035 A 
HETATM   12  C15 UNK     1      18.342  11.674  34.522  1.00  0.00     0.026 A 
ENDROOT
BRANCH   4  13
HETATM   13  C3  UNK     1      17.770   6.132  32.302  1.00  0.00    -0.026 A 
HETATM   14  C7  UNK     1      17.554   4.836  32.766  1.00  0.00     0.049 A 
HETATM   15  C11 UNK     1      18.047   3.747  32.048  1.00  0.00     0.102 A 
HETATM   16  C13 UNK     1      18.756   3.955  30.866  1.00  0.00     0.101 A 
HETATM   17  C12 UNK     1      18.973   5.252  30.402  1.00  0.00     0.040 A 
HETATM   18  C8  UNK     1      18.480   6.342  31.120  1.00  0.00     0.012 A 
BRANCH  15  19
HETATM   19  O3  UNK     1      17.830   2.484  32.512  1.00  0.00    -0.353 OA
HETATM   20  C16 UNK     1      18.184   2.224  33.870  1.00  0.00     0.210 C 
ENDBRANCH  15  19
BRANCH  16  21
HETATM   21  O4  UNK     1      19.242   2.900  30.155  1.00  0.00    -0.353 OA
HETATM   22  C17 UNK     1      18.424   2.394  29.102  1.00  0.00     0.210 C 
ENDBRANCH  16  21
ENDBRANCH   4  13
TORSDOF 3
ENDMDL
MODEL 6
REMARK VINA RESULT:      -7.4     14.907     16.509
REMARK  3 active torsions:
REMARK  status: ('A' for Active; 'I' for Inactive)
REMARK    1  A    between atoms: C11_16  and  O3_4 
REMARK    2  A    between atoms: C13_18  and  O4_5 
REMARK    3  A    between atoms: C1_6  and  C3_8 
ROOT
HETATM    1 Cl1  UNK     1      31.447  -5.137  38.611  1.00  0.00    -0.084 Cl
HETATM    2  O1  UNK     1      25.756  -6.624  38.690  1.00  0.00    -0.340 OA
HETATM    3  O2  UNK     1      28.541  -9.591  39.214  1.00  0.00    -0.292 OA
HETATM    4  C1  UNK     1      25.472  -7.976  38.296  1.00  0.00     0.169 C 
HETATM    5  C2  UNK     1      26.223  -8.972  39.176  1.00  0.00     0.121 C 
HETATM    6  C4  UNK     1      27.703  -8.710  39.064  1.00  0.00     0.165 C 
HETATM    7  C5  UNK     1      28.094  -7.304  38.832  1.00  0.00     0.045 A 
HETATM    8  C6  UNK     1      27.097  -6.336  38.680  1.00  0.00     0.083 A 
HETATM    9  C9  UNK     1      29.441  -6.938  38.806  1.00  0.00     0.042 A 
HETATM   10  C10 UNK     1      27.449  -4.993  38.537  1.00  0.00     0.039 A 
HETATM   11  C14 UNK     1      29.788  -5.597  38.643  1.00  0.00     0.035 A 
HETATM   12  C15 UNK     1      28.794  -4.626  38.513  1.00  0.00     0.026 A 
ENDROOT
BRANCH   4  13
HETATM   13  C3  UNK     1      23.976  -8.194  38.379  1.00  0.00    -0.026 A 
HETATM   14  C7  UNK     1      23.299  -8.788  37.315  1.00  0.00     0.049 A 
HETATM   15  C11 UNK     1      21.921  -8.990  37.390  1.00  0.00     0.102 A 
HETATM   16  C13 UNK     1      21.221  -8.596  38.530  1.00  0.00     0.101 A 
HETATM   17  C12 UNK     1      21.898  -8.001  39.594  1.00  0.00     0.040 A 
HETATM   18  C8  UNK     1      23.276  -7.800  39.519  1.00  0.00     0.012 A 
BRANCH  15  19
HETATM   19  O3  UNK     1      21.271  -9.571  36.344  1.00  0.00    -0.353 OA
HETATM   20  C16 UNK     1      22.068 -10.289  35.404  1.00  0.00     0.210 C 
ENDBRANCH  15  19
BRANCH  16  21
HETATM   21  O4  UNK     1      19.875  -8.788  38.616  1.00  0.00    -0.353 OA
HETATM   22  C17 UNK     1      19.039  -7.696  38.238  1.00  0.00     0.210 C 
ENDBRANCH  16  21
ENDBRANCH   4  13
TORSDOF 3
ENDMDL
MODEL 7
REMARK VINA RESULT:      -7.3      7.599     12.427
REMARK  3 active torsions:
REMARK  status: ('A' for Active; 'I' for Inactive)
REMARK    1  A    between atoms: C11_16  and  O3_4 
REMARK    2  A    between atoms: C13_18  and  O4_5 
REMARK    3  A    between atoms: C1_6  and  C3_8 
ROOT
HETATM    1 Cl1  UNK     1      20.508  -9.834  39.479  1.00  0.00    -0.084 Cl
HETATM    2  O1  UNK     1      18.923  -4.898  36.697  1.00  0.00    -0.340 OA
HETATM    3  O2  UNK     1      22.691  -5.089  38.308  1.00  0.00    -0.292 OA
HETATM    4  C1  UNK     1      19.596  -3.707  37.134  1.00  0.00     0.169 C 
HETATM    5  C2  UNK     1      21.110  -3.850  36.996  1.00  0.00     0.121 C 
HETATM    6  C4  UNK     1      21.570  -5.026  37.819  1.00  0.00     0.165 C 
HETATM    7  C5  UNK     1      20.610  -6.142  37.946  1.00  0.00     0.045 A 
HETATM    8  C6  UNK     1      19.347  -6.023  37.357  1.00  0.00     0.083 A 
HETATM    9  C9  UNK     1      20.972  -7.317  38.607  1.00  0.00     0.042 A 
HETATM   10  C10 UNK     1      18.457  -7.097  37.401  1.00  0.00     0.039 A 
HETATM   11  C14 UNK     1      20.071  -8.380  38.665  1.00  0.00     0.035 A 
HETATM   12  C15 UNK     1      18.818  -8.272  38.060  1.00  0.00     0.026 A 
ENDROOT
BRANCH   4  13
HETATM   13  C3  UNK     1      19.082  -2.540  36.318  1.00  0.00    -0.026 A 
HETATM   14  C7  UNK     1      18.114  -1.689  36.852  1.00  0.00     0.049 A 
HETATM   15  C11 UNK     1      17.640  -0.614  36.101  1.00  0.00     0.102 A 
HETATM   16  C13 UNK     1      18.133  -0.390  34.816  1.00  0.00     0.101 A 
HETATM   17  C12 UNK     1      19.101  -1.242  34.282  1.00  0.00     0.040 A 
HETATM   18  C8  UNK     1      19.575  -2.317  35.033  1.00  0.00     0.012 A 
BRANCH  15  19
HETATM   19  O3  UNK     1      16.695   0.210  36.633  1.00  0.00    -0.353 OA
HETATM   20  C16 UNK     1      17.112   1.081  37.683  1.00  0.00     0.210 C 
ENDBRANCH  15  19
BRANCH  16  21
HETATM   21  O4  UNK     1      17.678   0.657  34.073  1.00  0.00    -0.353 OA
HETATM   22  C17 UNK     1      18.312   1.919  34.274  1.00  0.00     0.210 C 
ENDBRANCH  16  21
ENDBRANCH   4  13
TORSDOF 3
ENDMDL
MODEL 8
REMARK VINA RESULT:      -7.2      4.566      8.263
REMARK  3 active torsions:
REMARK  status: ('A' for Active; 'I' for Inactive)
REMARK    1  A    between atoms: C11_16  and  O3_4 
REMARK    2  A    between atoms: C13_18  and  O4_5 
REMARK    3  A    between atoms: C1_6  and  C3_8 
ROOT
HETATM    1 Cl1  UNK     1      19.768  -5.017  37.309  1.00  0.00    -0.084 Cl
HETATM    2  O1  UNK     1      19.281  -0.059  34.181  1.00  0.00    -0.340 OA
HETATM    3  O2  UNK     1      17.784  -0.094  38.000  1.00  0.00    -0.292 OA
HETATM    4  C1  UNK     1      18.181   0.789  34.546  1.00  0.00     0.169 C 
HETATM    5  C2  UNK     1      18.255   1.178  36.021  1.00  0.00     0.121 C 
HETATM    6  C4  UNK     1      18.234  -0.073  36.861  1.00  0.00     0.165 C 
HETATM    7  C5  UNK     1      18.857  -1.269  36.256  1.00  0.00     0.045 A 
HETATM    8  C6  UNK     1      19.366  -1.186  34.956  1.00  0.00     0.083 A 
HETATM    9  C9  UNK     1      18.975  -2.453  36.986  1.00  0.00     0.042 A 
HETATM   10  C10 UNK     1      20.026  -2.283  34.399  1.00  0.00     0.039 A 
HETATM   11  C14 UNK     1      19.617  -3.552  36.416  1.00  0.00     0.035 A 
HETATM   12  C15 UNK     1      20.145  -3.466  35.127  1.00  0.00     0.026 A 
ENDROOT
BRANCH   4  13
HETATM   13  C3  UNK     1      18.206   2.015  33.657  1.00  0.00    -0.026 A 
HETATM   14  C7  UNK     1      18.247   1.869  32.271  1.00  0.00     0.049 A 
HETATM   15  C11 UNK     1      18.269   2.997  31.452  1.00  0.00     0.102 A 
HETATM   16  C13 UNK     1      18.251   4.271  32.019  1.00  0.00     0.101 A 
HETATM   17  C12 UNK     1      18.210   4.416  33.406  1.00  0.00     0.040 A 
HETATM   18  C8  UNK     1      18.188   3.288  34.226  1.00  0.00     0.012 A 
BRANCH  15  19
HETATM   19  O3  UNK     1      18.310   2.843  30.099  1.00  0.00    -0.353 OA
HETATM   20  C16 UNK     1      18.693   1.560  29.605  1.00  0.00     0.210 C 
ENDBRANCH  15  19
BRANCH  16  21
HETATM   21  O4  UNK     1      18.272   5.381  31.230  1.00  0.00    -0.353 OA
HETATM   22  C17 UNK     1      19.503   6.098  31.153  1.00  0.00     0.210 C 
ENDBRANCH  16  21
ENDBRANCH   4  13
TORSDOF 3
ENDMDL
MODEL 9
REMARK VINA RESULT:      -7.2      8.107     13.157
REMARK  3 active torsions:
REMARK  status: ('A' for Active; 'I' for Inactive)
REMARK    1  A    between atoms: C11_16  and  O3_4 
REMARK    2  A    between atoms: C13_18  and  O4_5 
REMARK    3  A    between atoms: C1_6  and  C3_8 
ROOT
HETATM    1 Cl1  UNK     1      20.123 -11.567  37.972  1.00  0.00    -0.084 Cl
HETATM    2  O1  UNK     1      19.229  -5.822  37.072  1.00  0.00    -0.340 OA
HETATM    3  O2  UNK     1      21.065  -7.984  34.108  1.00  0.00    -0.292 OA
HETATM    4  C1  UNK     1      20.153  -5.193  36.170  1.00  0.00     0.169 C 
HETATM    5  C2  UNK     1      20.143  -5.882  34.807  1.00  0.00     0.121 C 
HETATM    6  C4  UNK     1      20.512  -7.332  34.986  1.00  0.00     0.165 C 
HETATM    7  C5  UNK     1      20.104  -7.951  36.264  1.00  0.00     0.045 A 
HETATM    8  C6  UNK     1      19.464  -7.164  37.227  1.00  0.00     0.083 A 
HETATM    9  C9  UNK     1      20.314  -9.312  36.492  1.00  0.00     0.042 A 
HETATM   10  C10 UNK     1      19.003  -7.750  38.407  1.00  0.00     0.039 A 
HETATM   11  C14 UNK     1      19.869  -9.888  37.682  1.00  0.00     0.035 A 
HETATM   12  C15 UNK     1      19.211  -9.110  38.636  1.00  0.00     0.026 A 
ENDROOT
BRANCH   4  13
HETATM   13  C3  UNK     1      19.781  -3.731  36.045  1.00  0.00    -0.026 A 
HETATM   14  C7  UNK     1      19.928  -3.077  34.822  1.00  0.00     0.049 A 
HETATM   15  C11 UNK     1      19.586  -1.730  34.706  1.00  0.00     0.102 A 
HETATM   16  C13 UNK     1      19.096  -1.038  35.813  1.00  0.00     0.101 A 
HETATM   17  C12 UNK     1      18.949  -1.692  37.036  1.00  0.00     0.040 A 
HETATM   18  C8  UNK     1      19.291  -3.039  37.152  1.00  0.00     0.012 A 
BRANCH  15  19
HETATM   19  O3  UNK     1      19.735  -1.102  33.507  1.00  0.00    -0.353 OA
HETATM   20  C16 UNK     1      18.734  -1.345  32.520  1.00  0.00     0.210 C 
ENDBRANCH  15  19
BRANCH  16  21
HETATM   21  O4  UNK     1      18.758   0.278  35.713  1.00  0.00    -0.353 OA
HETATM   22  C17 UNK     1      17.882   0.800  36.710  1.00  0.00     0.210 C 
ENDBRANCH  16  21
ENDBRANCH   4  13
TORSDOF 3
ENDMDL
MODEL 10
REMARK VINA RESULT:      -7.2     22.925     25.015
REMARK  3 active torsions:
REMARK  status: ('A' for Active; 'I' for Inactive)
REMARK    1  A    between atoms: C11_16  and  O3_4 
REMARK    2  A    between atoms: C13_18  and  O4_5 
REMARK    3  A    between atoms: C1_6  and  C3_8 
ROOT
HETATM    1 Cl1  UNK     1      19.172  11.977   9.535  1.00  0.00    -0.084 Cl
HETATM    2  O1  UNK     1      14.118   9.214   8.339  1.00  0.00    -0.340 OA
HETATM    3  O2  UNK     1      16.754   7.403  10.908  1.00  0.00    -0.292 OA
HETATM    4  C1  UNK     1      14.159   7.783   8.461  1.00  0.00     0.169 C 
HETATM    5  C2  UNK     1      14.595   7.365   9.863  1.00  0.00     0.121 C 
HETATM    6  C4  UNK     1      15.959   7.939  10.146  1.00  0.00     0.165 C 
HETATM    7  C5  UNK     1      16.260   9.236   9.505  1.00  0.00     0.045 A 
HETATM    8  C6  UNK     1      15.311   9.810   8.654  1.00  0.00     0.083 A 
HETATM    9  C9  UNK     1      17.458   9.900   9.777  1.00  0.00     0.042 A 
HETATM   10  C10 UNK     1      15.548  11.070   8.101  1.00  0.00     0.039 A 
HETATM   11  C14 UNK     1      17.698  11.150   9.205  1.00  0.00     0.035 A 
HETATM   12  C15 UNK     1      16.743  11.736   8.373  1.00  0.00     0.026 A 
ENDROOT
BRANCH   4  13
HETATM   13  C3  UNK     1      12.788   7.234   8.129  1.00  0.00    -0.026 A 
HETATM   14  C7  UNK     1      11.727   7.431   9.012  1.00  0.00     0.049 A 
HETATM   15  C11 UNK     1      10.463   6.925   8.707  1.00  0.00     0.102 A 
HETATM   16  C13 UNK     1      10.262   6.223   7.520  1.00  0.00     0.101 A 
HETATM   17  C12 UNK     1      11.323   6.026   6.637  1.00  0.00     0.040 A 
HETATM   18  C8  UNK     1      12.587   6.532   6.941  1.00  0.00     0.012 A 
BRANCH  15  19
HETATM   19  O3  UNK     1       9.434   7.123   9.578  1.00  0.00    -0.353 OA
HETATM   20  C16 UNK     1       8.839   8.419   9.593  1.00  0.00     0.210 C 
ENDBRANCH  15  19
BRANCH  16  21
HETATM   21  O4  UNK     1       9.032   5.724   7.210  1.00  0.00    -0.353 OA
HETATM   22  C17 UNK     1       8.166   6.562   6.448  1.00  0.00     0.210 C 
ENDBRANCH  16  21
ENDBRANCH   4  13
TORSDOF 3
ENDMDL
