MODEL 1
REMARK VINA RESULT:      -7.6      0.000      0.000
REMARK  2 active torsions:
REMARK  status: ('A' for Active; 'I' for Inactive)
REMARK    1  A    between atoms: C1_4  and  C3_6 
REMARK    2  A    between atoms: C2_5  and  C4_7 
ROOT
HETATM    1  N1  UNK     1      20.174   5.483  30.091  1.00  0.00    -0.191 NA
HETATM    2  C3  UNK     1      18.142   4.973  31.615  1.00  0.00     0.055 C 
HETATM    3  C4  UNK     1      17.703   3.713  31.658  1.00  0.00     0.034 C 
HETATM    4  C15 UNK     1      19.264   5.253  30.773  1.00  0.00     0.100 C 
ENDROOT
BRANCH   2   5
HETATM    5  C1  UNK     1      17.564   6.094  32.384  1.00  0.00    -0.015 A 
HETATM    6  C5  UNK     1      17.562   6.034  33.767  1.00  0.00     0.014 A 
HETATM    7  C9  UNK     1      17.015   7.092  34.493  1.00  0.00     0.020 A 
HETATM    8  C13 UNK     1      16.479   8.194  33.825  1.00  0.00     0.011 A 
HETATM    9 Br1  UNK     1      15.737   9.626  34.808  1.00  0.00    -0.051 Br
HETATM   10  C10 UNK     1      16.491   8.236  32.430  1.00  0.00     0.020 A 
HETATM   11  C6  UNK     1      17.038   7.178  31.705  1.00  0.00     0.014 A 
ENDBRANCH   2   5
BRANCH   3  12
HETATM   12  C2  UNK     1      18.303   2.626  30.901  1.00  0.00    -0.035 A 
HETATM   13  C7  UNK     1      18.057   2.511  29.533  1.00  0.00     0.013 A 
HETATM   14  C11 UNK     1      18.632   1.468  28.806  1.00  0.00     0.024 A 
HETATM   15  C14 UNK     1      19.454   0.541  29.448  1.00  0.00     0.034 A 
HETATM   16  C12 UNK     1      19.699   0.657  30.816  1.00  0.00     0.024 A 
HETATM   17 Cl1  UNK     1      20.162  -0.746  28.552  1.00  0.00    -0.084 Cl
HETATM   18  C8  UNK     1      19.123   1.699  31.543  1.00  0.00     0.013 A 
ENDBRANCH   3  12
TORSDOF 2
ENDMDL
MODEL 2
REMARK VINA RESULT:      -7.2      4.880      7.906
REMARK  2 active torsions:
REMARK  status: ('A' for Active; 'I' for Inactive)
REMARK    1  A    between atoms: C1_4  and  C3_6 
REMARK    2  A    between atoms: C2_5  and  C4_7 
ROOT
HETATM    1  N1  UNK     1      16.133   8.424  30.838  1.00  0.00    -0.191 NA
HETATM    2  C3  UNK     1      17.791   7.075  32.303  1.00  0.00     0.055 C 
HETATM    3  C4  UNK     1      18.276   7.670  33.394  1.00  0.00     0.034 C 
HETATM    4  C15 UNK     1      16.876   7.821  31.495  1.00  0.00     0.100 C 
ENDROOT
BRANCH   2   5
HETATM    5  C1  UNK     1      18.119   5.699  31.875  1.00  0.00    -0.015 A 
HETATM    6  C5  UNK     1      18.688   5.497  30.630  1.00  0.00     0.014 A 
HETATM    7  C9  UNK     1      18.996   4.198  30.226  1.00  0.00     0.020 A 
HETATM    8  C13 UNK     1      18.729   3.121  31.074  1.00  0.00     0.011 A 
HETATM    9 Br1  UNK     1      19.144   1.362  30.526  1.00  0.00    -0.051 Br
HETATM   10  C10 UNK     1      18.155   3.346  32.325  1.00  0.00     0.020 A 
HETATM   11  C6  UNK     1      17.847   4.645  32.729  1.00  0.00     0.014 A 
ENDBRANCH   2   5
BRANCH   3  12
HETATM   12  C2  UNK     1      17.923   9.021  33.799  1.00  0.00    -0.035 A 
HETATM   13  C7  UNK     1      18.884  10.032  33.767  1.00  0.00     0.013 A 
HETATM   14  C11 UNK     1      18.545  11.329  34.155  1.00  0.00     0.024 A 
HETATM   15  C14 UNK     1      17.245  11.615  34.574  1.00  0.00     0.034 A 
HETATM   16  C12 UNK     1      16.285  10.604  34.605  1.00  0.00     0.024 A 
HETATM   17 Cl1  UNK     1      16.828  13.213  35.053  1.00  0.00    -0.084 Cl
HETATM   18  C8  UNK     1      16.624   9.307  34.218  1.00  0.00     0.013 A 
ENDBRANCH   3  12
TORSDOF 2
ENDMDL
MODEL 3
REMARK VINA RESULT:      -7.1      2.507      3.906
REMARK  2 active torsions:
REMARK  status: ('A' for Active; 'I' for Inactive)
REMARK    1  A    between atoms: C1_4  and  C3_6 
REMARK    2  A    between atoms: C2_5  and  C4_7 
ROOT
HETATM    1  N1  UNK     1      14.878   6.924  31.567  1.00  0.00    -0.191 NA
HETATM    2  C3  UNK     1      16.871   8.011  32.815  1.00  0.00     0.055 C 
HETATM    3  C4  UNK     1      18.052   7.393  32.750  1.00  0.00     0.034 C 
HETATM    4  C15 UNK     1      15.772   7.410  32.125  1.00  0.00     0.100 C 
ENDROOT
BRANCH   2   5
HETATM    5  C1  UNK     1      16.619   9.277  33.535  1.00  0.00    -0.015 A 
HETATM    6  C5  UNK     1      15.339   9.558  33.979  1.00  0.00     0.014 A 
HETATM    7  C9  UNK     1      15.101  10.753  34.656  1.00  0.00     0.020 A 
HETATM    8  C13 UNK     1      16.148  11.649  34.880  1.00  0.00     0.011 A 
HETATM    9 Br1  UNK     1      15.825  13.270  35.797  1.00  0.00    -0.051 Br
HETATM   10  C10 UNK     1      17.432  11.348  34.425  1.00  0.00     0.020 A 
HETATM   11  C6  UNK     1      17.669  10.152  33.747  1.00  0.00     0.014 A 
ENDBRANCH   2   5
BRANCH   3  12
HETATM   12  C2  UNK     1      18.273   6.155  32.020  1.00  0.00    -0.035 A 
HETATM   13  C7  UNK     1      18.820   6.191  30.737  1.00  0.00     0.013 A 
HETATM   14  C11 UNK     1      19.031   5.003  30.036  1.00  0.00     0.024 A 
HETATM   15  C14 UNK     1      18.696   3.780  30.618  1.00  0.00     0.034 A 
HETATM   16  C12 UNK     1      18.149   3.746  31.900  1.00  0.00     0.024 A 
HETATM   17 Cl1  UNK     1      18.957   2.317  29.753  1.00  0.00    -0.084 Cl
HETATM   18  C8  UNK     1      17.937   4.933  32.601  1.00  0.00     0.013 A 
ENDBRANCH   3  12
TORSDOF 2
ENDMDL
MODEL 4
REMARK VINA RESULT:      -7.0      8.220     10.700
REMARK  2 active torsions:
REMARK  status: ('A' for Active; 'I' for Inactive)
REMARK    1  A    between atoms: C1_4  and  C3_6 
REMARK    2  A    between atoms: C2_5  and  C4_7 
ROOT
HETATM    1  N1  UNK     1      21.869  -1.775  35.361  1.00  0.00    -0.191 NA
HETATM    2  C3  UNK     1      19.735  -2.871  36.338  1.00  0.00     0.055 C 
HETATM    3  C4  UNK     1      18.600  -2.171  36.282  1.00  0.00     0.034 C 
HETATM    4  C15 UNK     1      20.912  -2.264  35.798  1.00  0.00     0.100 C 
ENDROOT
BRANCH   2   5
HETATM    5  C1  UNK     1      19.861  -4.231  36.902  1.00  0.00    -0.015 A 
HETATM    6  C5  UNK     1      18.894  -5.176  36.605  1.00  0.00     0.014 A 
HETATM    7  C9  UNK     1      19.012  -6.459  37.139  1.00  0.00     0.020 A 
HETATM    8  C13 UNK     1      20.095  -6.777  37.961  1.00  0.00     0.011 A 
HETATM    9 Br1  UNK     1      20.254  -8.515  38.685  1.00  0.00    -0.051 Br
HETATM   10  C10 UNK     1      21.059  -5.811  38.247  1.00  0.00     0.020 A 
HETATM   11  C6  UNK     1      20.941  -4.527  37.713  1.00  0.00     0.014 A 
ENDBRANCH   2   5
BRANCH   3  12
HETATM   12  C2  UNK     1      18.504  -0.839  35.706  1.00  0.00    -0.035 A 
HETATM   13  C7  UNK     1      18.379  -0.685  34.325  1.00  0.00     0.013 A 
HETATM   14  C11 UNK     1      18.287   0.592  33.771  1.00  0.00     0.024 A 
HETATM   15  C14 UNK     1      18.319   1.715  34.599  1.00  0.00     0.034 A 
HETATM   16  C12 UNK     1      18.444   1.560  35.979  1.00  0.00     0.024 A 
HETATM   17 Cl1  UNK     1      18.207   3.290  33.916  1.00  0.00    -0.084 Cl
HETATM   18  C8  UNK     1      18.537   0.283  36.533  1.00  0.00     0.013 A 
ENDBRANCH   3  12
TORSDOF 2
ENDMDL
MODEL 5
REMARK VINA RESULT:      -7.0      4.350      7.133
REMARK  2 active torsions:
REMARK  status: ('A' for Active; 'I' for Inactive)
REMARK    1  A    between atoms: C1_4  and  C3_6 
REMARK    2  A    between atoms: C2_5  and  C4_7 
ROOT
HETATM    1  N1  UNK     1      19.324   6.162  29.761  1.00  0.00    -0.191 NA
HETATM    2  C3  UNK     1      18.526   4.170  31.214  1.00  0.00     0.055 C 
HETATM    3  C4  UNK     1      17.846   4.452  32.327  1.00  0.00     0.034 C 
HETATM    4  C15 UNK     1      18.966   5.271  30.413  1.00  0.00     0.100 C 
ENDROOT
BRANCH   2   5
HETATM    5  C1  UNK     1      18.846   2.807  30.742  1.00  0.00    -0.015 A 
HETATM    6  C5  UNK     1      19.196   1.838  31.667  1.00  0.00     0.014 A 
HETATM    7  C9  UNK     1      19.499   0.552  31.221  1.00  0.00     0.020 A 
HETATM    8  C13 UNK     1      19.449   0.255  29.859  1.00  0.00     0.011 A 
HETATM    9 Br1  UNK     1      19.861  -1.488  29.255  1.00  0.00    -0.051 Br
HETATM   10  C10 UNK     1      19.094   1.245  28.942  1.00  0.00     0.020 A 
HETATM   11  C6  UNK     1      18.790   2.532  29.388  1.00  0.00     0.014 A 
ENDBRANCH   2   5
BRANCH   3  12
HETATM   12  C2  UNK     1      17.532   5.805  32.758  1.00  0.00    -0.035 A 
HETATM   13  C7  UNK     1      18.377   6.466  33.649  1.00  0.00     0.013 A 
HETATM   14  C11 UNK     1      18.076   7.764  34.063  1.00  0.00     0.024 A 
HETATM   15  C14 UNK     1      16.930   8.401  33.585  1.00  0.00     0.034 A 
HETATM   16  C12 UNK     1      16.086   7.738  32.694  1.00  0.00     0.024 A 
HETATM   17 Cl1  UNK     1      16.559  10.000  34.096  1.00  0.00    -0.084 Cl
HETATM   18  C8  UNK     1      16.386   6.440  32.281  1.00  0.00     0.013 A 
ENDBRANCH   3  12
TORSDOF 2
ENDMDL
MODEL 6
REMARK VINA RESULT:      -6.9      9.286     11.112
REMARK  2 active torsions:
REMARK  status: ('A' for Active; 'I' for Inactive)
REMARK    1  A    between atoms: C1_4  and  C3_6 
REMARK    2  A    between atoms: C2_5  and  C4_7 
ROOT
HETATM    1  N1  UNK     1      21.939  -4.922  37.768  1.00  0.00    -0.191 NA
HETATM    2  C3  UNK     1      19.612  -4.387  36.764  1.00  0.00     0.055 C 
HETATM    3  C4  UNK     1      18.802  -5.415  36.500  1.00  0.00     0.034 C 
HETATM    4  C15 UNK     1      20.896  -4.685  37.318  1.00  0.00     0.100 C 
ENDROOT
BRANCH   2   5
HETATM    5  C1  UNK     1      19.273  -2.967  36.539  1.00  0.00    -0.015 A 
HETATM    6  C5  UNK     1      18.547  -2.286  37.502  1.00  0.00     0.014 A 
HETATM    7  C9  UNK     1      18.226  -0.946  37.289  1.00  0.00     0.020 A 
HETATM    8  C13 UNK     1      18.636  -0.307  36.118  1.00  0.00     0.011 A 
HETATM    9 Br1  UNK     1      18.200   1.509  35.830  1.00  0.00    -0.051 Br
HETATM   10  C10 UNK     1      19.368  -1.010  35.161  1.00  0.00     0.020 A 
HETATM   11  C6  UNK     1      19.688  -2.351  35.373  1.00  0.00     0.014 A 
ENDBRANCH   2   5
BRANCH   3  12
HETATM   12  C2  UNK     1      19.157  -6.803  36.747  1.00  0.00    -0.035 A 
HETATM   13  C7  UNK     1      18.766  -7.422  37.934  1.00  0.00     0.013 A 
HETATM   14  C11 UNK     1      19.107  -8.754  38.171  1.00  0.00     0.024 A 
HETATM   15  C14 UNK     1      19.839  -9.467  37.221  1.00  0.00     0.034 A 
HETATM   16  C12 UNK     1      20.230  -8.847  36.035  1.00  0.00     0.024 A 
HETATM   17 Cl1  UNK     1      20.260 -11.109  37.514  1.00  0.00    -0.084 Cl
HETATM   18  C8  UNK     1      19.890  -7.515  35.797  1.00  0.00     0.013 A 
ENDBRANCH   3  12
TORSDOF 2
ENDMDL
MODEL 7
REMARK VINA RESULT:      -6.8      3.360      5.174
REMARK  2 active torsions:
REMARK  status: ('A' for Active; 'I' for Inactive)
REMARK    1  A    between atoms: C1_4  and  C3_6 
REMARK    2  A    between atoms: C2_5  and  C4_7 
ROOT
HETATM    1  N1  UNK     1      13.744   6.863  31.929  1.00  0.00    -0.191 NA
HETATM    2  C3  UNK     1      15.215   8.563  33.217  1.00  0.00     0.055 C 
HETATM    3  C4  UNK     1      16.533   8.353  33.230  1.00  0.00     0.034 C 
HETATM    4  C15 UNK     1      14.405   7.623  32.506  1.00  0.00     0.100 C 
ENDROOT
BRANCH   2   5
HETATM    5  C1  UNK     1      14.535   9.701  33.869  1.00  0.00    -0.015 A 
HETATM    6  C5  UNK     1      14.823   9.991  35.191  1.00  0.00     0.014 A 
HETATM    7  C9  UNK     1      14.180  11.064  35.807  1.00  0.00     0.020 A 
HETATM    8  C13 UNK     1      13.259  11.831  35.092  1.00  0.00     0.011 A 
HETATM    9 Br1  UNK     1      12.386  13.283  35.927  1.00  0.00    -0.051 Br
HETATM   10  C10 UNK     1      12.983  11.523  33.759  1.00  0.00     0.020 A 
HETATM   11  C6  UNK     1      13.626  10.449  33.143  1.00  0.00     0.014 A 
ENDBRANCH   2   5
BRANCH   3  12
HETATM   12  C2  UNK     1      17.176   7.231  32.565  1.00  0.00    -0.035 A 
HETATM   13  C7  UNK     1      17.638   7.370  31.256  1.00  0.00     0.013 A 
HETATM   14  C11 UNK     1      18.254   6.293  30.617  1.00  0.00     0.024 A 
HETATM   15  C14 UNK     1      18.410   5.080  31.287  1.00  0.00     0.034 A 
HETATM   16  C12 UNK     1      17.948   4.943  32.596  1.00  0.00     0.024 A 
HETATM   17 Cl1  UNK     1      19.170   3.753  30.499  1.00  0.00    -0.084 Cl
HETATM   18  C8  UNK     1      17.331   6.018  33.235  1.00  0.00     0.013 A 
ENDBRANCH   3  12
TORSDOF 2
ENDMDL
MODEL 8
REMARK VINA RESULT:      -6.7     13.437     16.061
REMARK  2 active torsions:
REMARK  status: ('A' for Active; 'I' for Inactive)
REMARK    1  A    between atoms: C1_4  and  C3_6 
REMARK    2  A    between atoms: C2_5  and  C4_7 
ROOT
HETATM    1  N1  UNK     1      22.187 -10.711  35.018  1.00  0.00    -0.191 NA
HETATM    2  C3  UNK     1      22.999  -8.979  36.765  1.00  0.00     0.055 C 
HETATM    3  C4  UNK     1      22.142  -8.025  37.134  1.00  0.00     0.034 C 
HETATM    4  C15 UNK     1      22.549  -9.934  35.800  1.00  0.00     0.100 C 
ENDROOT
BRANCH   2   5
HETATM    5  C1  UNK     1      24.372  -9.129  37.291  1.00  0.00    -0.015 A 
HETATM    6  C5  UNK     1      25.233 -10.026  36.682  1.00  0.00     0.014 A 
HETATM    7  C9  UNK     1      26.528 -10.168  37.179  1.00  0.00     0.020 A 
HETATM    8  C13 UNK     1      26.942  -9.412  38.277  1.00  0.00     0.011 A 
HETATM    9 Br1  UNK     1      28.696  -9.607  38.951  1.00  0.00    -0.051 Br
HETATM   10  C10 UNK     1      26.060  -8.513  38.876  1.00  0.00     0.020 A 
HETATM   11  C6  UNK     1      24.764  -8.371  38.379  1.00  0.00     0.014 A 
ENDBRANCH   2   5
BRANCH   3  12
HETATM   12  C2  UNK     1      20.790  -7.912  36.610  1.00  0.00    -0.035 A 
HETATM   13  C7  UNK     1      19.750  -8.625  37.207  1.00  0.00     0.013 A 
HETATM   14  C11 UNK     1      18.453  -8.517  36.704  1.00  0.00     0.024 A 
HETATM   15  C14 UNK     1      18.195  -7.696  35.606  1.00  0.00     0.034 A 
HETATM   16  C12 UNK     1      19.236  -6.984  35.010  1.00  0.00     0.024 A 
HETATM   17 Cl1  UNK     1      16.596  -7.564  34.987  1.00  0.00    -0.084 Cl
HETATM   18  C8  UNK     1      20.533  -7.092  35.512  1.00  0.00     0.013 A 
ENDBRANCH   3  12
TORSDOF 2
ENDMDL
MODEL 9
REMARK VINA RESULT:      -6.7      2.646      4.094
REMARK  2 active torsions:
REMARK  status: ('A' for Active; 'I' for Inactive)
REMARK    1  A    between atoms: C1_4  and  C3_6 
REMARK    2  A    between atoms: C2_5  and  C4_7 
ROOT
HETATM    1  N1  UNK     1      19.807   6.921  34.597  1.00  0.00    -0.191 NA
HETATM    2  C3  UNK     1      18.078   8.263  33.212  1.00  0.00     0.055 C 
HETATM    3  C4  UNK     1      17.586   7.688  32.113  1.00  0.00     0.034 C 
HETATM    4  C15 UNK     1      19.033   7.521  33.975  1.00  0.00     0.100 C 
ENDROOT
BRANCH   2   5
HETATM    5  C1  UNK     1      17.698   9.604  33.705  1.00  0.00    -0.015 A 
HETATM    6  C5  UNK     1      16.367   9.871  33.974  1.00  0.00     0.014 A 
HETATM    7  C9  UNK     1      16.008  11.136  34.437  1.00  0.00     0.020 A 
HETATM    8  C13 UNK     1      16.986  12.115  34.625  1.00  0.00     0.011 A 
HETATM    9 Br1  UNK     1      16.500  13.829  35.251  1.00  0.00    -0.051 Br
HETATM   10  C10 UNK     1      18.322  11.825  34.348  1.00  0.00     0.020 A 
HETATM   11  C6  UNK     1      18.681  10.560  33.884  1.00  0.00     0.014 A 
ENDBRANCH   2   5
BRANCH   3  12
HETATM   12  C2  UNK     1      17.968   6.359  31.661  1.00  0.00    -0.035 A 
HETATM   13  C7  UNK     1      17.510   5.233  32.345  1.00  0.00     0.013 A 
HETATM   14  C11 UNK     1      17.876   3.958  31.912  1.00  0.00     0.024 A 
HETATM   15  C14 UNK     1      18.699   3.809  30.795  1.00  0.00     0.034 A 
HETATM   16  C12 UNK     1      19.156   4.937  30.112  1.00  0.00     0.024 A 
HETATM   17 Cl1  UNK     1      19.151   2.238  30.263  1.00  0.00    -0.084 Cl
HETATM   18  C8  UNK     1      18.791   6.211  30.545  1.00  0.00     0.013 A 
ENDBRANCH   3  12
TORSDOF 2
ENDMDL
MODEL 10
REMARK VINA RESULT:      -6.6      2.645      4.010
REMARK  2 active torsions:
REMARK  status: ('A' for Active; 'I' for Inactive)
REMARK    1  A    between atoms: C1_4  and  C3_6 
REMARK    2  A    between atoms: C2_5  and  C4_7 
ROOT
HETATM    1  N1  UNK     1      19.705   6.863  34.681  1.00  0.00    -0.191 NA
HETATM    2  C3  UNK     1      18.062   8.249  33.235  1.00  0.00     0.055 C 
HETATM    3  C4  UNK     1      17.608   7.692  32.110  1.00  0.00     0.034 C 
HETATM    4  C15 UNK     1      18.969   7.483  34.032  1.00  0.00     0.100 C 
ENDROOT
BRANCH   2   5
HETATM    5  C1  UNK     1      17.685   9.592  33.723  1.00  0.00    -0.015 A 
HETATM    6  C5  UNK     1      18.670  10.552  33.885  1.00  0.00     0.014 A 
HETATM    7  C9  UNK     1      18.315  11.818  34.347  1.00  0.00     0.020 A 
HETATM    8  C13 UNK     1      16.981  12.106  34.640  1.00  0.00     0.011 A 
HETATM    9 Br1  UNK     1      16.500  13.822  35.269  1.00  0.00    -0.051 Br
HETATM   10  C10 UNK     1      16.003  11.126  34.470  1.00  0.00     0.020 A 
HETATM   11  C6  UNK     1      16.359   9.858  34.008  1.00  0.00     0.014 A 
ENDBRANCH   2   5
BRANCH   3  12
HETATM   12  C2  UNK     1      17.984   6.361  31.663  1.00  0.00    -0.035 A 
HETATM   13  C7  UNK     1      18.828   6.208  30.562  1.00  0.00     0.013 A 
HETATM   14  C11 UNK     1      19.188   4.930  30.133  1.00  0.00     0.024 A 
HETATM   15  C14 UNK     1      18.707   3.806  30.804  1.00  0.00     0.034 A 
HETATM   16  C12 UNK     1      17.864   3.960  31.905  1.00  0.00     0.024 A 
HETATM   17 Cl1  UNK     1      19.152   2.231  30.274  1.00  0.00    -0.084 Cl
HETATM   18  C8  UNK     1      17.502   5.237  32.334  1.00  0.00     0.013 A 
ENDBRANCH   3  12
TORSDOF 2
ENDMDL
