MODEL 1
REMARK VINA RESULT:      -8.7      0.000      0.000
REMARK  5 active torsions:
REMARK  status: ('A' for Active; 'I' for Inactive)
REMARK    1  A    between atoms: C11_17  and  O2_2 
REMARK    2  A    between atoms: C17_23  and  O2_2 
REMARK    3  A    between atoms: C9_15  and  O3_3 
REMARK    4  A    between atoms: C6_12  and  N1_6 
REMARK       I    between atoms: C7_13  and  N1_6 
REMARK    5  A    between atoms: C3_9  and  C7_13 
ROOT
HETATM    1  O1  UNK     1      19.278   1.097  15.464  1.00  0.00    -0.274 OA
HETATM    2  O5  UNK     1      19.301  -0.432  13.768  1.00  0.00    -0.259 OA
HETATM    3  C1  UNK     1      18.858   0.357  17.742  1.00  0.00     0.002 A 
HETATM    4  C2  UNK     1      19.125   1.379  16.836  1.00  0.00     0.089 A 
HETATM    5  C3  UNK     1      18.881  -1.267  15.945  1.00  0.00     0.108 A 
HETATM    6  C4  UNK     1      18.736  -1.006  17.249  1.00  0.00     0.037 A 
HETATM    7  C5  UNK     1      18.713   0.676  19.095  1.00  0.00     0.051 A 
HETATM    8  C8  UNK     1      19.251   2.705  17.243  1.00  0.00     0.041 A 
HETATM    9  C9  UNK     1      18.838   2.003  19.518  1.00  0.00     0.069 A 
HETATM   10  C10 UNK     1      19.168  -0.196  14.964  1.00  0.00     0.304 A 
HETATM   11  C12 UNK     1      19.107   3.015  18.594  1.00  0.00     0.039 A 
ENDROOT
BRANCH   5  12
HETATM   12  C7  UNK     1      18.742  -2.672  15.545  1.00  0.00     0.262 C 
HETATM   13  O4  UNK     1      17.726  -3.296  15.851  1.00  0.00    -0.267 OA
HETATM   14  N1  UNK     1      19.845  -3.128  14.837  1.00  0.00    -0.320 N 
HETATM   15  H4  UNK     1      20.623  -2.490  14.683  1.00  0.00     0.169 HD
BRANCH  14  16
HETATM   16  C6  UNK     1      20.053  -4.422  14.300  1.00  0.00     0.068 A 
HETATM   17  C11 UNK     1      19.522  -4.753  13.065  1.00  0.00     0.095 A 
HETATM   18  C14 UNK     1      19.737  -6.032  12.550  1.00  0.00     0.039 A 
HETATM   19  C16 UNK     1      20.481  -6.960  13.277  1.00  0.00     0.003 A 
HETATM   20  C15 UNK     1      21.010  -6.612  14.520  1.00  0.00     0.002 A 
HETATM   21  C13 UNK     1      20.795  -5.333  15.035  1.00  0.00     0.032 A 
BRANCH  17  22
HETATM   22  O2  UNK     1      18.792  -3.860  12.338  1.00  0.00    -0.349 OA
BRANCH  22  23
HETATM   23  C17 UNK     1      19.246  -3.576  11.017  1.00  0.00     0.171 C 
HETATM   24  C18 UNK     1      20.376  -2.570  11.090  1.00  0.00     0.034 C 
ENDBRANCH  22  23
ENDBRANCH  17  22
ENDBRANCH  14  16
ENDBRANCH   5  12
BRANCH   9  25
HETATM   25  O3  UNK     1      18.697   2.310  20.836  1.00  0.00    -0.356 OA
HETATM   26  C19 UNK     1      19.796   2.007  21.694  1.00  0.00     0.210 C 
ENDBRANCH   9  25
TORSDOF 5
ENDMDL
MODEL 2
REMARK VINA RESULT:      -8.4      1.184      2.329
REMARK  5 active torsions:
REMARK  status: ('A' for Active; 'I' for Inactive)
REMARK    1  A    between atoms: C11_17  and  O2_2 
REMARK    2  A    between atoms: C17_23  and  O2_2 
REMARK    3  A    between atoms: C9_15  and  O3_3 
REMARK    4  A    between atoms: C6_12  and  N1_6 
REMARK       I    between atoms: C7_13  and  N1_6 
REMARK    5  A    between atoms: C3_9  and  C7_13 
ROOT
HETATM    1  O1  UNK     1      19.268   1.135  15.480  1.00  0.00    -0.274 OA
HETATM    2  O5  UNK     1      19.316  -0.375  13.766  1.00  0.00    -0.259 OA
HETATM    3  C1  UNK     1      18.875   0.360  17.751  1.00  0.00     0.002 A 
HETATM    4  C2  UNK     1      19.116   1.398  16.856  1.00  0.00     0.089 A 
HETATM    5  C3  UNK     1      18.925  -1.243  15.936  1.00  0.00     0.108 A 
HETATM    6  C4  UNK     1      18.780  -1.000  17.244  1.00  0.00     0.037 A 
HETATM    7  C5  UNK     1      18.730   0.661  19.108  1.00  0.00     0.051 A 
HETATM    8  C8  UNK     1      19.216   2.722  17.277  1.00  0.00     0.041 A 
HETATM    9  C9  UNK     1      18.828   1.985  19.546  1.00  0.00     0.069 A 
HETATM   10  C10 UNK     1      19.183  -0.156  14.965  1.00  0.00     0.304 A 
HETATM   11  C12 UNK     1      19.071   3.013  18.632  1.00  0.00     0.039 A 
ENDROOT
BRANCH   5  12
HETATM   12  C7  UNK     1      18.813  -2.646  15.521  1.00  0.00     0.262 C 
HETATM   13  O4  UNK     1      17.791  -3.280  15.780  1.00  0.00    -0.267 OA
HETATM   14  N1  UNK     1      19.948  -3.088  14.856  1.00  0.00    -0.320 N 
HETATM   15  H4  UNK     1      20.727  -2.443  14.739  1.00  0.00     0.169 HD
BRANCH  14  16
HETATM   16  C6  UNK     1      20.190  -4.376  14.319  1.00  0.00     0.068 A 
HETATM   17  C11 UNK     1      20.855  -5.328  15.076  1.00  0.00     0.095 A 
HETATM   18  C14 UNK     1      21.084  -6.592  14.534  1.00  0.00     0.039 A 
HETATM   19  C16 UNK     1      20.646  -6.888  13.243  1.00  0.00     0.003 A 
HETATM   20  C15 UNK     1      19.979  -5.919  12.494  1.00  0.00     0.002 A 
HETATM   21  C13 UNK     1      19.748  -4.655  13.036  1.00  0.00     0.032 A 
BRANCH  17  22
HETATM   22  O2  UNK     1      21.290  -5.059  16.339  1.00  0.00    -0.349 OA
BRANCH  22  23
HETATM   23  C17 UNK     1      22.651  -4.660  16.484  1.00  0.00     0.171 C 
HETATM   24  C18 UNK     1      22.715  -3.437  17.374  1.00  0.00     0.034 C 
ENDBRANCH  22  23
ENDBRANCH  17  22
ENDBRANCH  14  16
ENDBRANCH   5  12
BRANCH   9  25
HETATM   25  O3  UNK     1      18.688   2.274  20.868  1.00  0.00    -0.356 OA
HETATM   26  C19 UNK     1      19.793   1.977  21.719  1.00  0.00     0.210 C 
ENDBRANCH   9  25
TORSDOF 5
ENDMDL
MODEL 3
REMARK VINA RESULT:      -8.4     13.900     18.178
REMARK  5 active torsions:
REMARK  status: ('A' for Active; 'I' for Inactive)
REMARK    1  A    between atoms: C11_17  and  O2_2 
REMARK    2  A    between atoms: C17_23  and  O2_2 
REMARK    3  A    between atoms: C9_15  and  O3_3 
REMARK    4  A    between atoms: C6_12  and  N1_6 
REMARK       I    between atoms: C7_13  and  N1_6 
REMARK    5  A    between atoms: C3_9  and  C7_13 
ROOT
HETATM    1  O1  UNK     1      18.936   2.062  28.833  1.00  0.00    -0.274 OA
HETATM    2  O5  UNK     1      18.238   4.214  29.151  1.00  0.00    -0.259 OA
HETATM    3  C1  UNK     1      19.436   0.666  30.760  1.00  0.00     0.002 A 
HETATM    4  C2  UNK     1      19.352   0.833  29.381  1.00  0.00     0.089 A 
HETATM    5  C3  UNK     1      18.697   2.947  31.101  1.00  0.00     0.108 A 
HETATM    6  C4  UNK     1      19.091   1.782  31.626  1.00  0.00     0.037 A 
HETATM    7  C5  UNK     1      19.853  -0.568  31.265  1.00  0.00     0.051 A 
HETATM    8  C8  UNK     1      19.671  -0.195  28.497  1.00  0.00     0.041 A 
HETATM    9  C9  UNK     1      20.176  -1.610  30.389  1.00  0.00     0.069 A 
HETATM   10  C10 UNK     1      18.598   3.148  29.637  1.00  0.00     0.304 A 
HETATM   11  C12 UNK     1      20.085  -1.423  29.008  1.00  0.00     0.039 A 
ENDROOT
BRANCH   5  12
HETATM   12  C7  UNK     1      18.369   4.012  32.055  1.00  0.00     0.262 C 
HETATM   13  O4  UNK     1      17.564   3.795  32.961  1.00  0.00    -0.267 OA
HETATM   14  N1  UNK     1      19.053   5.189  31.784  1.00  0.00    -0.320 N 
HETATM   15  H4  UNK     1      19.673   5.217  30.977  1.00  0.00     0.169 HD
BRANCH  14  16
HETATM   16  C6  UNK     1      18.982   6.413  32.491  1.00  0.00     0.068 A 
HETATM   17  C11 UNK     1      17.847   7.203  32.396  1.00  0.00     0.095 A 
HETATM   18  C14 UNK     1      17.792   8.406  33.100  1.00  0.00     0.039 A 
HETATM   19  C16 UNK     1      18.871   8.803  33.889  1.00  0.00     0.003 A 
HETATM   20  C15 UNK     1      20.007   7.998  33.975  1.00  0.00     0.002 A 
HETATM   21  C13 UNK     1      20.062   6.794  33.271  1.00  0.00     0.032 A 
BRANCH  17  22
HETATM   22  O2  UNK     1      16.782   6.833  31.630  1.00  0.00    -0.349 OA
BRANCH  22  23
HETATM   23  C17 UNK     1      15.681   7.737  31.573  1.00  0.00     0.171 C 
HETATM   24  C18 UNK     1      14.429   7.019  32.032  1.00  0.00     0.034 C 
ENDBRANCH  22  23
ENDBRANCH  17  22
ENDBRANCH  14  16
ENDBRANCH   5  12
BRANCH   9  25
HETATM   25  O3  UNK     1      20.580  -2.811  30.885  1.00  0.00    -0.356 OA
HETATM   26  C19 UNK     1      21.007  -2.841  32.246  1.00  0.00     0.210 C 
ENDBRANCH   9  25
TORSDOF 5
ENDMDL
MODEL 4
REMARK VINA RESULT:      -8.2      2.114      3.074
REMARK  5 active torsions:
REMARK  status: ('A' for Active; 'I' for Inactive)
REMARK    1  A    between atoms: C11_17  and  O2_2 
REMARK    2  A    between atoms: C17_23  and  O2_2 
REMARK    3  A    between atoms: C9_15  and  O3_3 
REMARK    4  A    between atoms: C6_12  and  N1_6 
REMARK       I    between atoms: C7_13  and  N1_6 
REMARK    5  A    between atoms: C3_9  and  C7_13 
ROOT
HETATM    1  O1  UNK     1      19.234   0.916  15.618  1.00  0.00    -0.274 OA
HETATM    2  O5  UNK     1      19.494  -0.572  13.904  1.00  0.00    -0.259 OA
HETATM    3  C1  UNK     1      19.019   0.096  17.897  1.00  0.00     0.002 A 
HETATM    4  C2  UNK     1      19.069   1.156  16.997  1.00  0.00     0.089 A 
HETATM    5  C3  UNK     1      19.294  -1.484  16.082  1.00  0.00     0.108 A 
HETATM    6  C4  UNK     1      19.137  -1.263  17.392  1.00  0.00     0.037 A 
HETATM    7  C5  UNK     1      18.854   0.374  19.257  1.00  0.00     0.051 A 
HETATM    8  C8  UNK     1      18.960   2.480  17.415  1.00  0.00     0.041 A 
HETATM    9  C9  UNK     1      18.744   1.699  19.692  1.00  0.00     0.069 A 
HETATM   10  C10 UNK     1      19.351  -0.373  15.106  1.00  0.00     0.304 A 
HETATM   11  C12 UNK     1      18.797   2.749  18.773  1.00  0.00     0.039 A 
ENDROOT
BRANCH   5  12
HETATM   12  C7  UNK     1      19.404  -2.888  15.670  1.00  0.00     0.262 C 
HETATM   13  O4  UNK     1      20.464  -3.491  15.835  1.00  0.00    -0.267 OA
HETATM   14  N1  UNK     1      18.226  -3.367  15.115  1.00  0.00    -0.320 N 
HETATM   15  H4  UNK     1      17.436  -2.731  15.027  1.00  0.00     0.169 HD
BRANCH  14  16
HETATM   16  C6  UNK     1      17.972  -4.665  14.611  1.00  0.00     0.068 A 
HETATM   17  C11 UNK     1      17.155  -5.534  15.315  1.00  0.00     0.095 A 
HETATM   18  C14 UNK     1      16.914  -6.810  14.804  1.00  0.00     0.039 A 
HETATM   19  C16 UNK     1      17.494  -7.198  13.596  1.00  0.00     0.003 A 
HETATM   20  C15 UNK     1      18.315  -6.313  12.899  1.00  0.00     0.002 A 
HETATM   21  C13 UNK     1      18.555  -5.036  13.410  1.00  0.00     0.032 A 
BRANCH  17  22
HETATM   22  O2  UNK     1      16.578  -5.173  16.496  1.00  0.00    -0.349 OA
BRANCH  22  23
HETATM   23  C17 UNK     1      15.532  -6.007  16.987  1.00  0.00     0.171 C 
HETATM   24  C18 UNK     1      15.937  -6.564  18.336  1.00  0.00     0.034 C 
ENDBRANCH  22  23
ENDBRANCH  17  22
ENDBRANCH  14  16
ENDBRANCH   5  12
BRANCH   9  25
HETATM   25  O3  UNK     1      18.585   1.965  21.017  1.00  0.00    -0.356 OA
HETATM   26  C19 UNK     1      19.770   2.132  21.792  1.00  0.00     0.210 C 
ENDBRANCH   9  25
TORSDOF 5
ENDMDL
MODEL 5
REMARK VINA RESULT:      -8.0     14.111     17.622
REMARK  5 active torsions:
REMARK  status: ('A' for Active; 'I' for Inactive)
REMARK    1  A    between atoms: C11_17  and  O2_2 
REMARK    2  A    between atoms: C17_23  and  O2_2 
REMARK    3  A    between atoms: C9_15  and  O3_3 
REMARK    4  A    between atoms: C6_12  and  N1_6 
REMARK       I    between atoms: C7_13  and  N1_6 
REMARK    5  A    between atoms: C3_9  and  C7_13 
ROOT
HETATM    1  O1  UNK     1      20.286  -1.541  29.521  1.00  0.00    -0.274 OA
HETATM    2  O5  UNK     1      19.664   0.091  28.048  1.00  0.00    -0.259 OA
HETATM    3  C1  UNK     1      19.800  -1.270  31.888  1.00  0.00     0.002 A 
HETATM    4  C2  UNK     1      20.338  -2.018  30.846  1.00  0.00     0.089 A 
HETATM    5  C3  UNK     1      19.139   0.462  30.330  1.00  0.00     0.108 A 
HETATM    6  C4  UNK     1      19.186   0.014  31.589  1.00  0.00     0.037 A 
HETATM    7  C5  UNK     1      19.871  -1.777  33.188  1.00  0.00     0.051 A 
HETATM    8  C8  UNK     1      20.943  -3.254  31.065  1.00  0.00     0.041 A 
HETATM    9  C9  UNK     1      20.474  -3.017  33.424  1.00  0.00     0.069 A 
HETATM   10  C10 UNK     1      19.704  -0.317  29.204  1.00  0.00     0.304 A 
HETATM   11  C12 UNK     1      21.008  -3.753  32.365  1.00  0.00     0.039 A 
ENDROOT
BRANCH   5  12
HETATM   12  C7  UNK     1      18.499   1.767  30.128  1.00  0.00     0.262 C 
HETATM   13  O4  UNK     1      17.548   1.868  29.353  1.00  0.00    -0.267 OA
HETATM   14  N1  UNK     1      19.094   2.766  30.885  1.00  0.00    -0.320 N 
HETATM   15  H4  UNK     1      19.894   2.526  31.467  1.00  0.00     0.169 HD
BRANCH  14  16
HETATM   16  C6  UNK     1      18.741   4.137  30.940  1.00  0.00     0.068 A 
HETATM   17  C11 UNK     1      18.009   4.621  32.012  1.00  0.00     0.095 A 
HETATM   18  C14 UNK     1      17.670   5.974  32.051  1.00  0.00     0.039 A 
HETATM   19  C16 UNK     1      18.067   6.822  31.018  1.00  0.00     0.003 A 
HETATM   20  C15 UNK     1      18.803   6.320  29.945  1.00  0.00     0.002 A 
HETATM   21  C13 UNK     1      19.143   4.967  29.906  1.00  0.00     0.032 A 
BRANCH  17  22
HETATM   22  O2  UNK     1      17.612   3.808  33.031  1.00  0.00    -0.349 OA
BRANCH  22  23
HETATM   23  C17 UNK     1      18.493   3.690  34.145  1.00  0.00     0.171 C 
HETATM   24  C18 UNK     1      18.398   2.284  34.702  1.00  0.00     0.034 C 
ENDBRANCH  22  23
ENDBRANCH  17  22
ENDBRANCH  14  16
ENDBRANCH   5  12
BRANCH   9  25
HETATM   25  O3  UNK     1      20.540  -3.508  34.692  1.00  0.00    -0.356 OA
HETATM   26  C19 UNK     1      20.509  -2.560  35.757  1.00  0.00     0.210 C 
ENDBRANCH   9  25
TORSDOF 5
ENDMDL
MODEL 6
REMARK VINA RESULT:      -7.9     23.097     24.774
REMARK  5 active torsions:
REMARK  status: ('A' for Active; 'I' for Inactive)
REMARK    1  A    between atoms: C11_17  and  O2_2 
REMARK    2  A    between atoms: C17_23  and  O2_2 
REMARK    3  A    between atoms: C9_15  and  O3_3 
REMARK    4  A    between atoms: C6_12  and  N1_6 
REMARK       I    between atoms: C7_13  and  N1_6 
REMARK    5  A    between atoms: C3_9  and  C7_13 
ROOT
HETATM    1  O1  UNK     1      27.891  -4.971  38.684  1.00  0.00    -0.274 OA
HETATM    2  O5  UNK     1      25.732  -5.716  38.748  1.00  0.00    -0.259 OA
HETATM    3  C1  UNK     1      29.705  -6.569  38.423  1.00  0.00     0.002 A 
HETATM    4  C2  UNK     1      29.266  -5.258  38.573  1.00  0.00     0.089 A 
HETATM    5  C3  UNK     1      27.417  -7.362  38.491  1.00  0.00     0.108 A 
HETATM    6  C4  UNK     1      28.721  -7.640  38.385  1.00  0.00     0.037 A 
HETATM    7  C5  UNK     1      31.076  -6.814  38.316  1.00  0.00     0.051 A 
HETATM    8  C8  UNK     1      30.156  -4.187  38.620  1.00  0.00     0.041 A 
HETATM    9  C9  UNK     1      31.982  -5.749  38.360  1.00  0.00     0.069 A 
HETATM   10  C10 UNK     1      26.927  -5.974  38.650  1.00  0.00     0.304 A 
HETATM   11  C12 UNK     1      31.522  -4.439  38.512  1.00  0.00     0.039 A 
ENDROOT
BRANCH   5  12
HETATM   12  C7  UNK     1      26.502  -8.509  38.440  1.00  0.00     0.262 C 
HETATM   13  O4  UNK     1      26.253  -9.137  39.468  1.00  0.00    -0.267 OA
HETATM   14  N1  UNK     1      26.019  -8.738  37.159  1.00  0.00    -0.320 N 
HETATM   15  H4  UNK     1      26.341  -8.138  36.403  1.00  0.00     0.169 HD
BRANCH  14  16
HETATM   16  C6  UNK     1      25.124  -9.753  36.742  1.00  0.00     0.068 A 
HETATM   17  C11 UNK     1      23.762  -9.502  36.703  1.00  0.00     0.095 A 
HETATM   18  C14 UNK     1      22.894 -10.512  36.288  1.00  0.00     0.039 A 
HETATM   19  C16 UNK     1      23.399 -11.758  35.918  1.00  0.00     0.003 A 
HETATM   20  C15 UNK     1      24.772 -11.996  35.964  1.00  0.00     0.002 A 
HETATM   21  C13 UNK     1      25.641 -10.986  36.377  1.00  0.00     0.032 A 
BRANCH  17  22
HETATM   22  O2  UNK     1      23.249  -8.291  37.059  1.00  0.00    -0.349 OA
BRANCH  22  23
HETATM   23  C17 UNK     1      22.219  -8.289  38.045  1.00  0.00     0.171 C 
HETATM   24  C18 UNK     1      22.847  -8.125  39.413  1.00  0.00     0.034 C 
ENDBRANCH  22  23
ENDBRANCH  17  22
ENDBRANCH  14  16
ENDBRANCH   5  12
BRANCH   9  25
HETATM   25  O3  UNK     1      33.317  -5.991  38.255  1.00  0.00    -0.356 OA
HETATM   26  C19 UNK     1      33.709  -7.195  37.599  1.00  0.00     0.210 C 
ENDBRANCH   9  25
TORSDOF 5
ENDMDL
MODEL 7
REMARK VINA RESULT:      -7.9     17.529     22.068
REMARK  5 active torsions:
REMARK  status: ('A' for Active; 'I' for Inactive)
REMARK    1  A    between atoms: C11_17  and  O2_2 
REMARK    2  A    between atoms: C17_23  and  O2_2 
REMARK    3  A    between atoms: C9_15  and  O3_3 
REMARK    4  A    between atoms: C6_12  and  N1_6 
REMARK       I    between atoms: C7_13  and  N1_6 
REMARK    5  A    between atoms: C3_9  and  C7_13 
ROOT
HETATM    1  O1  UNK     1      18.498  -7.613  36.689  1.00  0.00    -0.274 OA
HETATM    2  O5  UNK     1      17.336  -5.658  36.910  1.00  0.00    -0.259 OA
HETATM    3  C1  UNK     1      20.929  -7.573  36.712  1.00  0.00     0.002 A 
HETATM    4  C2  UNK     1      19.736  -8.282  36.619  1.00  0.00     0.089 A 
HETATM    5  C3  UNK     1      19.700  -5.499  36.946  1.00  0.00     0.108 A 
HETATM    6  C4  UNK     1      20.879  -6.129  36.880  1.00  0.00     0.037 A 
HETATM    7  C5  UNK     1      22.137  -8.272  36.638  1.00  0.00     0.051 A 
HETATM    8  C8  UNK     1      19.715  -9.665  36.454  1.00  0.00     0.041 A 
HETATM    9  C9  UNK     1      22.132  -9.661  36.474  1.00  0.00     0.069 A 
HETATM   10  C10 UNK     1      18.418  -6.233  36.851  1.00  0.00     0.304 A 
HETATM   11  C12 UNK     1      20.923 -10.356  36.383  1.00  0.00     0.039 A 
ENDROOT
BRANCH   5  12
HETATM   12  C7  UNK     1      19.752  -4.042  37.118  1.00  0.00     0.262 C 
HETATM   13  O4  UNK     1      20.654  -3.538  37.786  1.00  0.00    -0.267 OA
HETATM   14  N1  UNK     1      18.711  -3.400  36.463  1.00  0.00    -0.320 N 
HETATM   15  H4  UNK     1      18.026  -3.965  35.965  1.00  0.00     0.169 HD
BRANCH  14  16
HETATM   16  C6  UNK     1      18.447  -2.009  36.414  1.00  0.00     0.068 A 
HETATM   17  C11 UNK     1      18.888  -1.258  35.336  1.00  0.00     0.095 A 
HETATM   18  C14 UNK     1      18.620   0.110  35.303  1.00  0.00     0.039 A 
HETATM   19  C16 UNK     1      17.914   0.708  36.346  1.00  0.00     0.003 A 
HETATM   20  C15 UNK     1      17.477  -0.061  37.424  1.00  0.00     0.002 A 
HETATM   21  C13 UNK     1      17.744  -1.430  37.458  1.00  0.00     0.032 A 
BRANCH  17  22
HETATM   22  O2  UNK     1      19.579  -1.824  34.307  1.00  0.00    -0.349 OA
BRANCH  22  23
HETATM   23  C17 UNK     1      19.182  -1.466  32.986  1.00  0.00     0.171 C 
HETATM   24  C18 UNK     1      20.255  -1.903  32.012  1.00  0.00     0.034 C 
ENDBRANCH  22  23
ENDBRANCH  17  22
ENDBRANCH  14  16
ENDBRANCH   5  12
BRANCH   9  25
HETATM   25  O3  UNK     1      23.310 -10.339  36.404  1.00  0.00    -0.356 OA
HETATM   26  C19 UNK     1      23.314 -11.558  35.663  1.00  0.00     0.210 C 
ENDBRANCH   9  25
TORSDOF 5
ENDMDL
MODEL 8
REMARK VINA RESULT:      -7.9     16.168     20.789
REMARK  5 active torsions:
REMARK  status: ('A' for Active; 'I' for Inactive)
REMARK    1  A    between atoms: C11_17  and  O2_2 
REMARK    2  A    between atoms: C17_23  and  O2_2 
REMARK    3  A    between atoms: C9_15  and  O3_3 
REMARK    4  A    between atoms: C6_12  and  N1_6 
REMARK       I    between atoms: C7_13  and  N1_6 
REMARK    5  A    between atoms: C3_9  and  C7_13 
ROOT
HETATM    1  O1  UNK     1      18.383  -0.522  36.837  1.00  0.00    -0.274 OA
HETATM    2  O5  UNK     1      18.792  -1.984  38.544  1.00  0.00    -0.259 OA
HETATM    3  C1  UNK     1      19.057  -1.101  34.573  1.00  0.00     0.002 A 
HETATM    4  C2  UNK     1      18.471  -0.209  35.466  1.00  0.00     0.089 A 
HETATM    5  C3  UNK     1      19.492  -2.653  36.381  1.00  0.00     0.108 A 
HETATM    6  C4  UNK     1      19.578  -2.362  35.079  1.00  0.00     0.037 A 
HETATM    7  C5  UNK     1      19.126  -0.755  33.222  1.00  0.00     0.051 A 
HETATM    8  C8  UNK     1      17.955   1.015  35.047  1.00  0.00     0.041 A 
HETATM    9  C9  UNK     1      18.610   0.470  32.786  1.00  0.00     0.069 A 
HETATM   10  C10 UNK     1      18.873  -1.720  37.349  1.00  0.00     0.304 A 
HETATM   11  C12 UNK     1      18.026   1.353  33.697  1.00  0.00     0.039 A 
ENDROOT
BRANCH   5  12
HETATM   12  C7  UNK     1      20.046  -3.948  36.795  1.00  0.00     0.262 C 
HETATM   13  O4  UNK     1      21.265  -4.106  36.835  1.00  0.00    -0.267 OA
HETATM   14  N1  UNK     1      19.053  -4.870  37.099  1.00  0.00    -0.320 N 
HETATM   15  H4  UNK     1      18.080  -4.590  36.993  1.00  0.00     0.169 HD
BRANCH  14  16
HETATM   16  C6  UNK     1      19.219  -6.209  37.527  1.00  0.00     0.068 A 
HETATM   17  C11 UNK     1      18.849  -7.253  36.695  1.00  0.00     0.095 A 
HETATM   18  C14 UNK     1      19.020  -8.567  37.131  1.00  0.00     0.039 A 
HETATM   19  C16 UNK     1      19.558  -8.819  38.393  1.00  0.00     0.003 A 
HETATM   20  C15 UNK     1      19.925  -7.757  39.220  1.00  0.00     0.002 A 
HETATM   21  C13 UNK     1      19.756  -6.443  38.783  1.00  0.00     0.032 A 
BRANCH  17  22
HETATM   22  O2  UNK     1      18.322  -7.028  35.458  1.00  0.00    -0.349 OA
BRANCH  22  23
HETATM   23  C17 UNK     1      17.142  -7.751  35.116  1.00  0.00     0.171 C 
HETATM   24  C18 UNK     1      15.937  -6.860  35.334  1.00  0.00     0.034 C 
ENDBRANCH  22  23
ENDBRANCH  17  22
ENDBRANCH  14  16
ENDBRANCH   5  12
BRANCH   9  25
HETATM   25  O3  UNK     1      18.678   0.803  31.468  1.00  0.00    -0.356 OA
HETATM   26  C19 UNK     1      19.718   0.201  30.699  1.00  0.00     0.210 C 
ENDBRANCH   9  25
TORSDOF 5
ENDMDL
MODEL 9
REMARK VINA RESULT:      -7.9     16.425     18.796
REMARK  5 active torsions:
REMARK  status: ('A' for Active; 'I' for Inactive)
REMARK    1  A    between atoms: C11_17  and  O2_2 
REMARK    2  A    between atoms: C17_23  and  O2_2 
REMARK    3  A    between atoms: C9_15  and  O3_3 
REMARK    4  A    between atoms: C6_12  and  N1_6 
REMARK       I    between atoms: C7_13  and  N1_6 
REMARK    5  A    between atoms: C3_9  and  C7_13 
ROOT
HETATM    1  O1  UNK     1      18.908   2.587  30.926  1.00  0.00    -0.274 OA
HETATM    2  O5  UNK     1      18.810   0.360  31.429  1.00  0.00    -0.259 OA
HETATM    3  C1  UNK     1      18.250   4.225  32.597  1.00  0.00     0.002 A 
HETATM    4  C2  UNK     1      18.717   3.925  31.321  1.00  0.00     0.089 A 
HETATM    5  C3  UNK     1      18.143   1.866  33.134  1.00  0.00     0.108 A 
HETATM    6  C4  UNK     1      17.960   3.135  33.515  1.00  0.00     0.037 A 
HETATM    7  C5  UNK     1      18.072   5.565  32.953  1.00  0.00     0.051 A 
HETATM    8  C8  UNK     1      19.011   4.923  30.395  1.00  0.00     0.041 A 
HETATM    9  C9  UNK     1      18.364   6.577  32.033  1.00  0.00     0.069 A 
HETATM   10  C10 UNK     1      18.641   1.522  31.782  1.00  0.00     0.304 A 
HETATM   11  C12 UNK     1      18.833   6.256  30.757  1.00  0.00     0.039 A 
ENDROOT
BRANCH   5  12
HETATM   12  C7  UNK     1      17.824   0.836  34.130  1.00  0.00     0.262 C 
HETATM   13  O4  UNK     1      16.652   0.519  34.326  1.00  0.00    -0.267 OA
HETATM   14  N1  UNK     1      18.961   0.335  34.749  1.00  0.00    -0.320 N 
HETATM   15  H4  UNK     1      19.867   0.720  34.489  1.00  0.00     0.169 HD
BRANCH  14  16
HETATM   16  C6  UNK     1      19.031  -0.660  35.754  1.00  0.00     0.068 A 
HETATM   17  C11 UNK     1      19.924  -1.711  35.627  1.00  0.00     0.095 A 
HETATM   18  C14 UNK     1      19.982  -2.683  36.626  1.00  0.00     0.039 A 
HETATM   19  C16 UNK     1      19.145  -2.591  37.737  1.00  0.00     0.003 A 
HETATM   20  C15 UNK     1      18.250  -1.527  37.851  1.00  0.00     0.002 A 
HETATM   21  C13 UNK     1      18.193  -0.555  36.852  1.00  0.00     0.032 A 
BRANCH  17  22
HETATM   22  O2  UNK     1      20.751  -1.819  34.548  1.00  0.00    -0.349 OA
BRANCH  22  23
HETATM   23  C17 UNK     1      20.412  -2.796  33.568  1.00  0.00     0.171 C 
HETATM   24  C18 UNK     1      20.828  -2.289  32.202  1.00  0.00     0.034 C 
ENDBRANCH  22  23
ENDBRANCH  17  22
ENDBRANCH  14  16
ENDBRANCH   5  12
BRANCH   9  25
HETATM   25  O3  UNK     1      18.192   7.881  32.383  1.00  0.00    -0.356 OA
HETATM   26  C19 UNK     1      17.679   8.140  33.688  1.00  0.00     0.210 C 
ENDBRANCH   9  25
TORSDOF 5
ENDMDL
MODEL 10
REMARK VINA RESULT:      -7.9     15.963     18.898
REMARK  5 active torsions:
REMARK  status: ('A' for Active; 'I' for Inactive)
REMARK    1  A    between atoms: C11_17  and  O2_2 
REMARK    2  A    between atoms: C17_23  and  O2_2 
REMARK    3  A    between atoms: C9_15  and  O3_3 
REMARK    4  A    between atoms: C6_12  and  N1_6 
REMARK       I    between atoms: C7_13  and  N1_6 
REMARK    5  A    between atoms: C3_9  and  C7_13 
ROOT
HETATM    1  O1  UNK     1      19.232   2.411  30.227  1.00  0.00    -0.274 OA
HETATM    2  O5  UNK     1      19.447   0.149  30.459  1.00  0.00    -0.259 OA
HETATM    3  C1  UNK     1      18.361   3.730  32.075  1.00  0.00     0.002 A 
HETATM    4  C2  UNK     1      18.859   3.653  30.778  1.00  0.00     0.089 A 
HETATM    5  C3  UNK     1      18.587   1.331  32.324  1.00  0.00     0.108 A 
HETATM    6  C4  UNK     1      18.231   2.507  32.852  1.00  0.00     0.037 A 
HETATM    7  C5  UNK     1      18.001   4.979  32.586  1.00  0.00     0.051 A 
HETATM    8  C8  UNK     1      19.005   4.786  29.980  1.00  0.00     0.041 A 
HETATM    9  C9  UNK     1      18.144   6.125  31.797  1.00  0.00     0.069 A 
HETATM   10  C10 UNK     1      19.120   1.225  30.947  1.00  0.00     0.304 A 
HETATM   11  C12 UNK     1      18.645   6.028  30.497  1.00  0.00     0.039 A 
ENDROOT
BRANCH   5  12
HETATM   12  C7  UNK     1      18.420   0.155  33.186  1.00  0.00     0.262 C 
HETATM   13  O4  UNK     1      17.871  -0.853  32.744  1.00  0.00    -0.267 OA
HETATM   14  N1  UNK     1      18.935   0.360  34.458  1.00  0.00    -0.320 N 
HETATM   15  H4  UNK     1      19.342   1.266  34.679  1.00  0.00     0.169 HD
BRANCH  14  16
HETATM   16  C6  UNK     1      18.947  -0.550  35.543  1.00  0.00     0.068 A 
HETATM   17  C11 UNK     1      18.203  -0.281  36.681  1.00  0.00     0.095 A 
HETATM   18  C14 UNK     1      18.224  -1.188  37.741  1.00  0.00     0.039 A 
HETATM   19  C16 UNK     1      18.988  -2.351  37.648  1.00  0.00     0.003 A 
HETATM   20  C15 UNK     1      19.732  -2.608  36.497  1.00  0.00     0.002 A 
HETATM   21  C13 UNK     1      19.710  -1.701  35.437  1.00  0.00     0.032 A 
BRANCH  17  22
HETATM   22  O2  UNK     1      17.449   0.850  36.790  1.00  0.00    -0.349 OA
BRANCH  22  23
HETATM   23  C17 UNK     1      16.035   0.683  36.836  1.00  0.00     0.171 C 
HETATM   24  C18 UNK     1      15.544   0.259  35.467  1.00  0.00     0.034 C 
ENDBRANCH  22  23
ENDBRANCH  17  22
ENDBRANCH  14  16
ENDBRANCH   5  12
BRANCH   9  25
HETATM   25  O3  UNK     1      17.793   7.341  32.299  1.00  0.00    -0.356 OA
HETATM   26  C19 UNK     1      18.546   7.827  33.408  1.00  0.00     0.210 C 
ENDBRANCH   9  25
TORSDOF 5
ENDMDL
