MODEL 1
REMARK VINA RESULT:      -9.2      0.000      0.000
REMARK  6 active torsions:
REMARK  status: ('A' for Active; 'I' for Inactive)
REMARK    1  A    between atoms: C11_20  and  O2_2 
REMARK    2  A    between atoms: C14_23  and  O2_2 
REMARK    3  A    between atoms: C15_24  and  N1_8 
REMARK    4  A    between atoms: C18_27  and  N2_9 
REMARK    5  A    between atoms: C1_10  and  C3_12 
REMARK    6  A    between atoms: C3_12  and  C6_15 
ROOT
HETATM    1  O1  UNK     1      22.398  -6.943  37.685  1.00  0.00    -0.274 OA
HETATM    2  O3  UNK     1      23.519  -8.916  37.730  1.00  0.00    -0.259 OA
HETATM    3  C1  UNK     1      21.232  -9.017  37.071  1.00  0.00     0.024 A 
HETATM    4  C2  UNK     1      20.077  -8.347  36.875  1.00  0.00    -0.037 A 
HETATM    5  C4  UNK     1      20.050  -6.880  37.049  1.00  0.00     0.005 A 
HETATM    6  C5  UNK     1      21.213  -6.229  37.450  1.00  0.00     0.092 A 
HETATM    7  C7  UNK     1      22.471  -8.314  37.514  1.00  0.00     0.295 A 
HETATM    8  C8  UNK     1      18.916  -6.084  36.823  1.00  0.00     0.017 A 
HETATM    9  C9  UNK     1      18.777  -9.013  36.495  1.00  0.00     0.050 C 
HETATM   10  C10 UNK     1      21.274  -4.845  37.637  1.00  0.00     0.075 A 
HETATM   11  C11 UNK     1      20.137  -4.078  37.414  1.00  0.00     0.079 A 
HETATM   12  C12 UNK     1      18.959  -4.696  37.006  1.00  0.00     0.038 A 
ENDROOT
BRANCH  11  13
HETATM   13  O2  UNK     1      20.177  -2.729  37.591  1.00  0.00    -0.308 OA
BRANCH  13  14
HETATM   14  C14 UNK     1      19.317  -1.955  36.830  1.00  0.00     0.109 A 
HETATM   15  C15 UNK     1      19.572  -1.743  35.487  1.00  0.00     0.139 A 
HETATM   16  C17 UNK     1      18.692  -0.956  34.742  1.00  0.00     0.075 A 
HETATM   17  C18 UNK     1      17.570  -0.396  35.353  1.00  0.00     0.105 A 
HETATM   18  C19 UNK     1      17.328  -0.620  36.708  1.00  0.00     0.039 A 
HETATM   19  C16 UNK     1      18.209  -1.406  37.453  1.00  0.00     0.042 A 
BRANCH  15  20
HETATM   20  N1  UNK     1      20.711  -2.307  34.848  1.00  0.00    -0.113 N 
HETATM   21  O4  UNK     1      21.845  -1.841  35.110  1.00  0.00    -0.532 OA
HETATM   22  O5  UNK     1      20.546  -3.252  34.041  1.00  0.00    -0.532 OA
ENDBRANCH  15  20
BRANCH  17  23
HETATM   23  N2  UNK     1      16.675   0.404  34.595  1.00  0.00    -0.116 N 
HETATM   24  O6  UNK     1      15.440   0.247  34.751  1.00  0.00    -0.532 OA
HETATM   25  O7  UNK     1      17.142   1.245  33.790  1.00  0.00    -0.532 OA
ENDBRANCH  17  23
ENDBRANCH  13  14
ENDBRANCH  11  13
BRANCH   3  26
HETATM   26  C3  UNK     1      21.413 -10.500  36.868  1.00  0.00     0.045 C 
BRANCH  26  27
HETATM   27  C6  UNK     1      21.973 -10.805  35.486  1.00  0.00     0.000 C 
HETATM   28  C13 UNK     1      23.269 -11.593  35.589  1.00  0.00     0.005 C 
ENDBRANCH  26  27
ENDBRANCH   3  26
TORSDOF 6
ENDMDL
MODEL 2
REMARK VINA RESULT:      -8.7      8.953     14.357
REMARK  6 active torsions:
REMARK  status: ('A' for Active; 'I' for Inactive)
REMARK    1  A    between atoms: C11_20  and  O2_2 
REMARK    2  A    between atoms: C14_23  and  O2_2 
REMARK    3  A    between atoms: C15_24  and  N1_8 
REMARK    4  A    between atoms: C18_27  and  N2_9 
REMARK    5  A    between atoms: C1_10  and  C3_12 
REMARK    6  A    between atoms: C3_12  and  C6_15 
ROOT
HETATM    1  O1  UNK     1      15.539   8.346  34.370  1.00  0.00    -0.274 OA
HETATM    2  O3  UNK     1      14.142  10.129  34.528  1.00  0.00    -0.259 OA
HETATM    3  C1  UNK     1      16.447  10.622  34.182  1.00  0.00     0.024 A 
HETATM    4  C2  UNK     1      17.702  10.144  34.048  1.00  0.00    -0.037 A 
HETATM    5  C4  UNK     1      17.925   8.683  34.032  1.00  0.00     0.005 A 
HETATM    6  C5  UNK     1      16.834   7.835  34.195  1.00  0.00     0.092 A 
HETATM    7  C7  UNK     1      15.284   9.707  34.370  1.00  0.00     0.295 A 
HETATM    8  C8  UNK     1      19.181   8.083  33.849  1.00  0.00     0.017 A 
HETATM    9  C9  UNK     1      18.924  11.022  33.924  1.00  0.00     0.050 C 
HETATM   10  C10 UNK     1      16.956   6.443  34.192  1.00  0.00     0.075 A 
HETATM   11  C11 UNK     1      18.211   5.871  34.017  1.00  0.00     0.079 A 
HETATM   12  C12 UNK     1      19.322   6.690  33.844  1.00  0.00     0.038 A 
ENDROOT
BRANCH  11  13
HETATM   13  O2  UNK     1      18.351   4.518  34.011  1.00  0.00    -0.308 OA
BRANCH  13  14
HETATM   14  C14 UNK     1      18.403   3.881  32.782  1.00  0.00     0.109 A 
HETATM   15  C15 UNK     1      18.238   2.510  32.700  1.00  0.00     0.139 A 
HETATM   16  C17 UNK     1      18.297   1.890  31.451  1.00  0.00     0.075 A 
HETATM   17  C18 UNK     1      18.519   2.653  30.304  1.00  0.00     0.105 A 
HETATM   18  C19 UNK     1      18.683   4.034  30.406  1.00  0.00     0.039 A 
HETATM   19  C16 UNK     1      18.625   4.653  31.655  1.00  0.00     0.042 A 
BRANCH  15  20
HETATM   20  N1  UNK     1      18.011   1.717  33.858  1.00  0.00    -0.113 N 
HETATM   21  O4  UNK     1      18.959   1.522  34.655  1.00  0.00    -0.532 OA
HETATM   22  O5  UNK     1      16.868   1.235  34.048  1.00  0.00    -0.532 OA
ENDBRANCH  15  20
BRANCH  17  23
HETATM   23  N2  UNK     1      18.579   2.023  29.033  1.00  0.00    -0.116 N 
HETATM   24  O6  UNK     1      19.312   1.015  28.889  1.00  0.00    -0.532 OA
HETATM   25  O7  UNK     1      17.897   2.490  28.089  1.00  0.00    -0.532 OA
ENDBRANCH  17  23
ENDBRANCH  13  14
ENDBRANCH  11  13
BRANCH   3  26
HETATM   26  C3  UNK     1      16.073  12.083  34.151  1.00  0.00     0.045 C 
BRANCH  26  27
HETATM   27  C6  UNK     1      16.316  12.745  35.499  1.00  0.00     0.000 C 
HETATM   28  C13 UNK     1      14.999  13.096  36.175  1.00  0.00     0.005 C 
ENDBRANCH  26  27
ENDBRANCH   3  26
TORSDOF 6
ENDMDL
MODEL 3
REMARK VINA RESULT:      -8.5      1.776      2.503
REMARK  6 active torsions:
REMARK  status: ('A' for Active; 'I' for Inactive)
REMARK    1  A    between atoms: C11_20  and  O2_2 
REMARK    2  A    between atoms: C14_23  and  O2_2 
REMARK    3  A    between atoms: C15_24  and  N1_8 
REMARK    4  A    between atoms: C18_27  and  N2_9 
REMARK    5  A    between atoms: C1_10  and  C3_12 
REMARK    6  A    between atoms: C3_12  and  C6_15 
ROOT
HETATM    1  O1  UNK     1      18.819  -7.030  36.107  1.00  0.00    -0.274 OA
HETATM    2  O3  UNK     1      17.856  -9.085  36.130  1.00  0.00    -0.259 OA
HETATM    3  C1  UNK     1      19.430  -8.640  37.861  1.00  0.00     0.024 A 
HETATM    4  C2  UNK     1      20.314  -7.770  38.394  1.00  0.00    -0.037 A 
HETATM    5  C4  UNK     1      20.461  -6.426  37.798  1.00  0.00     0.005 A 
HETATM    6  C5  UNK     1      19.708  -6.104  36.673  1.00  0.00     0.092 A 
HETATM    7  C7  UNK     1      18.637  -8.292  36.646  1.00  0.00     0.295 A 
HETATM    8  C8  UNK     1      21.313  -5.432  38.304  1.00  0.00     0.017 A 
HETATM    9  C9  UNK     1      21.194  -8.091  39.578  1.00  0.00     0.050 C 
HETATM   10  C10 UNK     1      19.786  -4.857  36.047  1.00  0.00     0.075 A 
HETATM   11  C11 UNK     1      20.642  -3.890  36.562  1.00  0.00     0.079 A 
HETATM   12  C12 UNK     1      21.404  -4.177  37.690  1.00  0.00     0.038 A 
ENDROOT
BRANCH  11  13
HETATM   13  O2  UNK     1      20.732  -2.670  35.968  1.00  0.00    -0.308 OA
BRANCH  13  14
HETATM   14  C14 UNK     1      19.566  -1.936  35.822  1.00  0.00     0.109 A 
HETATM   15  C15 UNK     1      19.141  -1.545  34.564  1.00  0.00     0.139 A 
HETATM   16  C17 UNK     1      17.965  -0.805  34.443  1.00  0.00     0.075 A 
HETATM   17  C18 UNK     1      17.231  -0.470  35.582  1.00  0.00     0.105 A 
HETATM   18  C19 UNK     1      17.674  -0.874  36.841  1.00  0.00     0.039 A 
HETATM   19  C16 UNK     1      18.851  -1.613  36.962  1.00  0.00     0.042 A 
BRANCH  15  20
HETATM   20  N1  UNK     1      19.877  -1.877  33.393  1.00  0.00    -0.113 N 
HETATM   21  O4  UNK     1      19.339  -1.714  32.273  1.00  0.00    -0.532 OA
HETATM   22  O5  UNK     1      21.042  -2.325  33.517  1.00  0.00    -0.532 OA
ENDBRANCH  15  20
BRANCH  17  23
HETATM   23  N2  UNK     1      16.033   0.283  35.458  1.00  0.00    -0.116 N 
HETATM   24  O6  UNK     1      15.635   0.607  34.313  1.00  0.00    -0.532 OA
HETATM   25  O7  UNK     1      15.405   0.603  36.496  1.00  0.00    -0.532 OA
ENDBRANCH  17  23
ENDBRANCH  13  14
ENDBRANCH  11  13
BRANCH   3  26
HETATM   26  C3  UNK     1      19.137 -10.014  38.407  1.00  0.00     0.045 C 
BRANCH  26  27
HETATM   27  C6  UNK     1      19.699 -11.101  37.502  1.00  0.00     0.000 C 
HETATM   28  C13 UNK     1      21.135 -10.790  37.110  1.00  0.00     0.005 C 
ENDBRANCH  26  27
ENDBRANCH   3  26
TORSDOF 6
ENDMDL
MODEL 4
REMARK VINA RESULT:      -8.4      6.100     10.060
REMARK  6 active torsions:
REMARK  status: ('A' for Active; 'I' for Inactive)
REMARK    1  A    between atoms: C11_20  and  O2_2 
REMARK    2  A    between atoms: C14_23  and  O2_2 
REMARK    3  A    between atoms: C15_24  and  N1_8 
REMARK    4  A    between atoms: C18_27  and  N2_9 
REMARK    5  A    between atoms: C1_10  and  C3_12 
REMARK    6  A    between atoms: C3_12  and  C6_15 
ROOT
HETATM    1  O1  UNK     1      18.236   2.668  35.398  1.00  0.00    -0.274 OA
HETATM    2  O3  UNK     1      18.321   1.455  37.315  1.00  0.00    -0.259 OA
HETATM    3  C1  UNK     1      18.475   0.225  35.280  1.00  0.00     0.024 A 
HETATM    4  C2  UNK     1      18.459   0.257  33.931  1.00  0.00    -0.037 A 
HETATM    5  C4  UNK     1      18.364   1.558  33.237  1.00  0.00     0.005 A 
HETATM    6  C5  UNK     1      18.255   2.719  33.996  1.00  0.00     0.092 A 
HETATM    7  C7  UNK     1      18.344   1.472  36.087  1.00  0.00     0.295 A 
HETATM    8  C8  UNK     1      18.388   1.706  31.841  1.00  0.00     0.017 A 
HETATM    9  C9  UNK     1      18.518  -0.977  33.063  1.00  0.00     0.050 C 
HETATM   10  C10 UNK     1      18.160   3.989  33.420  1.00  0.00     0.075 A 
HETATM   11  C11 UNK     1      18.179   4.111  32.036  1.00  0.00     0.079 A 
HETATM   12  C12 UNK     1      18.295   2.970  31.247  1.00  0.00     0.038 A 
ENDROOT
BRANCH  11  13
HETATM   13  O2  UNK     1      18.090   5.338  31.456  1.00  0.00    -0.308 OA
BRANCH  13  14
HETATM   14  C14 UNK     1      18.505   6.432  32.195  1.00  0.00     0.109 A 
HETATM   15  C15 UNK     1      17.662   7.515  32.373  1.00  0.00     0.139 A 
HETATM   16  C17 UNK     1      18.104   8.607  33.120  1.00  0.00     0.075 A 
HETATM   17  C18 UNK     1      19.382   8.598  33.680  1.00  0.00     0.105 A 
HETATM   18  C19 UNK     1      20.218   7.498  33.491  1.00  0.00     0.039 A 
HETATM   19  C16 UNK     1      19.777   6.406  32.743  1.00  0.00     0.042 A 
BRANCH  15  20
HETATM   20  N1  UNK     1      16.356   7.541  31.810  1.00  0.00    -0.113 N 
HETATM   21  O4  UNK     1      15.459   6.834  32.326  1.00  0.00    -0.532 OA
HETATM   22  O5  UNK     1      16.142   8.271  30.813  1.00  0.00    -0.532 OA
ENDBRANCH  15  20
BRANCH  17  23
HETATM   23  N2  UNK     1      19.831   9.709  34.441  1.00  0.00    -0.116 N 
HETATM   24  O6  UNK     1      19.084  10.710  34.553  1.00  0.00    -0.532 OA
HETATM   25  O7  UNK     1      20.963   9.660  34.980  1.00  0.00    -0.532 OA
ENDBRANCH  17  23
ENDBRANCH  13  14
ENDBRANCH  11  13
BRANCH   3  26
HETATM   26  C3  UNK     1      18.631  -1.024  36.111  1.00  0.00     0.045 C 
BRANCH  26  27
HETATM   27  C6  UNK     1      20.048  -1.572  36.027  1.00  0.00     0.000 C 
HETATM   28  C13 UNK     1      20.049  -3.090  36.120  1.00  0.00     0.005 C 
ENDBRANCH  26  27
ENDBRANCH   3  26
TORSDOF 6
ENDMDL
MODEL 5
REMARK VINA RESULT:      -8.3      6.036      9.025
REMARK  6 active torsions:
REMARK  status: ('A' for Active; 'I' for Inactive)
REMARK    1  A    between atoms: C11_20  and  O2_2 
REMARK    2  A    between atoms: C14_23  and  O2_2 
REMARK    3  A    between atoms: C15_24  and  N1_8 
REMARK    4  A    between atoms: C18_27  and  N2_9 
REMARK    5  A    between atoms: C1_10  and  C3_12 
REMARK    6  A    between atoms: C3_12  and  C6_15 
ROOT
HETATM    1  O1  UNK     1      23.239  -7.819  37.808  1.00  0.00    -0.274 OA
HETATM    2  O3  UNK     1      21.121  -7.005  37.868  1.00  0.00    -0.259 OA
HETATM    3  C1  UNK     1      21.445  -9.014  36.629  1.00  0.00     0.024 A 
HETATM    4  C2  UNK     1      22.316  -9.939  36.175  1.00  0.00    -0.037 A 
HETATM    5  C4  UNK     1      23.737  -9.854  36.570  1.00  0.00     0.005 A 
HETATM    6  C5  UNK     1      24.150  -8.794  37.373  1.00  0.00     0.092 A 
HETATM    7  C7  UNK     1      21.897  -7.873  37.477  1.00  0.00     0.295 A 
HETATM    8  C8  UNK     1      24.714 -10.790  36.195  1.00  0.00     0.017 A 
HETATM    9  C9  UNK     1      21.931 -11.074  35.258  1.00  0.00     0.050 C 
HETATM   10  C10 UNK     1      25.473  -8.638  37.792  1.00  0.00     0.075 A 
HETATM   11  C11 UNK     1      26.425  -9.573  37.402  1.00  0.00     0.079 A 
HETATM   12  C12 UNK     1      26.045 -10.649  36.605  1.00  0.00     0.038 A 
ENDROOT
BRANCH  11  13
HETATM   13  O2  UNK     1      27.719  -9.440  37.800  1.00  0.00    -0.308 OA
BRANCH  13  14
HETATM   14  C14 UNK     1      28.199  -8.159  38.014  1.00  0.00     0.109 A 
HETATM   15  C15 UNK     1      28.864  -7.485  37.004  1.00  0.00     0.139 A 
HETATM   16  C17 UNK     1      29.340  -6.196  37.245  1.00  0.00     0.075 A 
HETATM   17  C18 UNK     1      29.142  -5.600  38.490  1.00  0.00     0.105 A 
HETATM   18  C19 UNK     1      28.468  -6.293  39.496  1.00  0.00     0.039 A 
HETATM   19  C16 UNK     1      27.993  -7.582  39.256  1.00  0.00     0.042 A 
BRANCH  15  20
HETATM   20  N1  UNK     1      29.075  -8.078  35.729  1.00  0.00    -0.113 N 
HETATM   21  O4  UNK     1      28.217  -7.907  34.832  1.00  0.00    -0.532 OA
HETATM   22  O5  UNK     1      30.115  -8.754  35.540  1.00  0.00    -0.532 OA
ENDBRANCH  15  20
BRANCH  17  23
HETATM   23  N2  UNK     1      29.626  -4.288  38.734  1.00  0.00    -0.116 N 
HETATM   24  O6  UNK     1      29.526  -3.809  39.889  1.00  0.00    -0.532 OA
HETATM   25  O7  UNK     1      30.140  -3.643  37.789  1.00  0.00    -0.532 OA
ENDBRANCH  17  23
ENDBRANCH  13  14
ENDBRANCH  11  13
BRANCH   3  26
HETATM   26  C3  UNK     1      19.962  -9.019  36.355  1.00  0.00     0.045 C 
BRANCH  26  27
HETATM   27  C6  UNK     1      19.171  -9.417  37.593  1.00  0.00     0.000 C 
HETATM   28  C13 UNK     1      19.540 -10.822  38.042  1.00  0.00     0.005 C 
ENDBRANCH  26  27
ENDBRANCH   3  26
TORSDOF 6
ENDMDL
MODEL 6
REMARK VINA RESULT:      -8.3      2.352      3.684
REMARK  6 active torsions:
REMARK  status: ('A' for Active; 'I' for Inactive)
REMARK    1  A    between atoms: C11_20  and  O2_2 
REMARK    2  A    between atoms: C14_23  and  O2_2 
REMARK    3  A    between atoms: C15_24  and  N1_8 
REMARK    4  A    between atoms: C18_27  and  N2_9 
REMARK    5  A    between atoms: C1_10  and  C3_12 
REMARK    6  A    between atoms: C3_12  and  C6_15 
ROOT
HETATM    1  O1  UNK     1      18.709  -7.005  36.441  1.00  0.00    -0.274 OA
HETATM    2  O3  UNK     1      18.390  -9.243  36.641  1.00  0.00    -0.259 OA
HETATM    3  C1  UNK     1      20.274  -8.340  37.787  1.00  0.00     0.024 A 
HETATM    4  C2  UNK     1      21.020  -7.249  38.058  1.00  0.00    -0.037 A 
HETATM    5  C4  UNK     1      20.598  -5.932  37.538  1.00  0.00     0.005 A 
HETATM    6  C5  UNK     1      19.456  -5.857  36.746  1.00  0.00     0.092 A 
HETATM    7  C7  UNK     1      19.059  -8.254  36.925  1.00  0.00     0.295 A 
HETATM    8  C8  UNK     1      21.274  -4.731  37.802  1.00  0.00     0.017 A 
HETATM    9  C9  UNK     1      22.296  -7.287  38.864  1.00  0.00     0.050 C 
HETATM   10  C10 UNK     1      18.987  -4.652  36.214  1.00  0.00     0.075 A 
HETATM   11  C11 UNK     1      19.677  -3.476  36.483  1.00  0.00     0.079 A 
HETATM   12  C12 UNK     1      20.819  -3.515  37.278  1.00  0.00     0.038 A 
ENDROOT
BRANCH  11  13
HETATM   13  O2  UNK     1      19.237  -2.293  35.976  1.00  0.00    -0.308 OA
BRANCH  13  14
HETATM   14  C14 UNK     1      19.483  -2.034  34.638  1.00  0.00     0.109 A 
HETATM   15  C15 UNK     1      18.678  -1.153  33.938  1.00  0.00     0.139 A 
HETATM   16  C17 UNK     1      18.945  -0.910  32.590  1.00  0.00     0.075 A 
HETATM   17  C18 UNK     1      20.015  -1.550  31.964  1.00  0.00     0.105 A 
HETATM   18  C19 UNK     1      20.817  -2.435  32.686  1.00  0.00     0.039 A 
HETATM   19  C16 UNK     1      20.549  -2.679  34.033  1.00  0.00     0.042 A 
BRANCH  15  20
HETATM   20  N1  UNK     1      17.583  -0.491  34.560  1.00  0.00    -0.113 N 
HETATM   21  O4  UNK     1      17.814   0.477  35.322  1.00  0.00    -0.532 OA
HETATM   22  O5  UNK     1      16.419  -0.897  34.327  1.00  0.00    -0.532 OA
ENDBRANCH  15  20
BRANCH  17  23
HETATM   23  N2  UNK     1      20.286  -1.302  30.593  1.00  0.00    -0.116 N 
HETATM   24  O6  UNK     1      20.647  -0.153  30.244  1.00  0.00    -0.532 OA
HETATM   25  O7  UNK     1      20.159  -2.238  29.768  1.00  0.00    -0.532 OA
ENDBRANCH  17  23
ENDBRANCH  13  14
ENDBRANCH  11  13
BRANCH   3  26
HETATM   26  C3  UNK     1      20.555  -9.728  38.305  1.00  0.00     0.045 C 
BRANCH  26  27
HETATM   27  C6  UNK     1      20.971 -10.665  37.181  1.00  0.00     0.000 C 
HETATM   28  C13 UNK     1      22.209 -10.141  36.470  1.00  0.00     0.005 C 
ENDBRANCH  26  27
ENDBRANCH   3  26
TORSDOF 6
ENDMDL
MODEL 7
REMARK VINA RESULT:      -8.2      9.506     14.711
REMARK  6 active torsions:
REMARK  status: ('A' for Active; 'I' for Inactive)
REMARK    1  A    between atoms: C11_20  and  O2_2 
REMARK    2  A    between atoms: C14_23  and  O2_2 
REMARK    3  A    between atoms: C15_24  and  N1_8 
REMARK    4  A    between atoms: C18_27  and  N2_9 
REMARK    5  A    between atoms: C1_10  and  C3_12 
REMARK    6  A    between atoms: C3_12  and  C6_15 
ROOT
HETATM    1  O1  UNK     1      18.423   9.956  34.123  1.00  0.00    -0.274 OA
HETATM    2  O3  UNK     1      18.294  12.195  34.475  1.00  0.00    -0.259 OA
HETATM    3  C1  UNK     1      16.247  11.087  33.968  1.00  0.00     0.024 A 
HETATM    4  C2  UNK     1      15.633   9.930  33.642  1.00  0.00    -0.037 A 
HETATM    5  C4  UNK     1      16.422   8.683  33.579  1.00  0.00     0.005 A 
HETATM    6  C5  UNK     1      17.791   8.740  33.821  1.00  0.00     0.092 A 
HETATM    7  C7  UNK     1      17.718  11.143  34.212  1.00  0.00     0.295 A 
HETATM    8  C8  UNK     1      15.874   7.421  33.299  1.00  0.00     0.017 A 
HETATM    9  C9  UNK     1      14.163   9.825  33.317  1.00  0.00     0.050 C 
HETATM   10  C10 UNK     1      18.610   7.608  33.782  1.00  0.00     0.075 A 
HETATM   11  C11 UNK     1      18.047   6.370  33.495  1.00  0.00     0.079 A 
HETATM   12  C12 UNK     1      16.679   6.277  33.255  1.00  0.00     0.038 A 
ENDROOT
BRANCH  11  13
HETATM   13  O2  UNK     1      18.827   5.257  33.452  1.00  0.00    -0.308 OA
BRANCH  13  14
HETATM   14  C14 UNK     1      18.734   4.447  32.333  1.00  0.00     0.109 A 
HETATM   15  C15 UNK     1      18.365   3.120  32.461  1.00  0.00     0.139 A 
HETATM   16  C17 UNK     1      18.281   2.323  31.319  1.00  0.00     0.075 A 
HETATM   17  C18 UNK     1      18.565   2.867  30.066  1.00  0.00     0.105 A 
HETATM   18  C19 UNK     1      18.935   4.207  29.955  1.00  0.00     0.039 A 
HETATM   19  C16 UNK     1      19.020   5.004  31.098  1.00  0.00     0.042 A 
BRANCH  15  20
HETATM   20  N1  UNK     1      18.072   2.548  33.730  1.00  0.00    -0.113 N 
HETATM   21  O4  UNK     1      17.202   1.648  33.803  1.00  0.00    -0.532 OA
HETATM   22  O5  UNK     1      18.692   2.962  34.738  1.00  0.00    -0.532 OA
ENDBRANCH  15  20
BRANCH  17  23
HETATM   23  N2  UNK     1      18.478   2.057  28.904  1.00  0.00    -0.116 N 
HETATM   24  O6  UNK     1      17.770   2.445  27.944  1.00  0.00    -0.532 OA
HETATM   25  O7  UNK     1      19.112   0.974  28.867  1.00  0.00    -0.532 OA
ENDBRANCH  17  23
ENDBRANCH  13  14
ENDBRANCH  11  13
BRANCH   3  26
HETATM   26  C3  UNK     1      15.552  12.416  34.129  1.00  0.00     0.045 C 
BRANCH  26  27
HETATM   27  C6  UNK     1      15.029  12.599  35.547  1.00  0.00     0.000 C 
HETATM   28  C13 UNK     1      15.652  13.823  36.200  1.00  0.00     0.005 C 
ENDBRANCH  26  27
ENDBRANCH   3  26
TORSDOF 6
ENDMDL
MODEL 8
REMARK VINA RESULT:      -8.2      8.322     12.132
REMARK  6 active torsions:
REMARK  status: ('A' for Active; 'I' for Inactive)
REMARK    1  A    between atoms: C11_20  and  O2_2 
REMARK    2  A    between atoms: C14_23  and  O2_2 
REMARK    3  A    between atoms: C15_24  and  N1_8 
REMARK    4  A    between atoms: C18_27  and  N2_9 
REMARK    5  A    between atoms: C1_10  and  C3_12 
REMARK    6  A    between atoms: C3_12  and  C6_15 
ROOT
HETATM    1  O1  UNK     1      18.163   2.996  33.432  1.00  0.00    -0.274 OA
HETATM    2  O3  UNK     1      18.218   0.757  33.065  1.00  0.00    -0.259 OA
HETATM    3  C1  UNK     1      18.567   2.146  31.162  1.00  0.00     0.024 A 
HETATM    4  C2  UNK     1      18.625   3.401  30.669  1.00  0.00    -0.037 A 
HETATM    5  C4  UNK     1      18.485   4.550  31.588  1.00  0.00     0.005 A 
HETATM    6  C5  UNK     1      18.257   4.306  32.939  1.00  0.00     0.092 A 
HETATM    7  C7  UNK     1      18.308   1.893  32.609  1.00  0.00     0.295 A 
HETATM    8  C8  UNK     1      18.579   5.892  31.186  1.00  0.00     0.017 A 
HETATM    9  C9  UNK     1      18.813   3.717  29.205  1.00  0.00     0.050 C 
HETATM   10  C10 UNK     1      18.114   5.334  33.875  1.00  0.00     0.075 A 
HETATM   11  C11 UNK     1      18.203   6.655  33.453  1.00  0.00     0.079 A 
HETATM   12  C12 UNK     1      18.438   6.934  32.110  1.00  0.00     0.038 A 
ENDROOT
BRANCH  11  13
HETATM   13  O2  UNK     1      18.067   7.670  34.349  1.00  0.00    -0.308 OA
BRANCH  13  14
HETATM   14  C14 UNK     1      16.949   8.480  34.240  1.00  0.00     0.109 A 
HETATM   15  C15 UNK     1      17.090   9.842  34.044  1.00  0.00     0.139 A 
HETATM   16  C17 UNK     1      15.949  10.637  33.940  1.00  0.00     0.075 A 
HETATM   17  C18 UNK     1      14.683  10.057  34.032  1.00  0.00     0.105 A 
HETATM   18  C19 UNK     1      14.559   8.682  34.230  1.00  0.00     0.039 A 
HETATM   19  C16 UNK     1      15.701   7.887  34.335  1.00  0.00     0.042 A 
BRANCH  15  20
HETATM   20  N1  UNK     1      18.372  10.450  33.947  1.00  0.00    -0.113 N 
HETATM   21  O4  UNK     1      18.472  11.567  33.386  1.00  0.00    -0.532 OA
HETATM   22  O5  UNK     1      19.365   9.850  34.425  1.00  0.00    -0.532 OA
ENDBRANCH  15  20
BRANCH  17  23
HETATM   23  N2  UNK     1      13.522  10.866  33.926  1.00  0.00    -0.116 N 
HETATM   24  O6  UNK     1      13.176  11.565  34.910  1.00  0.00    -0.532 OA
HETATM   25  O7  UNK     1      12.873  10.863  32.853  1.00  0.00    -0.532 OA
ENDBRANCH  17  23
ENDBRANCH  13  14
ENDBRANCH  11  13
BRANCH   3  26
HETATM   26  C3  UNK     1      18.756   0.891  30.348  1.00  0.00     0.045 C 
BRANCH  26  27
HETATM   27  C6  UNK     1      20.229   0.527  30.225  1.00  0.00     0.000 C 
HETATM   28  C13 UNK     1      20.517  -0.804  30.901  1.00  0.00     0.005 C 
ENDBRANCH  26  27
ENDBRANCH   3  26
TORSDOF 6
ENDMDL
MODEL 9
REMARK VINA RESULT:      -8.1      5.534      8.365
REMARK  6 active torsions:
REMARK  status: ('A' for Active; 'I' for Inactive)
REMARK    1  A    between atoms: C11_20  and  O2_2 
REMARK    2  A    between atoms: C14_23  and  O2_2 
REMARK    3  A    between atoms: C15_24  and  N1_8 
REMARK    4  A    between atoms: C18_27  and  N2_9 
REMARK    5  A    between atoms: C1_10  and  C3_12 
REMARK    6  A    between atoms: C3_12  and  C6_15 
ROOT
HETATM    1  O1  UNK     1      27.586  -5.617  39.155  1.00  0.00    -0.274 OA
HETATM    2  O3  UNK     1      29.190  -4.058  39.540  1.00  0.00    -0.259 OA
HETATM    3  C1  UNK     1      29.670  -5.669  37.853  1.00  0.00     0.024 A 
HETATM    4  C2  UNK     1      29.265  -6.773  37.191  1.00  0.00    -0.037 A 
HETATM    5  C4  UNK     1      27.931  -7.342  37.474  1.00  0.00     0.005 A 
HETATM    6  C5  UNK     1      27.138  -6.744  38.449  1.00  0.00     0.092 A 
HETATM    7  C7  UNK     1      28.820  -5.041  38.906  1.00  0.00     0.295 A 
HETATM    8  C8  UNK     1      27.395  -8.456  36.809  1.00  0.00     0.017 A 
HETATM    9  C9  UNK     1      30.109  -7.492  36.167  1.00  0.00     0.050 C 
HETATM   10  C10 UNK     1      25.866  -7.217  38.779  1.00  0.00     0.075 A 
HETATM   11  C11 UNK     1      25.359  -8.326  38.112  1.00  0.00     0.079 A 
HETATM   12  C12 UNK     1      26.122  -8.944  37.127  1.00  0.00     0.038 A 
ENDROOT
BRANCH  11  13
HETATM   13  O2  UNK     1      24.121  -8.802  38.418  1.00  0.00    -0.308 OA
BRANCH  13  14
HETATM   14  C14 UNK     1      23.078  -8.480  37.566  1.00  0.00     0.109 A 
HETATM   15  C15 UNK     1      22.315  -7.348  37.794  1.00  0.00     0.139 A 
HETATM   16  C17 UNK     1      21.268  -7.047  36.923  1.00  0.00     0.075 A 
HETATM   17  C18 UNK     1      21.001  -7.880  35.836  1.00  0.00     0.105 A 
HETATM   18  C19 UNK     1      21.781  -9.017  35.622  1.00  0.00     0.039 A 
HETATM   19  C16 UNK     1      22.828  -9.319  36.493  1.00  0.00     0.042 A 
BRANCH  15  20
HETATM   20  N1  UNK     1      22.572  -6.487  38.896  1.00  0.00    -0.113 N 
HETATM   21  O4  UNK     1      23.041  -5.345  38.677  1.00  0.00    -0.532 OA
HETATM   22  O5  UNK     1      22.323  -6.896  40.055  1.00  0.00    -0.532 OA
ENDBRANCH  15  20
BRANCH  17  23
HETATM   23  N2  UNK     1      19.936  -7.573  34.950  1.00  0.00    -0.116 N 
HETATM   24  O6  UNK     1      18.763  -7.550  35.395  1.00  0.00    -0.532 OA
HETATM   25  O7  UNK     1      20.195  -7.332  33.746  1.00  0.00    -0.532 OA
ENDBRANCH  17  23
ENDBRANCH  13  14
ENDBRANCH  11  13
BRANCH   3  26
HETATM   26  C3  UNK     1      30.975  -4.952  37.616  1.00  0.00     0.045 C 
BRANCH  26  27
HETATM   27  C6  UNK     1      32.091  -5.539  38.468  1.00  0.00     0.000 C 
HETATM   28  C13 UNK     1      33.363  -5.710  37.652  1.00  0.00     0.005 C 
ENDBRANCH  26  27
ENDBRANCH   3  26
TORSDOF 6
ENDMDL
MODEL 10
REMARK VINA RESULT:      -8.1     11.022     12.914
REMARK  6 active torsions:
REMARK  status: ('A' for Active; 'I' for Inactive)
REMARK    1  A    between atoms: C11_20  and  O2_2 
REMARK    2  A    between atoms: C14_23  and  O2_2 
REMARK    3  A    between atoms: C15_24  and  N1_8 
REMARK    4  A    between atoms: C18_27  and  N2_9 
REMARK    5  A    between atoms: C1_10  and  C3_12 
REMARK    6  A    between atoms: C3_12  and  C6_15 
ROOT
HETATM    1  O1  UNK     1      33.089  -8.323  31.150  1.00  0.00    -0.274 OA
HETATM    2  O3  UNK     1      33.296  -9.613  29.294  1.00  0.00    -0.259 OA
HETATM    3  C1  UNK     1      31.296  -8.331  29.468  1.00  0.00     0.024 A 
HETATM    4  C2  UNK     1      30.555  -7.478  30.208  1.00  0.00    -0.037 A 
HETATM    5  C4  UNK     1      31.096  -6.966  31.484  1.00  0.00     0.005 A 
HETATM    6  C5  UNK     1      32.345  -7.408  31.911  1.00  0.00     0.092 A 
HETATM    7  C7  UNK     1      32.628  -8.811  29.939  1.00  0.00     0.295 A 
HETATM    8  C8  UNK     1      30.431  -6.041  32.303  1.00  0.00     0.017 A 
HETATM    9  C9  UNK     1      29.174  -7.013  29.817  1.00  0.00     0.050 C 
HETATM   10  C10 UNK     1      32.929  -6.975  33.104  1.00  0.00     0.075 A 
HETATM   11  C11 UNK     1      32.248  -6.063  33.903  1.00  0.00     0.079 A 
HETATM   12  C12 UNK     1      31.001  -5.595  33.502  1.00  0.00     0.038 A 
ENDROOT
BRANCH  11  13
HETATM   13  O2  UNK     1      32.800  -5.628  35.068  1.00  0.00    -0.308 OA
BRANCH  13  14
HETATM   14  C14 UNK     1      31.952  -5.400  36.138  1.00  0.00     0.109 A 
HETATM   15  C15 UNK     1      31.499  -6.456  36.908  1.00  0.00     0.139 A 
HETATM   16  C17 UNK     1      30.643  -6.201  37.979  1.00  0.00     0.075 A 
HETATM   17  C18 UNK     1      30.254  -4.892  38.264  1.00  0.00     0.105 A 
HETATM   18  C19 UNK     1      30.720  -3.838  37.478  1.00  0.00     0.039 A 
HETATM   19  C16 UNK     1      31.575  -4.094  36.406  1.00  0.00     0.042 A 
BRANCH  15  20
HETATM   20  N1  UNK     1      31.885  -7.797  36.631  1.00  0.00    -0.113 N 
HETATM   21  O4  UNK     1      31.079  -8.549  36.035  1.00  0.00    -0.532 OA
HETATM   22  O5  UNK     1      33.022  -8.186  36.992  1.00  0.00    -0.532 OA
ENDBRANCH  15  20
BRANCH  17  23
HETATM   23  N2  UNK     1      29.383  -4.632  39.355  1.00  0.00    -0.116 N 
HETATM   24  O6  UNK     1      28.438  -5.426  39.580  1.00  0.00    -0.532 OA
HETATM   25  O7  UNK     1      29.581  -3.616  40.064  1.00  0.00    -0.532 OA
ENDBRANCH  17  23
ENDBRANCH  13  14
ENDBRANCH  11  13
BRANCH   3  26
HETATM   26  C3  UNK     1      30.893  -8.878  28.122  1.00  0.00     0.045 C 
BRANCH  26  27
HETATM   27  C6  UNK     1      30.240 -10.246  28.254  1.00  0.00     0.000 C 
HETATM   28  C13 UNK     1      28.730 -10.142  28.114  1.00  0.00     0.005 C 
ENDBRANCH  26  27
ENDBRANCH   3  26
TORSDOF 6
ENDMDL
