MODEL 1
REMARK VINA RESULT:      -8.8      0.000      0.000
REMARK  5 active torsions:
REMARK  status: ('A' for Active; 'I' for Inactive)
REMARK    1  A    between atoms: C12_20  and  O1_3 
REMARK    2  A    between atoms: C22_30  and  O1_3 
REMARK       I    between atoms: C15_23  and  N1_8 
REMARK    3  A    between atoms: C5_13  and  N1_8 
REMARK    4  A    between atoms: C12_20  and  C3_11 
REMARK    5  A    between atoms: C15_23  and  C16_24 
ROOT
HETATM    1  S1  UNK     1      28.378  -9.370  36.067  1.00  0.00    -0.075 SA
HETATM    2  C1  UNK     1      30.454  -7.893  36.391  1.00  0.00     0.006 A 
HETATM    3  C2  UNK     1      31.831  -7.470  36.320  1.00  0.00    -0.023 A 
HETATM    4  C3  UNK     1      29.369  -7.187  36.988  1.00  0.00     0.085 A 
HETATM    5  C4  UNK     1      30.055  -9.096  35.853  1.00  0.00    -0.007 A 
HETATM    6  C5  UNK     1      28.209  -7.883  36.872  1.00  0.00     0.094 A 
HETATM    7  C6  UNK     1      32.268  -6.722  35.230  1.00  0.00     0.019 A 
HETATM    8  C7  UNK     1      33.601  -6.314  35.160  1.00  0.00    -0.055 A 
HETATM    9  C8  UNK     1      32.714  -7.813  37.339  1.00  0.00     0.013 A 
HETATM   10  C9  UNK     1      34.489  -6.654  36.179  1.00  0.00    -0.056 A 
HETATM   11  C10 UNK     1      34.046  -7.405  37.269  1.00  0.00     0.008 A 
HETATM   12  C11 UNK     1      30.856 -10.126  35.152  1.00  0.00     0.057 C 
HETATM   13  C13 UNK     1      34.052  -5.512  33.983  1.00  0.00     0.049 C 
HETATM   14  C14 UNK     1      35.920  -6.230  36.125  1.00  0.00     0.049 C 
ENDROOT
BRANCH   6  15
HETATM   15  N1  UNK     1      26.917  -7.572  37.307  1.00  0.00    -0.316 N 
HETATM   16  C15 UNK     1      26.368  -7.898  38.539  1.00  0.00     0.262 C 
HETATM   17  O4  UNK     1      26.886  -8.508  39.473  1.00  0.00    -0.267 OA
HETATM   18  H7  UNK     1      26.353  -7.076  36.621  1.00  0.00     0.169 HD
BRANCH  16  19
HETATM   19  C16 UNK     1      24.987  -7.418  38.666  1.00  0.00     0.108 A 
HETATM   20  C18 UNK     1      24.028  -8.347  38.577  1.00  0.00     0.037 A 
HETATM   21  C17 UNK     1      22.627  -7.968  38.691  1.00  0.00     0.001 A 
HETATM   22  C19 UNK     1      22.307  -6.629  38.894  1.00  0.00     0.089 A 
HETATM   23  C21 UNK     1      21.593  -8.904  38.604  1.00  0.00     0.038 A 
HETATM   24  O2  UNK     1      23.321  -5.657  38.989  1.00  0.00    -0.274 OA
HETATM   25  C23 UNK     1      20.986  -6.202  39.011  1.00  0.00     0.040 A 
HETATM   26  C20 UNK     1      24.669  -5.989  38.883  1.00  0.00     0.304 A 
HETATM   27  O5  UNK     1      25.546  -5.135  38.966  1.00  0.00    -0.259 OA
HETATM   28  C25 UNK     1      19.961  -7.140  38.923  1.00  0.00     0.026 A 
HETATM   29  C24 UNK     1      20.263  -8.489  38.719  1.00  0.00     0.035 A 
HETATM   30 Cl1  UNK     1      18.992  -9.645  38.612  1.00  0.00    -0.084 Cl
ENDBRANCH  16  19
ENDBRANCH   6  15
BRANCH   4  31
HETATM   31  C12 UNK     1      29.458  -5.900  37.634  1.00  0.00     0.297 C 
HETATM   32  O3  UNK     1      29.106  -5.689  38.804  1.00  0.00    -0.259 OA
BRANCH  31  33
HETATM   33  O1  UNK     1      29.975  -4.906  36.832  1.00  0.00    -0.318 OA
BRANCH  33  34
HETATM   34  C22 UNK     1      30.667  -3.840  37.489  1.00  0.00     0.174 C 
HETATM   35  C26 UNK     1      31.848  -3.420  36.639  1.00  0.00     0.034 C 
ENDBRANCH  33  34
ENDBRANCH  31  33
ENDBRANCH   4  31
TORSDOF 5
ENDMDL
MODEL 2
REMARK VINA RESULT:      -8.6     17.821     20.764
REMARK  5 active torsions:
REMARK  status: ('A' for Active; 'I' for Inactive)
REMARK    1  A    between atoms: C12_20  and  O1_3 
REMARK    2  A    between atoms: C22_30  and  O1_3 
REMARK       I    between atoms: C15_23  and  N1_8 
REMARK    3  A    between atoms: C5_13  and  N1_8 
REMARK    4  A    between atoms: C12_20  and  C3_11 
REMARK    5  A    between atoms: C15_23  and  C16_24 
ROOT
HETATM    1  S1  UNK     1      19.825   8.750  34.156  1.00  0.00    -0.075 SA
HETATM    2  C1  UNK     1      18.850   6.995  32.555  1.00  0.00     0.006 A 
HETATM    3  C2  UNK     1      18.788   5.822  31.718  1.00  0.00    -0.023 A 
HETATM    4  C3  UNK     1      17.807   7.937  32.791  1.00  0.00     0.085 A 
HETATM    5  C4  UNK     1      20.003   7.318  33.236  1.00  0.00    -0.007 A 
HETATM    6  C5  UNK     1      18.216   8.919  33.634  1.00  0.00     0.094 A 
HETATM    7  C6  UNK     1      18.384   4.605  32.262  1.00  0.00     0.019 A 
HETATM    8  C7  UNK     1      18.325   3.470  31.453  1.00  0.00    -0.055 A 
HETATM    9  C8  UNK     1      19.133   5.913  30.373  1.00  0.00     0.013 A 
HETATM   10  C9  UNK     1      18.669   3.556  30.104  1.00  0.00    -0.056 A 
HETATM   11  C10 UNK     1      19.074   4.777  29.564  1.00  0.00     0.008 A 
HETATM   12  C11 UNK     1      21.307   6.615  33.266  1.00  0.00     0.057 C 
HETATM   13  C13 UNK     1      17.889   2.174  32.053  1.00  0.00     0.049 C 
HETATM   14  C14 UNK     1      18.615   2.355  29.220  1.00  0.00     0.049 C 
ENDROOT
BRANCH   6  15
HETATM   15  N1  UNK     1      17.531  10.032  34.131  1.00  0.00    -0.316 N 
HETATM   16  C15 UNK     1      17.871  11.362  33.925  1.00  0.00     0.262 C 
HETATM   17  O4  UNK     1      18.814  11.822  33.284  1.00  0.00    -0.267 OA
HETATM   18  H7  UNK     1      16.725   9.803  34.708  1.00  0.00     0.169 HD
BRANCH  16  19
HETATM   19  C16 UNK     1      16.935  12.275  34.591  1.00  0.00     0.108 A 
HETATM   20  C18 UNK     1      15.777  11.742  34.997  1.00  0.00     0.037 A 
HETATM   21  C17 UNK     1      14.785  12.568  35.668  1.00  0.00     0.001 A 
HETATM   22  C19 UNK     1      15.062  13.915  35.880  1.00  0.00     0.089 A 
HETATM   23  C21 UNK     1      13.562  12.054  36.107  1.00  0.00     0.038 A 
HETATM   24  O2  UNK     1      16.283  14.470  35.452  1.00  0.00    -0.274 OA
HETATM   25  C23 UNK     1      14.154  14.759  36.515  1.00  0.00     0.040 A 
HETATM   26  C20 UNK     1      17.252  13.705  34.807  1.00  0.00     0.304 A 
HETATM   27  O5  UNK     1      18.313  14.197  34.437  1.00  0.00    -0.259 OA
HETATM   28  C25 UNK     1      12.937  14.240  36.950  1.00  0.00     0.026 A 
HETATM   29  C24 UNK     1      12.641  12.890  36.747  1.00  0.00     0.035 A 
HETATM   30 Cl1  UNK     1      11.136  12.252  37.288  1.00  0.00    -0.084 Cl
ENDBRANCH  16  19
ENDBRANCH   6  15
BRANCH   4  31
HETATM   31  C12 UNK     1      16.480   7.881  32.227  1.00  0.00     0.297 C 
HETATM   32  O3  UNK     1      16.136   8.498  31.208  1.00  0.00    -0.259 OA
BRANCH  31  33
HETATM   33  O1  UNK     1      15.610   7.072  32.925  1.00  0.00    -0.318 OA
BRANCH  33  34
HETATM   34  C22 UNK     1      14.267   7.544  33.074  1.00  0.00     0.174 C 
HETATM   35  C26 UNK     1      14.250   8.674  34.081  1.00  0.00     0.034 C 
ENDBRANCH  33  34
ENDBRANCH  31  33
ENDBRANCH   4  31
TORSDOF 5
ENDMDL
MODEL 3
REMARK VINA RESULT:      -8.4      1.906      2.981
REMARK  5 active torsions:
REMARK  status: ('A' for Active; 'I' for Inactive)
REMARK    1  A    between atoms: C12_20  and  O1_3 
REMARK    2  A    between atoms: C22_30  and  O1_3 
REMARK       I    between atoms: C15_23  and  N1_8 
REMARK    3  A    between atoms: C5_13  and  N1_8 
REMARK    4  A    between atoms: C12_20  and  C3_11 
REMARK    5  A    between atoms: C15_23  and  C16_24 
ROOT
HETATM    1  S1  UNK     1      29.321  -6.096  38.872  1.00  0.00    -0.075 SA
HETATM    2  C1  UNK     1      30.317  -6.633  36.567  1.00  0.00     0.006 A 
HETATM    3  C2  UNK     1      31.311  -6.818  35.538  1.00  0.00    -0.023 A 
HETATM    4  C3  UNK     1      28.908  -6.802  36.438  1.00  0.00     0.085 A 
HETATM    5  C4  UNK     1      30.678  -6.249  37.839  1.00  0.00    -0.007 A 
HETATM    6  C5  UNK     1      28.274  -6.543  37.611  1.00  0.00     0.094 A 
HETATM    7  C6  UNK     1      31.900  -8.068  35.364  1.00  0.00     0.019 A 
HETATM    8  C7  UNK     1      32.864  -8.247  34.371  1.00  0.00    -0.055 A 
HETATM    9  C8  UNK     1      31.677  -5.747  34.728  1.00  0.00     0.013 A 
HETATM   10  C9  UNK     1      33.233  -7.177  33.556  1.00  0.00    -0.056 A 
HETATM   11  C10 UNK     1      32.640  -5.926  33.735  1.00  0.00     0.008 A 
HETATM   12  C11 UNK     1      32.023  -5.968  38.392  1.00  0.00     0.057 C 
HETATM   13  C13 UNK     1      33.485  -9.594  34.198  1.00  0.00     0.049 C 
HETATM   14  C14 UNK     1      34.262  -7.344  32.487  1.00  0.00     0.049 C 
ENDROOT
BRANCH   6  15
HETATM   15  N1  UNK     1      26.915  -6.584  37.935  1.00  0.00    -0.316 N 
HETATM   16  C15 UNK     1      26.250  -7.642  38.540  1.00  0.00     0.262 C 
HETATM   17  O4  UNK     1      26.703  -8.726  38.903  1.00  0.00    -0.267 OA
HETATM   18  H7  UNK     1      26.396  -5.750  37.672  1.00  0.00     0.169 HD
BRANCH  16  19
HETATM   19  C16 UNK     1      24.825  -7.352  38.736  1.00  0.00     0.108 A 
HETATM   20  C18 UNK     1      23.974  -8.346  38.457  1.00  0.00     0.037 A 
HETATM   21  C17 UNK     1      22.542  -8.154  38.621  1.00  0.00     0.001 A 
HETATM   22  C19 UNK     1      22.075  -6.923  39.072  1.00  0.00     0.089 A 
HETATM   23  C21 UNK     1      21.617  -9.164  38.341  1.00  0.00     0.038 A 
HETATM   24  O2  UNK     1      22.975  -5.880  39.366  1.00  0.00    -0.274 OA
HETATM   25  C23 UNK     1      20.716  -6.674  39.250  1.00  0.00     0.040 A 
HETATM   26  C20 UNK     1      24.351  -6.034  39.218  1.00  0.00     0.304 A 
HETATM   27  O5  UNK     1      25.128  -5.121  39.476  1.00  0.00    -0.259 OA
HETATM   28  C25 UNK     1      19.801  -7.686  38.968  1.00  0.00     0.026 A 
HETATM   29  C24 UNK     1      20.250  -8.928  38.515  1.00  0.00     0.035 A 
HETATM   30 Cl1  UNK     1      19.115 -10.176  38.170  1.00  0.00    -0.084 Cl
ENDBRANCH  16  19
ENDBRANCH   6  15
BRANCH   4  31
HETATM   31  C12 UNK     1      28.215  -7.199  35.236  1.00  0.00     0.297 C 
HETATM   32  O3  UNK     1      28.154  -6.502  34.212  1.00  0.00    -0.259 OA
BRANCH  31  33
HETATM   33  O1  UNK     1      27.616  -8.437  35.319  1.00  0.00    -0.318 OA
BRANCH  33  34
HETATM   34  C22 UNK     1      28.485  -9.573  35.383  1.00  0.00     0.174 C 
HETATM   35  C26 UNK     1      28.943  -9.923  33.984  1.00  0.00     0.034 C 
ENDBRANCH  33  34
ENDBRANCH  31  33
ENDBRANCH   4  31
TORSDOF 5
ENDMDL
MODEL 4
REMARK VINA RESULT:      -8.3      9.773     13.485
REMARK  5 active torsions:
REMARK  status: ('A' for Active; 'I' for Inactive)
REMARK    1  A    between atoms: C12_20  and  O1_3 
REMARK    2  A    between atoms: C22_30  and  O1_3 
REMARK       I    between atoms: C15_23  and  N1_8 
REMARK    3  A    between atoms: C5_13  and  N1_8 
REMARK    4  A    between atoms: C12_20  and  C3_11 
REMARK    5  A    between atoms: C15_23  and  C16_24 
ROOT
HETATM    1  S1  UNK     1      17.913  -0.312  36.293  1.00  0.00    -0.075 SA
HETATM    2  C1  UNK     1      19.360  -2.433  36.249  1.00  0.00     0.006 A 
HETATM    3  C2  UNK     1      19.916  -3.693  36.676  1.00  0.00    -0.023 A 
HETATM    4  C3  UNK     1      19.678  -1.713  35.061  1.00  0.00     0.085 A 
HETATM    5  C4  UNK     1      18.414  -1.783  37.010  1.00  0.00    -0.007 A 
HETATM    6  C5  UNK     1      18.962  -0.562  34.980  1.00  0.00     0.094 A 
HETATM    7  C6  UNK     1      19.305  -4.884  36.292  1.00  0.00     0.019 A 
HETATM    8  C7  UNK     1      19.842  -6.103  36.706  1.00  0.00    -0.055 A 
HETATM    9  C8  UNK     1      21.059  -3.712  37.470  1.00  0.00     0.013 A 
HETATM   10  C9  UNK     1      20.988  -6.127  37.500  1.00  0.00    -0.056 A 
HETATM   11  C10 UNK     1      21.596  -4.931  37.883  1.00  0.00     0.008 A 
HETATM   12  C11 UNK     1      17.811  -2.181  38.304  1.00  0.00     0.057 C 
HETATM   13  C13 UNK     1      19.174  -7.371  36.284  1.00  0.00     0.049 C 
HETATM   14  C14 UNK     1      21.580  -7.420  37.957  1.00  0.00     0.049 C 
ENDROOT
BRANCH   6  15
HETATM   15  N1  UNK     1      18.956   0.435  33.999  1.00  0.00    -0.316 N 
HETATM   16  C15 UNK     1      18.460   0.309  32.709  1.00  0.00     0.262 C 
HETATM   17  O4  UNK     1      17.941  -0.671  32.178  1.00  0.00    -0.267 OA
HETATM   18  H7  UNK     1      19.379   1.312  34.292  1.00  0.00     0.169 HD
BRANCH  16  19
HETATM   19  C16 UNK     1      18.612   1.551  31.942  1.00  0.00     0.108 A 
HETATM   20  C18 UNK     1      18.250   2.679  32.564  1.00  0.00     0.037 A 
HETATM   21  C17 UNK     1      18.365   3.961  31.886  1.00  0.00     0.001 A 
HETATM   22  C19 UNK     1      18.857   3.992  30.584  1.00  0.00     0.089 A 
HETATM   23  C21 UNK     1      17.998   5.163  32.497  1.00  0.00     0.038 A 
HETATM   24  O2  UNK     1      19.238   2.802  29.935  1.00  0.00    -0.274 OA
HETATM   25  C23 UNK     1      18.991   5.186  29.879  1.00  0.00     0.040 A 
HETATM   26  C20 UNK     1      19.139   1.561  30.558  1.00  0.00     0.304 A 
HETATM   27  O5  UNK     1      19.472   0.529  29.985  1.00  0.00    -0.259 OA
HETATM   28  C25 UNK     1      18.623   6.380  30.495  1.00  0.00     0.026 A 
HETATM   29  C24 UNK     1      18.127   6.369  31.801  1.00  0.00     0.035 A 
HETATM   30 Cl1  UNK     1      17.676   7.848  32.558  1.00  0.00    -0.084 Cl
ENDBRANCH  16  19
ENDBRANCH   6  15
BRANCH   4  31
HETATM   31  C12 UNK     1      20.628  -2.126  34.057  1.00  0.00     0.297 C 
HETATM   32  O3  UNK     1      21.858  -2.066  34.203  1.00  0.00    -0.259 OA
BRANCH  31  33
HETATM   33  O1  UNK     1      20.048  -2.600  32.901  1.00  0.00    -0.318 OA
BRANCH  33  34
HETATM   34  C22 UNK     1      20.935  -3.045  31.868  1.00  0.00     0.174 C 
HETATM   35  C26 UNK     1      20.506  -2.433  30.552  1.00  0.00     0.034 C 
ENDBRANCH  33  34
ENDBRANCH  31  33
ENDBRANCH   4  31
TORSDOF 5
ENDMDL
MODEL 5
REMARK VINA RESULT:      -8.2      2.032      2.806
REMARK  5 active torsions:
REMARK  status: ('A' for Active; 'I' for Inactive)
REMARK    1  A    between atoms: C12_20  and  O1_3 
REMARK    2  A    between atoms: C22_30  and  O1_3 
REMARK       I    between atoms: C15_23  and  N1_8 
REMARK    3  A    between atoms: C5_13  and  N1_8 
REMARK    4  A    between atoms: C12_20  and  C3_11 
REMARK    5  A    between atoms: C15_23  and  C16_24 
ROOT
HETATM    1  S1  UNK     1      29.634  -6.701  38.598  1.00  0.00    -0.075 SA
HETATM    2  C1  UNK     1      30.544  -7.238  36.257  1.00  0.00     0.006 A 
HETATM    3  C2  UNK     1      31.503  -7.490  35.210  1.00  0.00    -0.023 A 
HETATM    4  C3  UNK     1      29.124  -7.229  36.136  1.00  0.00     0.085 A 
HETATM    5  C4  UNK     1      30.956  -6.965  37.543  1.00  0.00    -0.007 A 
HETATM    6  C5  UNK     1      28.533  -6.954  37.328  1.00  0.00     0.094 A 
HETATM    7  C6  UNK     1      31.935  -8.792  34.968  1.00  0.00     0.019 A 
HETATM    8  C7  UNK     1      32.864  -9.036  33.956  1.00  0.00    -0.055 A 
HETATM    9  C8  UNK     1      31.992  -6.432  34.450  1.00  0.00     0.013 A 
HETATM   10  C9  UNK     1      33.356  -7.979  33.190  1.00  0.00    -0.056 A 
HETATM   11  C10 UNK     1      32.920  -6.677  33.438  1.00  0.00     0.008 A 
HETATM   12  C11 UNK     1      32.328  -6.877  38.094  1.00  0.00     0.057 C 
HETATM   13  C13 UNK     1      33.316 -10.438  33.709  1.00  0.00     0.049 C 
HETATM   14  C14 UNK     1      34.351  -8.216  32.103  1.00  0.00     0.049 C 
ENDROOT
BRANCH   6  15
HETATM   15  N1  UNK     1      27.181  -6.846  37.666  1.00  0.00    -0.316 N 
HETATM   16  C15 UNK     1      26.464  -7.731  38.460  1.00  0.00     0.262 C 
HETATM   17  O4  UNK     1      26.856  -8.757  39.013  1.00  0.00    -0.267 OA
HETATM   18  H7  UNK     1      26.710  -6.043  37.258  1.00  0.00     0.169 HD
BRANCH  16  19
HETATM   19  C16 UNK     1      25.064  -7.317  38.612  1.00  0.00     0.108 A 
HETATM   20  C18 UNK     1      24.147  -8.288  38.523  1.00  0.00     0.037 A 
HETATM   21  C17 UNK     1      22.733  -7.976  38.660  1.00  0.00     0.001 A 
HETATM   22  C19 UNK     1      22.353  -6.656  38.885  1.00  0.00     0.089 A 
HETATM   23  C21 UNK     1      21.741  -8.957  38.573  1.00  0.00     0.038 A 
HETATM   24  O2  UNK     1      23.322  -5.639  38.979  1.00  0.00    -0.274 OA
HETATM   25  C23 UNK     1      21.016  -6.292  39.025  1.00  0.00     0.040 A 
HETATM   26  C20 UNK     1      24.683  -5.907  38.852  1.00  0.00     0.304 A 
HETATM   27  O5  UNK     1      25.520  -5.015  38.935  1.00  0.00    -0.259 OA
HETATM   28  C25 UNK     1      20.034  -7.275  38.937  1.00  0.00     0.026 A 
HETATM   29  C24 UNK     1      20.396  -8.606  38.711  1.00  0.00     0.035 A 
HETATM   30 Cl1  UNK     1      19.177  -9.818  38.605  1.00  0.00    -0.084 Cl
ENDBRANCH  16  19
ENDBRANCH   6  15
BRANCH   4  31
HETATM   31  C12 UNK     1      28.382  -7.478  34.925  1.00  0.00     0.297 C 
HETATM   32  O3  UNK     1      28.233  -8.602  34.424  1.00  0.00    -0.259 OA
BRANCH  31  33
HETATM   33  O1  UNK     1      27.842  -6.344  34.357  1.00  0.00    -0.318 OA
BRANCH  33  34
HETATM   34  C22 UNK     1      27.804  -6.292  32.927  1.00  0.00     0.174 C 
HETATM   35  C26 UNK     1      29.003  -5.514  32.429  1.00  0.00     0.034 C 
ENDBRANCH  33  34
ENDBRANCH  31  33
ENDBRANCH   4  31
TORSDOF 5
ENDMDL
MODEL 6
REMARK VINA RESULT:      -8.2     18.345     21.287
REMARK  5 active torsions:
REMARK  status: ('A' for Active; 'I' for Inactive)
REMARK    1  A    between atoms: C12_20  and  O1_3 
REMARK    2  A    between atoms: C22_30  and  O1_3 
REMARK       I    between atoms: C15_23  and  N1_8 
REMARK    3  A    between atoms: C5_13  and  N1_8 
REMARK    4  A    between atoms: C12_20  and  C3_11 
REMARK    5  A    between atoms: C15_23  and  C16_24 
ROOT
HETATM    1  S1  UNK     1      19.495   8.777  34.115  1.00  0.00    -0.075 SA
HETATM    2  C1  UNK     1      18.682   6.961  32.491  1.00  0.00     0.006 A 
HETATM    3  C2  UNK     1      18.706   5.765  31.686  1.00  0.00    -0.023 A 
HETATM    4  C3  UNK     1      17.609   7.891  32.613  1.00  0.00     0.085 A 
HETATM    5  C4  UNK     1      19.769   7.323  33.255  1.00  0.00    -0.007 A 
HETATM    6  C5  UNK     1      17.932   8.904  33.459  1.00  0.00     0.094 A 
HETATM    7  C6  UNK     1      18.277   4.557  32.231  1.00  0.00     0.019 A 
HETATM    8  C7  UNK     1      18.302   3.399  31.453  1.00  0.00    -0.055 A 
HETATM    9  C8  UNK     1      19.161   5.824  30.372  1.00  0.00     0.013 A 
HETATM   10  C9  UNK     1      18.755   3.454  30.135  1.00  0.00    -0.056 A 
HETATM   11  C10 UNK     1      19.185   4.666  29.595  1.00  0.00     0.008 A 
HETATM   12  C11 UNK     1      21.076   6.644  33.413  1.00  0.00     0.057 C 
HETATM   13  C13 UNK     1      17.838   2.112  32.052  1.00  0.00     0.049 C 
HETATM   14  C14 UNK     1      18.792   2.227  29.284  1.00  0.00     0.049 C 
ENDROOT
BRANCH   6  15
HETATM   15  N1  UNK     1      17.191  10.018  33.865  1.00  0.00    -0.316 N 
HETATM   16  C15 UNK     1      17.625  11.336  33.855  1.00  0.00     0.262 C 
HETATM   17  O4  UNK     1      18.714  11.783  33.500  1.00  0.00    -0.267 OA
HETATM   18  H7  UNK     1      16.261   9.798  34.210  1.00  0.00     0.169 HD
BRANCH  16  19
HETATM   19  C16 UNK     1      16.592  12.255  34.349  1.00  0.00     0.108 A 
HETATM   20  C18 UNK     1      16.630  13.502  33.866  1.00  0.00     0.037 A 
HETATM   21  C17 UNK     1      15.647  14.485  34.295  1.00  0.00     0.001 A 
HETATM   22  C19 UNK     1      14.672  14.105  35.213  1.00  0.00     0.089 A 
HETATM   23  C21 UNK     1      15.649  15.798  33.817  1.00  0.00     0.038 A 
HETATM   24  O2  UNK     1      14.637  12.791  35.717  1.00  0.00    -0.274 OA
HETATM   25  C23 UNK     1      13.703  14.999  35.665  1.00  0.00     0.040 A 
HETATM   26  C20 UNK     1      15.564  11.829  35.325  1.00  0.00     0.304 A 
HETATM   27  O5  UNK     1      15.526  10.687  35.770  1.00  0.00    -0.259 OA
HETATM   28  C25 UNK     1      13.711  16.306  35.184  1.00  0.00     0.026 A 
HETATM   29  C24 UNK     1      14.682  16.705  34.262  1.00  0.00     0.035 A 
HETATM   30 Cl1  UNK     1      14.687  18.322  33.670  1.00  0.00    -0.084 Cl
ENDBRANCH  16  19
ENDBRANCH   6  15
BRANCH   4  31
HETATM   31  C12 UNK     1      16.334   7.797  31.944  1.00  0.00     0.297 C 
HETATM   32  O3  UNK     1      15.999   8.517  30.992  1.00  0.00    -0.259 OA
BRANCH  31  33
HETATM   33  O1  UNK     1      15.504   6.824  32.456  1.00  0.00    -0.318 OA
BRANCH  33  34
HETATM   34  C22 UNK     1      14.149   7.203  32.719  1.00  0.00     0.174 C 
HETATM   35  C26 UNK     1      14.121   8.144  33.904  1.00  0.00     0.034 C 
ENDBRANCH  33  34
ENDBRANCH  31  33
ENDBRANCH   4  31
TORSDOF 5
ENDMDL
MODEL 7
REMARK VINA RESULT:      -8.2      6.476     11.713
REMARK  5 active torsions:
REMARK  status: ('A' for Active; 'I' for Inactive)
REMARK    1  A    between atoms: C12_20  and  O1_3 
REMARK    2  A    between atoms: C22_30  and  O1_3 
REMARK       I    between atoms: C15_23  and  N1_8 
REMARK    3  A    between atoms: C5_13  and  N1_8 
REMARK    4  A    between atoms: C12_20  and  C3_11 
REMARK    5  A    between atoms: C15_23  and  C16_24 
ROOT
HETATM    1  S1  UNK     1      31.732  -7.231  32.280  1.00  0.00    -0.075 SA
HETATM    2  C1  UNK     1      31.581  -6.495  34.735  1.00  0.00     0.006 A 
HETATM    3  C2  UNK     1      31.046  -5.887  35.929  1.00  0.00    -0.023 A 
HETATM    4  C3  UNK     1      32.816  -7.196  34.608  1.00  0.00     0.085 A 
HETATM    5  C4  UNK     1      30.892  -6.440  33.544  1.00  0.00    -0.007 A 
HETATM    6  C5  UNK     1      33.000  -7.635  33.337  1.00  0.00     0.094 A 
HETATM    7  C6  UNK     1      30.229  -6.631  36.777  1.00  0.00     0.019 A 
HETATM    8  C7  UNK     1      29.711  -6.042  37.931  1.00  0.00    -0.055 A 
HETATM    9  C8  UNK     1      31.349  -4.561  36.225  1.00  0.00     0.013 A 
HETATM   10  C9  UNK     1      30.012  -4.714  38.233  1.00  0.00    -0.056 A 
HETATM   11  C10 UNK     1      30.831  -3.974  37.379  1.00  0.00     0.008 A 
HETATM   12  C11 UNK     1      29.584  -5.813  33.240  1.00  0.00     0.057 C 
HETATM   13  C13 UNK     1      28.837  -6.854  38.829  1.00  0.00     0.049 C 
HETATM   14  C14 UNK     1      29.468  -4.063  39.461  1.00  0.00     0.049 C 
ENDROOT
BRANCH   6  15
HETATM   15  N1  UNK     1      34.056  -8.356  32.771  1.00  0.00    -0.316 N 
HETATM   16  C15 UNK     1      35.256  -7.828  32.316  1.00  0.00     0.262 C 
HETATM   17  O4  UNK     1      35.628  -6.656  32.316  1.00  0.00    -0.267 OA
HETATM   18  H7  UNK     1      33.882  -9.355  32.685  1.00  0.00     0.169 HD
BRANCH  16  19
HETATM   19  C16 UNK     1      36.142  -8.868  31.779  1.00  0.00     0.108 A 
HETATM   20  C18 UNK     1      37.116  -9.293  32.593  1.00  0.00     0.037 A 
HETATM   21  C17 UNK     1      38.044 -10.322  32.151  1.00  0.00     0.001 A 
HETATM   22  C19 UNK     1      37.901 -10.854  30.873  1.00  0.00     0.089 A 
HETATM   23  C21 UNK     1      39.076 -10.795  32.967  1.00  0.00     0.038 A 
HETATM   24  O2  UNK     1      36.874 -10.404  30.021  1.00  0.00    -0.274 OA
HETATM   25  C23 UNK     1      38.758 -11.841  30.390  1.00  0.00     0.040 A 
HETATM   26  C20 UNK     1      35.971  -9.420  30.417  1.00  0.00     0.304 A 
HETATM   27  O5  UNK     1      35.080  -9.033  29.668  1.00  0.00    -0.259 OA
HETATM   28  C25 UNK     1      39.783 -12.307  31.208  1.00  0.00     0.026 A 
HETATM   29  C24 UNK     1      39.942 -11.785  32.495  1.00  0.00     0.035 A 
HETATM   30 Cl1  UNK     1      41.211 -12.367  33.503  1.00  0.00    -0.084 Cl
ENDBRANCH  16  19
ENDBRANCH   6  15
BRANCH   4  31
HETATM   31  C12 UNK     1      33.764  -7.426  35.670  1.00  0.00     0.297 C 
HETATM   32  O3  UNK     1      33.549  -8.167  36.641  1.00  0.00    -0.259 OA
BRANCH  31  33
HETATM   33  O1  UNK     1      34.951  -6.744  35.517  1.00  0.00    -0.318 OA
BRANCH  33  34
HETATM   34  C22 UNK     1      35.009  -5.417  36.051  1.00  0.00     0.174 C 
HETATM   35  C26 UNK     1      34.753  -4.425  34.937  1.00  0.00     0.034 C 
ENDBRANCH  33  34
ENDBRANCH  31  33
ENDBRANCH   4  31
TORSDOF 5
ENDMDL
MODEL 8
REMARK VINA RESULT:      -8.2     34.201     35.374
REMARK  5 active torsions:
REMARK  status: ('A' for Active; 'I' for Inactive)
REMARK    1  A    between atoms: C12_20  and  O1_3 
REMARK    2  A    between atoms: C22_30  and  O1_3 
REMARK       I    between atoms: C15_23  and  N1_8 
REMARK    3  A    between atoms: C5_13  and  N1_8 
REMARK    4  A    between atoms: C12_20  and  C3_11 
REMARK    5  A    between atoms: C15_23  and  C16_24 
ROOT
HETATM    1  S1  UNK     1      15.147  12.536   8.234  1.00  0.00    -0.075 SA
HETATM    2  C1  UNK     1      17.390  11.876   9.296  1.00  0.00     0.006 A 
HETATM    3  C2  UNK     1      18.744  12.008   9.778  1.00  0.00    -0.023 A 
HETATM    4  C3  UNK     1      16.578  10.706   9.330  1.00  0.00     0.085 A 
HETATM    5  C4  UNK     1      16.736  12.945   8.726  1.00  0.00    -0.007 A 
HETATM    6  C5  UNK     1      15.355  10.943   8.788  1.00  0.00     0.094 A 
HETATM    7  C6  UNK     1      18.973  12.396  11.096  1.00  0.00     0.019 A 
HETATM    8  C7  UNK     1      20.282  12.525  11.562  1.00  0.00    -0.055 A 
HETATM    9  C8  UNK     1      19.811  11.749   8.923  1.00  0.00     0.013 A 
HETATM   10  C9  UNK     1      21.355  12.265  10.709  1.00  0.00    -0.056 A 
HETATM   11  C10 UNK     1      21.119  11.878   9.390  1.00  0.00     0.008 A 
HETATM   12  C11 UNK     1      17.212  14.329   8.497  1.00  0.00     0.057 C 
HETATM   13  C13 UNK     1      20.510  12.941  12.978  1.00  0.00     0.049 C 
HETATM   14  C14 UNK     1      22.764  12.397  11.185  1.00  0.00     0.049 C 
ENDROOT
BRANCH   6  15
HETATM   15  N1  UNK     1      14.258  10.093   8.618  1.00  0.00    -0.316 N 
HETATM   16  C15 UNK     1      13.328   9.754   9.590  1.00  0.00     0.262 C 
HETATM   17  O4  UNK     1      13.276  10.118  10.764  1.00  0.00    -0.267 OA
HETATM   18  H7  UNK     1      14.181   9.692   7.687  1.00  0.00     0.169 HD
BRANCH  16  19
HETATM   19  C16 UNK     1      12.305   8.837   9.072  1.00  0.00     0.108 A 
HETATM   20  C18 UNK     1      11.066   9.001   9.551  1.00  0.00     0.037 A 
HETATM   21  C17 UNK     1       9.985   8.141   9.096  1.00  0.00     0.001 A 
HETATM   22  C19 UNK     1      10.261   7.150   8.159  1.00  0.00     0.089 A 
HETATM   23  C21 UNK     1       8.677   8.275   9.570  1.00  0.00     0.038 A 
HETATM   24  O2  UNK     1      11.566   6.984   7.657  1.00  0.00    -0.274 OA
HETATM   25  C23 UNK     1       9.270   6.294   7.684  1.00  0.00     0.040 A 
HETATM   26  C20 UNK     1      12.622   7.791   8.073  1.00  0.00     0.304 A 
HETATM   27  O5  UNK     1      13.755   7.639   7.631  1.00  0.00    -0.259 OA
HETATM   28  C25 UNK     1       7.969   6.434   8.161  1.00  0.00     0.026 A 
HETATM   29  C24 UNK     1       7.673   7.423   9.102  1.00  0.00     0.035 A 
HETATM   30 Cl1  UNK     1       6.062   7.593   9.687  1.00  0.00    -0.084 Cl
ENDBRANCH  16  19
ENDBRANCH   6  15
BRANCH   4  31
HETATM   31  C12 UNK     1      16.971   9.425   9.863  1.00  0.00     0.297 C 
HETATM   32  O3  UNK     1      17.851   8.709   9.364  1.00  0.00    -0.259 OA
BRANCH  31  33
HETATM   33  O1  UNK     1      16.277   9.053  10.994  1.00  0.00    -0.318 OA
BRANCH  33  34
HETATM   34  C22 UNK     1      16.345   7.674  11.371  1.00  0.00     0.174 C 
HETATM   35  C26 UNK     1      15.262   6.909  10.642  1.00  0.00     0.034 C 
ENDBRANCH  33  34
ENDBRANCH  31  33
ENDBRANCH   4  31
TORSDOF 5
ENDMDL
MODEL 9
REMARK VINA RESULT:      -8.2     33.644     35.576
REMARK  5 active torsions:
REMARK  status: ('A' for Active; 'I' for Inactive)
REMARK    1  A    between atoms: C12_20  and  O1_3 
REMARK    2  A    between atoms: C22_30  and  O1_3 
REMARK       I    between atoms: C15_23  and  N1_8 
REMARK    3  A    between atoms: C5_13  and  N1_8 
REMARK    4  A    between atoms: C12_20  and  C3_11 
REMARK    5  A    between atoms: C15_23  and  C16_24 
ROOT
HETATM    1  S1  UNK     1      16.654   7.227  10.559  1.00  0.00    -0.075 SA
HETATM    2  C1  UNK     1      14.508   7.505   9.176  1.00  0.00     0.006 A 
HETATM    3  C2  UNK     1      13.311   7.140   8.460  1.00  0.00    -0.023 A 
HETATM    4  C3  UNK     1      15.032   8.818   9.361  1.00  0.00     0.085 A 
HETATM    5  C4  UNK     1      15.293   6.546   9.776  1.00  0.00    -0.007 A 
HETATM    6  C5  UNK     1      16.178   8.790  10.088  1.00  0.00     0.094 A 
HETATM    7  C6  UNK     1      12.094   7.076   9.135  1.00  0.00     0.019 A 
HETATM    8  C7  UNK     1      10.936   6.722   8.443  1.00  0.00    -0.055 A 
HETATM    9  C8  UNK     1      13.378   6.853   7.100  1.00  0.00     0.013 A 
HETATM   10  C9  UNK     1      10.998   6.435   7.079  1.00  0.00    -0.056 A 
HETATM   11  C10 UNK     1      12.220   6.500   6.408  1.00  0.00     0.008 A 
HETATM   12  C11 UNK     1      15.113   5.076   9.824  1.00  0.00     0.057 C 
HETATM   13  C13 UNK     1       9.640   6.659   9.182  1.00  0.00     0.049 C 
HETATM   14  C14 UNK     1       9.772   6.053   6.318  1.00  0.00     0.049 C 
ENDROOT
BRANCH   6  15
HETATM   15  N1  UNK     1      17.016   9.830  10.501  1.00  0.00    -0.316 N 
HETATM   16  C15 UNK     1      17.926  10.513   9.706  1.00  0.00     0.262 C 
HETATM   17  O4  UNK     1      18.176  10.350   8.513  1.00  0.00    -0.267 OA
HETATM   18  H7  UNK     1      16.934  10.067  11.487  1.00  0.00     0.169 HD
BRANCH  16  19
HETATM   19  C16 UNK     1      18.643  11.547  10.460  1.00  0.00     0.108 A 
HETATM   20  C18 UNK     1      19.979  11.515  10.385  1.00  0.00     0.037 A 
HETATM   21  C17 UNK     1      20.777  12.500  11.099  1.00  0.00     0.001 A 
HETATM   22  C19 UNK     1      20.129  13.471  11.857  1.00  0.00     0.089 A 
HETATM   23  C21 UNK     1      22.174  12.504  11.050  1.00  0.00     0.038 A 
HETATM   24  O2  UNK     1      18.723  13.501  11.931  1.00  0.00    -0.274 OA
HETATM   25  C23 UNK     1      20.836  14.441  12.564  1.00  0.00     0.040 A 
HETATM   26  C20 UNK     1      17.933  12.571  11.259  1.00  0.00     0.304 A 
HETATM   27  O5  UNK     1      16.709  12.604  11.330  1.00  0.00    -0.259 OA
HETATM   28  C25 UNK     1      22.227  14.438  12.510  1.00  0.00     0.026 A 
HETATM   29  C24 UNK     1      22.895  13.472  11.754  1.00  0.00     0.035 A 
HETATM   30 Cl1  UNK     1      24.616  13.474  11.690  1.00  0.00    -0.084 Cl
ENDBRANCH  16  19
ENDBRANCH   6  15
BRANCH   4  31
HETATM   31  C12 UNK     1      14.444  10.035   8.857  1.00  0.00     0.297 C 
HETATM   32  O3  UNK     1      14.945  10.722   7.955  1.00  0.00    -0.259 OA
BRANCH  31  33
HETATM   33  O1  UNK     1      13.260  10.380   9.471  1.00  0.00    -0.318 OA
BRANCH  33  34
HETATM   34  C22 UNK     1      13.323  10.698  10.865  1.00  0.00     0.174 C 
HETATM   35  C26 UNK     1      12.286   9.881  11.606  1.00  0.00     0.034 C 
ENDBRANCH  33  34
ENDBRANCH  31  33
ENDBRANCH   4  31
TORSDOF 5
ENDMDL
MODEL 10
REMARK VINA RESULT:      -8.1     35.172     36.350
REMARK  5 active torsions:
REMARK  status: ('A' for Active; 'I' for Inactive)
REMARK    1  A    between atoms: C12_20  and  O1_3 
REMARK    2  A    between atoms: C22_30  and  O1_3 
REMARK       I    between atoms: C15_23  and  N1_8 
REMARK    3  A    between atoms: C5_13  and  N1_8 
REMARK    4  A    between atoms: C12_20  and  C3_11 
REMARK    5  A    between atoms: C15_23  and  C16_24 
ROOT
HETATM    1  S1  UNK     1      15.326  13.145   7.158  1.00  0.00    -0.075 SA
HETATM    2  C1  UNK     1      17.878  13.424   7.215  1.00  0.00     0.006 A 
HETATM    3  C2  UNK     1      19.170  14.046   7.050  1.00  0.00    -0.023 A 
HETATM    4  C3  UNK     1      17.613  12.119   7.720  1.00  0.00     0.085 A 
HETATM    5  C4  UNK     1      16.724  14.091   6.872  1.00  0.00    -0.007 A 
HETATM    6  C5  UNK     1      16.279  11.862   7.736  1.00  0.00     0.094 A 
HETATM    7  C6  UNK     1      19.715  14.794   8.091  1.00  0.00     0.019 A 
HETATM    8  C7  UNK     1      20.963  15.396   7.931  1.00  0.00    -0.055 A 
HETATM    9  C8  UNK     1      19.862  13.896   5.852  1.00  0.00     0.013 A 
HETATM   10  C9  UNK     1      21.661  15.247   6.733  1.00  0.00    -0.056 A 
HETATM   11  C10 UNK     1      21.110  14.498   5.693  1.00  0.00     0.008 A 
HETATM   12  C11 UNK     1      16.553  15.453   6.314  1.00  0.00     0.057 C 
HETATM   13  C13 UNK     1      21.533  16.194   9.058  1.00  0.00     0.049 C 
HETATM   14  C14 UNK     1      22.998  15.884   6.538  1.00  0.00     0.049 C 
ENDROOT
BRANCH   6  15
HETATM   15  N1  UNK     1      15.580  10.723   8.146  1.00  0.00    -0.316 N 
HETATM   16  C15 UNK     1      15.141  10.452   9.435  1.00  0.00     0.262 C 
HETATM   17  O4  UNK     1      15.272  11.135  10.449  1.00  0.00    -0.267 OA
HETATM   18  H7  UNK     1      15.413  10.046   7.406  1.00  0.00     0.169 HD
BRANCH  16  19
HETATM   19  C16 UNK     1      14.440   9.166   9.515  1.00  0.00     0.108 A 
HETATM   20  C18 UNK     1      13.463   8.968   8.621  1.00  0.00     0.037 A 
HETATM   21  C17 UNK     1      12.711   7.723   8.620  1.00  0.00     0.001 A 
HETATM   22  C19 UNK     1      13.025   6.746   9.561  1.00  0.00     0.089 A 
HETATM   23  C21 UNK     1      11.683   7.474   7.707  1.00  0.00     0.038 A 
HETATM   24  O2  UNK     1      14.054   6.959  10.497  1.00  0.00    -0.274 OA
HETATM   25  C23 UNK     1      12.342   5.533   9.613  1.00  0.00     0.040 A 
HETATM   26  C20 UNK     1      14.791   8.140  10.523  1.00  0.00     0.304 A 
HETATM   27  O5  UNK     1      15.686   8.317  11.342  1.00  0.00    -0.259 OA
HETATM   28  C25 UNK     1      11.318   5.293   8.700  1.00  0.00     0.026 A 
HETATM   29  C24 UNK     1      10.989   6.262   7.748  1.00  0.00     0.035 A 
HETATM   30 Cl1  UNK     1       9.724   5.959   6.620  1.00  0.00    -0.084 Cl
ENDBRANCH  16  19
ENDBRANCH   6  15
BRANCH   4  31
HETATM   31  C12 UNK     1      18.606  11.172   8.165  1.00  0.00     0.297 C 
HETATM   32  O3  UNK     1      19.453  10.657   7.421  1.00  0.00    -0.259 OA
BRANCH  31  33
HETATM   33  O1  UNK     1      18.535  10.879   9.510  1.00  0.00    -0.318 OA
BRANCH  33  34
HETATM   34  C22 UNK     1      18.915  11.918  10.418  1.00  0.00     0.174 C 
HETATM   35  C26 UNK     1      20.425  11.968  10.508  1.00  0.00     0.034 C 
ENDBRANCH  33  34
ENDBRANCH  31  33
ENDBRANCH   4  31
TORSDOF 5
ENDMDL
