MODEL 1
REMARK VINA RESULT:      -9.4      0.000      0.000
REMARK  9 active torsions:
REMARK  status: ('A' for Active; 'I' for Inactive)
REMARK    1  A    between atoms: C5_11  and  N1_5 
REMARK       I    between atoms: C7_13  and  N1_5 
REMARK    2  A    between atoms: C6_12  and  N2_6 
REMARK       I    between atoms: C9_15  and  N2_6 
REMARK    3  A    between atoms: C1_7  and  C2_8 
REMARK    4  A    between atoms: C1_7  and  C3_9 
REMARK    5  A    between atoms: C2_8  and  C4_10 
REMARK    6  A    between atoms: C3_9  and  C5_11 
REMARK    7  A    between atoms: C4_10  and  C6_12 
REMARK    8  A    between atoms: C7_13  and  C8_14 
REMARK    9  A    between atoms: C12_18  and  C9_15 
ROOT
HETATM    1  C5  UNK     1      18.330   4.786  33.848  1.00  0.00     0.123 C 
ENDROOT
BRANCH   1   2
HETATM    2  C3  UNK     1      19.653   5.545  33.843  1.00  0.00     0.020 C 
BRANCH   2   3
HETATM    3  C1  UNK     1      19.717   6.723  32.864  1.00  0.00     0.002 C 
BRANCH   3   4
HETATM    4  C2  UNK     1      18.963   6.471  31.557  1.00  0.00     0.002 C 
BRANCH   4   5
HETATM    5  C4  UNK     1      19.657   5.392  30.717  1.00  0.00     0.020 C 
BRANCH   5   6
HETATM    6  C6  UNK     1      18.678   4.364  30.161  1.00  0.00     0.123 C 
BRANCH   6   7
HETATM    7  N2  UNK     1      19.160   3.017  30.288  1.00  0.00    -0.357 N 
HETATM    8  C9  UNK     1      18.879   2.027  29.353  1.00  0.00     0.251 C 
HETATM    9  O3  UNK     1      18.204   2.195  28.340  1.00  0.00    -0.268 OA
HETATM   10  H14 UNK     1      19.615   2.773  31.162  1.00  0.00     0.162 HD
BRANCH   8  11
HETATM   11  C12 UNK     1      19.430   0.678  29.642  1.00  0.00     0.032 A 
HETATM   12  C17 UNK     1      19.776   0.332  30.948  1.00  0.00     0.017 A 
HETATM   13  C21 UNK     1      20.294  -0.934  31.221  1.00  0.00     0.001 A 
HETATM   14  C23 UNK     1      20.466  -1.854  30.186  1.00  0.00     0.000 A 
HETATM   15  C22 UNK     1      20.120  -1.508  28.879  1.00  0.00     0.001 A 
HETATM   16  C18 UNK     1      19.602  -0.242  28.608  1.00  0.00     0.017 A 
ENDBRANCH   8  11
ENDBRANCH   6   7
ENDBRANCH   5   6
ENDBRANCH   4   5
ENDBRANCH   3   4
ENDBRANCH   2   3
ENDBRANCH   1   2
BRANCH   1  17
HETATM   17  N1  UNK     1      18.411   3.539  34.558  1.00  0.00    -0.357 N 
HETATM   18  C7  UNK     1      18.044   2.326  34.000  1.00  0.00     0.257 C 
HETATM   19  O2  UNK     1      17.615   2.147  32.864  1.00  0.00    -0.267 OA
HETATM   20  H13 UNK     1      18.746   3.566  35.517  1.00  0.00     0.162 HD
BRANCH  18  21
HETATM   21  C8  UNK     1      18.220   1.191  34.924  1.00  0.00     0.108 A 
HETATM   22  C10 UNK     1      18.890   0.136  34.443  1.00  0.00     0.037 A 
HETATM   23  C11 UNK     1      19.114  -1.032  35.280  1.00  0.00    -0.001 A 
HETATM   24  C13 UNK     1      18.622  -1.033  36.581  1.00  0.00     0.089 A 
HETATM   25  C15 UNK     1      19.807  -2.156  34.820  1.00  0.00     0.014 A 
HETATM   26  O1  UNK     1      17.920   0.080  37.081  1.00  0.00    -0.274 OA
HETATM   27  C16 UNK     1      18.803  -2.121  37.434  1.00  0.00     0.038 A 
HETATM   28  C14 UNK     1      17.689   1.213  36.305  1.00  0.00     0.304 A 
HETATM   29  O4  UNK     1      17.074   2.176  36.748  1.00  0.00    -0.259 OA
HETATM   30  C20 UNK     1      19.495  -3.236  36.967  1.00  0.00     0.003 A 
HETATM   31  C19 UNK     1      19.996  -3.254  35.663  1.00  0.00     0.001 A 
ENDBRANCH  18  21
ENDBRANCH   1  17
TORSDOF 9
ENDMDL
MODEL 2
REMARK VINA RESULT:      -9.2      1.907      7.480
REMARK  9 active torsions:
REMARK  status: ('A' for Active; 'I' for Inactive)
REMARK    1  A    between atoms: C5_11  and  N1_5 
REMARK       I    between atoms: C7_13  and  N1_5 
REMARK    2  A    between atoms: C6_12  and  N2_6 
REMARK       I    between atoms: C9_15  and  N2_6 
REMARK    3  A    between atoms: C1_7  and  C2_8 
REMARK    4  A    between atoms: C1_7  and  C3_9 
REMARK    5  A    between atoms: C2_8  and  C4_10 
REMARK    6  A    between atoms: C3_9  and  C5_11 
REMARK    7  A    between atoms: C4_10  and  C6_12 
REMARK    8  A    between atoms: C7_13  and  C8_14 
REMARK    9  A    between atoms: C12_18  and  C9_15 
ROOT
HETATM    1  C5  UNK     1      19.765   0.181  28.795  1.00  0.00     0.123 C 
ENDROOT
BRANCH   1   2
HETATM    2  C3  UNK     1      20.430  -1.052  29.399  1.00  0.00     0.020 C 
BRANCH   2   3
HETATM    3  C1  UNK     1      20.879  -0.895  30.856  1.00  0.00     0.002 C 
BRANCH   3   4
HETATM    4  C2  UNK     1      20.140  -1.821  31.825  1.00  0.00     0.002 C 
BRANCH   4   5
HETATM    5  C4  UNK     1      21.122  -2.569  32.733  1.00  0.00     0.020 C 
BRANCH   5   6
HETATM    6  C6  UNK     1      20.527  -2.886  34.101  1.00  0.00     0.123 C 
BRANCH   6   7
HETATM    7  N2  UNK     1      19.483  -1.973  34.475  1.00  0.00    -0.357 N 
HETATM    8  C9  UNK     1      19.007  -1.867  35.777  1.00  0.00     0.251 C 
HETATM    9  O3  UNK     1      19.421  -2.526  36.727  1.00  0.00    -0.268 OA
HETATM   10  H14 UNK     1      19.006  -1.489  33.721  1.00  0.00     0.162 HD
BRANCH   8  11
HETATM   11  C12 UNK     1      17.906  -0.893  35.995  1.00  0.00     0.032 A 
HETATM   12  C17 UNK     1      17.898  -0.094  37.138  1.00  0.00     0.017 A 
HETATM   13  C21 UNK     1      16.864   0.819  37.344  1.00  0.00     0.001 A 
HETATM   14  C23 UNK     1      15.838   0.933  36.405  1.00  0.00     0.000 A 
HETATM   15  C22 UNK     1      15.846   0.133  35.262  1.00  0.00     0.001 A 
HETATM   16  C18 UNK     1      16.880  -0.780  35.057  1.00  0.00     0.017 A 
ENDBRANCH   8  11
ENDBRANCH   6   7
ENDBRANCH   5   6
ENDBRANCH   4   5
ENDBRANCH   3   4
ENDBRANCH   2   3
ENDBRANCH   1   2
BRANCH   1  17
HETATM   17  N1  UNK     1      19.444   1.175  29.781  1.00  0.00    -0.357 N 
HETATM   18  C7  UNK     1      18.618   2.257  29.524  1.00  0.00     0.257 C 
HETATM   19  O2  UNK     1      18.064   2.513  28.459  1.00  0.00    -0.267 OA
HETATM   20  H13 UNK     1      19.856   1.071  30.704  1.00  0.00     0.162 HD
BRANCH  18  21
HETATM   21  C8  UNK     1      18.437   3.134  30.695  1.00  0.00     0.108 A 
HETATM   22  C10 UNK     1      18.477   4.451  30.459  1.00  0.00     0.037 A 
HETATM   23  C11 UNK     1      18.309   5.396  31.552  1.00  0.00    -0.001 A 
HETATM   24  C13 UNK     1      18.109   4.909  32.839  1.00  0.00     0.089 A 
HETATM   25  C15 UNK     1      18.344   6.779  31.351  1.00  0.00     0.014 A 
HETATM   26  O1  UNK     1      18.067   3.523  33.080  1.00  0.00    -0.274 OA
HETATM   27  C16 UNK     1      17.942   5.762  33.928  1.00  0.00     0.038 A 
HETATM   28  C14 UNK     1      18.224   2.593  32.056  1.00  0.00     0.304 A 
HETATM   29  O4  UNK     1      18.189   1.387  32.276  1.00  0.00    -0.259 OA
HETATM   30  C20 UNK     1      17.978   7.139  33.720  1.00  0.00     0.003 A 
HETATM   31  C19 UNK     1      18.179   7.647  32.434  1.00  0.00     0.001 A 
ENDBRANCH  18  21
ENDBRANCH   1  17
TORSDOF 9
ENDMDL
MODEL 3
REMARK VINA RESULT:      -9.1      3.706      5.979
REMARK  9 active torsions:
REMARK  status: ('A' for Active; 'I' for Inactive)
REMARK    1  A    between atoms: C5_11  and  N1_5 
REMARK       I    between atoms: C7_13  and  N1_5 
REMARK    2  A    between atoms: C6_12  and  N2_6 
REMARK       I    between atoms: C9_15  and  N2_6 
REMARK    3  A    between atoms: C1_7  and  C2_8 
REMARK    4  A    between atoms: C1_7  and  C3_9 
REMARK    5  A    between atoms: C2_8  and  C4_10 
REMARK    6  A    between atoms: C3_9  and  C5_11 
REMARK    7  A    between atoms: C4_10  and  C6_12 
REMARK    8  A    between atoms: C7_13  and  C8_14 
REMARK    9  A    between atoms: C12_18  and  C9_15 
ROOT
HETATM    1  C5  UNK     1      18.394  -1.741  36.451  1.00  0.00     0.123 C 
ENDROOT
BRANCH   1   2
HETATM    2  C3  UNK     1      17.738  -0.838  37.492  1.00  0.00     0.020 C 
BRANCH   2   3
HETATM    3  C1  UNK     1      17.088   0.431  36.928  1.00  0.00     0.002 C 
BRANCH   3   4
HETATM    4  C2  UNK     1      18.026   1.640  36.915  1.00  0.00     0.002 C 
BRANCH   4   5
HETATM    5  C4  UNK     1      18.719   1.788  35.555  1.00  0.00     0.020 C 
BRANCH   5   6
HETATM    6  C6  UNK     1      17.817   1.387  34.393  1.00  0.00     0.123 C 
BRANCH   6   7
HETATM    7  N2  UNK     1      18.499   0.583  33.417  1.00  0.00    -0.357 N 
HETATM    8  C9  UNK     1      18.695   0.999  32.104  1.00  0.00     0.251 C 
HETATM    9  O3  UNK     1      18.317   2.076  31.650  1.00  0.00    -0.268 OA
HETATM   10  H14 UNK     1      18.724  -0.370  33.684  1.00  0.00     0.162 HD
BRANCH   8  11
HETATM   11  C12 UNK     1      19.394   0.040  31.211  1.00  0.00     0.032 A 
HETATM   12  C17 UNK     1      19.678  -1.250  31.659  1.00  0.00     0.017 A 
HETATM   13  C21 UNK     1      20.336  -2.151  30.822  1.00  0.00     0.001 A 
HETATM   14  C23 UNK     1      20.709  -1.761  29.535  1.00  0.00     0.000 A 
HETATM   15  C22 UNK     1      20.426  -0.470  29.087  1.00  0.00     0.001 A 
HETATM   16  C18 UNK     1      19.769   0.430  29.926  1.00  0.00     0.017 A 
ENDBRANCH   8  11
ENDBRANCH   6   7
ENDBRANCH   5   6
ENDBRANCH   4   5
ENDBRANCH   3   4
ENDBRANCH   2   3
ENDBRANCH   1   2
BRANCH   1  17
HETATM   17  N1  UNK     1      18.697  -3.047  36.965  1.00  0.00    -0.357 N 
HETATM   18  C7  UNK     1      19.628  -3.892  36.382  1.00  0.00     0.257 C 
HETATM   19  O2  UNK     1      20.300  -3.656  35.383  1.00  0.00    -0.267 OA
HETATM   20  H13 UNK     1      18.192  -3.356  37.791  1.00  0.00     0.162 HD
BRANCH  18  21
HETATM   21  C8  UNK     1      19.765  -5.175  37.094  1.00  0.00     0.108 A 
HETATM   22  C10 UNK     1      20.912  -5.363  37.758  1.00  0.00     0.037 A 
HETATM   23  C11 UNK     1      21.140  -6.599  38.491  1.00  0.00    -0.001 A 
HETATM   24  C13 UNK     1      20.151  -7.576  38.489  1.00  0.00     0.089 A 
HETATM   25  C15 UNK     1      22.323  -6.837  39.197  1.00  0.00     0.014 A 
HETATM   26  O1  UNK     1      18.946  -7.372  37.789  1.00  0.00    -0.274 OA
HETATM   27  C16 UNK     1      20.308  -8.781  39.171  1.00  0.00     0.038 A 
HETATM   28  C14 UNK     1      18.697  -6.201  37.079  1.00  0.00     0.304 A 
HETATM   29  O4  UNK     1      17.646  -6.033  36.471  1.00  0.00    -0.259 OA
HETATM   30  C20 UNK     1      21.489  -9.011  39.872  1.00  0.00     0.003 A 
HETATM   31  C19 UNK     1      22.495  -8.041  39.886  1.00  0.00     0.001 A 
ENDBRANCH  18  21
ENDBRANCH   1  17
TORSDOF 9
ENDMDL
MODEL 4
REMARK VINA RESULT:      -9.0      2.123      7.407
REMARK  9 active torsions:
REMARK  status: ('A' for Active; 'I' for Inactive)
REMARK    1  A    between atoms: C5_11  and  N1_5 
REMARK       I    between atoms: C7_13  and  N1_5 
REMARK    2  A    between atoms: C6_12  and  N2_6 
REMARK       I    between atoms: C9_15  and  N2_6 
REMARK    3  A    between atoms: C1_7  and  C2_8 
REMARK    4  A    between atoms: C1_7  and  C3_9 
REMARK    5  A    between atoms: C2_8  and  C4_10 
REMARK    6  A    between atoms: C3_9  and  C5_11 
REMARK    7  A    between atoms: C4_10  and  C6_12 
REMARK    8  A    between atoms: C7_13  and  C8_14 
REMARK    9  A    between atoms: C12_18  and  C9_15 
ROOT
HETATM    1  C5  UNK     1      19.149   1.254  29.603  1.00  0.00     0.123 C 
ENDROOT
BRANCH   1   2
HETATM    2  C3  UNK     1      20.185   0.257  30.114  1.00  0.00     0.020 C 
BRANCH   2   3
HETATM    3  C1  UNK     1      20.177  -1.102  29.406  1.00  0.00     0.002 C 
BRANCH   3   4
HETATM    4  C2  UNK     1      20.596  -2.263  30.311  1.00  0.00     0.002 C 
BRANCH   4   5
HETATM    5  C4  UNK     1      20.928  -1.771  31.724  1.00  0.00     0.020 C 
BRANCH   5   6
HETATM    6  C6  UNK     1      20.200  -2.564  32.805  1.00  0.00     0.123 C 
BRANCH   6   7
HETATM    7  N2  UNK     1      19.731  -1.734  33.879  1.00  0.00    -0.357 N 
HETATM    8  C9  UNK     1      18.594  -0.940  33.774  1.00  0.00     0.251 C 
HETATM    9  O3  UNK     1      17.883  -0.868  32.775  1.00  0.00    -0.268 OA
HETATM   10  H14 UNK     1      20.338  -1.644  34.687  1.00  0.00     0.162 HD
BRANCH   8  11
HETATM   11  C12 UNK     1      18.257  -0.119  34.965  1.00  0.00     0.032 A 
HETATM   12  C17 UNK     1      18.396   1.268  34.917  1.00  0.00     0.017 A 
HETATM   13  C21 UNK     1      18.081   2.040  36.035  1.00  0.00     0.001 A 
HETATM   14  C23 UNK     1      17.625   1.425  37.201  1.00  0.00     0.000 A 
HETATM   15  C22 UNK     1      17.486   0.037  37.249  1.00  0.00     0.001 A 
HETATM   16  C18 UNK     1      17.802  -0.734  36.131  1.00  0.00     0.017 A 
ENDBRANCH   8  11
ENDBRANCH   6   7
ENDBRANCH   5   6
ENDBRANCH   4   5
ENDBRANCH   3   4
ENDBRANCH   2   3
ENDBRANCH   1   2
BRANCH   1  17
HETATM   17  N1  UNK     1      19.216   2.518  30.282  1.00  0.00    -0.357 N 
HETATM   18  C7  UNK     1      18.105   3.149  30.818  1.00  0.00     0.257 C 
HETATM   19  O2  UNK     1      16.950   2.736  30.792  1.00  0.00    -0.267 OA
HETATM   20  H13 UNK     1      20.127   2.963  30.357  1.00  0.00     0.162 HD
BRANCH  18  21
HETATM   21  C8  UNK     1      18.430   4.432  31.467  1.00  0.00     0.108 A 
HETATM   22  C10 UNK     1      17.728   4.732  32.567  1.00  0.00     0.037 A 
HETATM   23  C11 UNK     1      17.977   5.978  33.277  1.00  0.00    -0.001 A 
HETATM   24  C13 UNK     1      18.951   6.845  32.794  1.00  0.00     0.089 A 
HETATM   25  C15 UNK     1      17.268   6.331  34.428  1.00  0.00     0.014 A 
HETATM   26  O1  UNK     1      19.686   6.523  31.637  1.00  0.00    -0.274 OA
HETATM   27  C16 UNK     1      19.237   8.053  33.428  1.00  0.00     0.038 A 
HETATM   28  C14 UNK     1      19.472   5.340  30.936  1.00  0.00     0.304 A 
HETATM   29  O4  UNK     1      20.115   5.069  29.928  1.00  0.00    -0.259 OA
HETATM   30  C20 UNK     1      18.526   8.398  34.575  1.00  0.00     0.003 A 
HETATM   31  C19 UNK     1      17.544   7.540  35.074  1.00  0.00     0.001 A 
ENDBRANCH  18  21
ENDBRANCH   1  17
TORSDOF 9
ENDMDL
MODEL 5
REMARK VINA RESULT:      -8.9      2.908      7.279
REMARK  9 active torsions:
REMARK  status: ('A' for Active; 'I' for Inactive)
REMARK    1  A    between atoms: C5_11  and  N1_5 
REMARK       I    between atoms: C7_13  and  N1_5 
REMARK    2  A    between atoms: C6_12  and  N2_6 
REMARK       I    between atoms: C9_15  and  N2_6 
REMARK    3  A    between atoms: C1_7  and  C2_8 
REMARK    4  A    between atoms: C1_7  and  C3_9 
REMARK    5  A    between atoms: C2_8  and  C4_10 
REMARK    6  A    between atoms: C3_9  and  C5_11 
REMARK    7  A    between atoms: C4_10  and  C6_12 
REMARK    8  A    between atoms: C7_13  and  C8_14 
REMARK    9  A    between atoms: C12_18  and  C9_15 
ROOT
HETATM    1  C5  UNK     1      18.566   2.466  34.689  1.00  0.00     0.123 C 
ENDROOT
BRANCH   1   2
HETATM    2  C3  UNK     1      18.777   1.985  36.122  1.00  0.00     0.020 C 
BRANCH   2   3
HETATM    3  C1  UNK     1      18.009   0.712  36.495  1.00  0.00     0.002 C 
BRANCH   3   4
HETATM    4  C2  UNK     1      16.497   0.829  36.284  1.00  0.00     0.002 C 
BRANCH   4   5
HETATM    5  C4  UNK     1      16.050   0.043  35.045  1.00  0.00     0.020 C 
BRANCH   5   6
HETATM    6  C6  UNK     1      17.012  -1.085  34.690  1.00  0.00     0.123 C 
BRANCH   6   7
HETATM    7  N2  UNK     1      17.621  -0.906  33.401  1.00  0.00    -0.357 N 
HETATM    8  C9  UNK     1      18.945  -1.243  33.142  1.00  0.00     0.251 C 
HETATM    9  O3  UNK     1      19.718  -1.719  33.968  1.00  0.00    -0.268 OA
HETATM   10  H14 UNK     1      17.082  -0.400  32.706  1.00  0.00     0.162 HD
BRANCH   8  11
HETATM   11  C12 UNK     1      19.431  -0.972  31.764  1.00  0.00     0.032 A 
HETATM   12  C17 UNK     1      20.024  -1.994  31.021  1.00  0.00     0.017 A 
HETATM   13  C21 UNK     1      20.481  -1.741  29.728  1.00  0.00     0.001 A 
HETATM   14  C23 UNK     1      20.346  -0.466  29.178  1.00  0.00     0.000 A 
HETATM   15  C22 UNK     1      19.754   0.556  29.921  1.00  0.00     0.001 A 
HETATM   16  C18 UNK     1      19.297   0.302  31.214  1.00  0.00     0.017 A 
ENDBRANCH   8  11
ENDBRANCH   6   7
ENDBRANCH   5   6
ENDBRANCH   4   5
ENDBRANCH   3   4
ENDBRANCH   2   3
ENDBRANCH   1   2
BRANCH   1  17
HETATM   17  N1  UNK     1      18.566   3.898  34.581  1.00  0.00    -0.357 N 
HETATM   18  C7  UNK     1      18.128   4.571  33.453  1.00  0.00     0.257 C 
HETATM   19  O2  UNK     1      17.695   4.063  32.424  1.00  0.00    -0.267 OA
HETATM   20  H13 UNK     1      18.914   4.429  35.375  1.00  0.00     0.162 HD
BRANCH  18  21
HETATM   21  C8  UNK     1      18.222   6.037  33.585  1.00  0.00     0.108 A 
HETATM   22  C10 UNK     1      17.068   6.688  33.780  1.00  0.00     0.037 A 
HETATM   23  C11 UNK     1      17.060   8.136  33.922  1.00  0.00    -0.001 A 
HETATM   24  C13 UNK     1      18.265   8.826  33.850  1.00  0.00     0.089 A 
HETATM   25  C15 UNK     1      15.880   8.856  34.127  1.00  0.00     0.014 A 
HETATM   26  O1  UNK     1      19.474   8.136  33.645  1.00  0.00    -0.274 OA
HETATM   27  C16 UNK     1      18.324  10.213  33.978  1.00  0.00     0.038 A 
HETATM   28  C14 UNK     1      19.516   6.752  33.506  1.00  0.00     0.304 A 
HETATM   29  O4  UNK     1      20.574   6.159  33.326  1.00  0.00    -0.259 OA
HETATM   30  C20 UNK     1      17.143  10.923  34.182  1.00  0.00     0.003 A 
HETATM   31  C19 UNK     1      15.923  10.247  34.256  1.00  0.00     0.001 A 
ENDBRANCH  18  21
ENDBRANCH   1  17
TORSDOF 9
ENDMDL
MODEL 6
REMARK VINA RESULT:      -8.7      4.296      7.086
REMARK  9 active torsions:
REMARK  status: ('A' for Active; 'I' for Inactive)
REMARK    1  A    between atoms: C5_11  and  N1_5 
REMARK       I    between atoms: C7_13  and  N1_5 
REMARK    2  A    between atoms: C6_12  and  N2_6 
REMARK       I    between atoms: C9_15  and  N2_6 
REMARK    3  A    between atoms: C1_7  and  C2_8 
REMARK    4  A    between atoms: C1_7  and  C3_9 
REMARK    5  A    between atoms: C2_8  and  C4_10 
REMARK    6  A    between atoms: C3_9  and  C5_11 
REMARK    7  A    between atoms: C4_10  and  C6_12 
REMARK    8  A    between atoms: C7_13  and  C8_14 
REMARK    9  A    between atoms: C12_18  and  C9_15 
ROOT
HETATM    1  C5  UNK     1      19.851  -2.617  35.213  1.00  0.00     0.123 C 
ENDROOT
BRANCH   1   2
HETATM    2  C3  UNK     1      19.986  -2.264  33.734  1.00  0.00     0.020 C 
BRANCH   2   3
HETATM    3  C1  UNK     1      19.090  -1.114  33.261  1.00  0.00     0.002 C 
BRANCH   3   4
HETATM    4  C2  UNK     1      18.853  -1.109  31.749  1.00  0.00     0.002 C 
BRANCH   4   5
HETATM    5  C4  UNK     1      20.147  -0.802  30.987  1.00  0.00     0.020 C 
BRANCH   5   6
HETATM    6  C6  UNK     1      19.932   0.188  29.847  1.00  0.00     0.123 C 
BRANCH   6   7
HETATM    7  N2  UNK     1      19.778   1.539  30.310  1.00  0.00    -0.357 N 
HETATM    8  C9  UNK     1      18.603   2.263  30.136  1.00  0.00     0.251 C 
HETATM    9  O3  UNK     1      17.594   1.834  29.583  1.00  0.00    -0.268 OA
HETATM   10  H14 UNK     1      20.610   2.002  30.660  1.00  0.00     0.162 HD
BRANCH   8  11
HETATM   11  C12 UNK     1      18.612   3.657  30.649  1.00  0.00     0.032 A 
HETATM   12  C17 UNK     1      18.070   3.943  31.902  1.00  0.00     0.017 A 
HETATM   13  C21 UNK     1      18.077   5.252  32.384  1.00  0.00     0.001 A 
HETATM   14  C23 UNK     1      18.628   6.275  31.612  1.00  0.00     0.000 A 
HETATM   15  C22 UNK     1      19.169   5.990  30.358  1.00  0.00     0.001 A 
HETATM   16  C18 UNK     1      19.161   4.681  29.877  1.00  0.00     0.017 A 
ENDBRANCH   8  11
ENDBRANCH   6   7
ENDBRANCH   5   6
ENDBRANCH   4   5
ENDBRANCH   3   4
ENDBRANCH   2   3
ENDBRANCH   1   2
BRANCH   1  17
HETATM   17  N1  UNK     1      19.835  -4.035  35.443  1.00  0.00    -0.357 N 
HETATM   18  C7  UNK     1      20.521  -4.640  36.484  1.00  0.00     0.257 C 
HETATM   19  O2  UNK     1      21.213  -4.075  37.325  1.00  0.00    -0.267 OA
HETATM   20  H13 UNK     1      19.298  -4.610  34.799  1.00  0.00     0.162 HD
BRANCH  18  21
HETATM   21  C8  UNK     1      20.346  -6.103  36.514  1.00  0.00     0.108 A 
HETATM   22  C10 UNK     1      20.141  -6.649  37.719  1.00  0.00     0.037 A 
HETATM   23  C11 UNK     1      19.959  -8.087  37.850  1.00  0.00    -0.001 A 
HETATM   24  C13 UNK     1      20.002  -8.878  36.707  1.00  0.00     0.089 A 
HETATM   25  C15 UNK     1      19.742  -8.699  39.087  1.00  0.00     0.014 A 
HETATM   26  O1  UNK     1      20.217  -8.297  35.443  1.00  0.00    -0.274 OA
HETATM   27  C16 UNK     1      19.835 -10.260  36.765  1.00  0.00     0.038 A 
HETATM   28  C14 UNK     1      20.395  -6.926  35.284  1.00  0.00     0.304 A 
HETATM   29  O4  UNK     1      20.585  -6.429  34.180  1.00  0.00    -0.259 OA
HETATM   30  C20 UNK     1      19.619 -10.863  38.002  1.00  0.00     0.003 A 
HETATM   31  C19 UNK     1      19.573 -10.085  39.161  1.00  0.00     0.001 A 
ENDBRANCH  18  21
ENDBRANCH   1  17
TORSDOF 9
ENDMDL
MODEL 7
REMARK VINA RESULT:      -8.7      1.696      5.439
REMARK  9 active torsions:
REMARK  status: ('A' for Active; 'I' for Inactive)
REMARK    1  A    between atoms: C5_11  and  N1_5 
REMARK       I    between atoms: C7_13  and  N1_5 
REMARK    2  A    between atoms: C6_12  and  N2_6 
REMARK       I    between atoms: C9_15  and  N2_6 
REMARK    3  A    between atoms: C1_7  and  C2_8 
REMARK    4  A    between atoms: C1_7  and  C3_9 
REMARK    5  A    between atoms: C2_8  and  C4_10 
REMARK    6  A    between atoms: C3_9  and  C5_11 
REMARK    7  A    between atoms: C4_10  and  C6_12 
REMARK    8  A    between atoms: C7_13  and  C8_14 
REMARK    9  A    between atoms: C12_18  and  C9_15 
ROOT
HETATM    1  C5  UNK     1      18.762   5.314  29.432  1.00  0.00     0.123 C 
ENDROOT
BRANCH   1   2
HETATM    2  C3  UNK     1      18.683   6.404  30.497  1.00  0.00     0.020 C 
BRANCH   2   3
HETATM    3  C1  UNK     1      19.341   6.048  31.835  1.00  0.00     0.002 C 
BRANCH   3   4
HETATM    4  C2  UNK     1      18.770   6.829  33.022  1.00  0.00     0.002 C 
BRANCH   4   5
HETATM    5  C4  UNK     1      18.428   5.894  34.187  1.00  0.00     0.020 C 
BRANCH   5   6
HETATM    6  C6  UNK     1      19.429   4.753  34.334  1.00  0.00     0.123 C 
BRANCH   6   7
HETATM    7  N2  UNK     1      18.820   3.540  34.806  1.00  0.00    -0.357 N 
HETATM    8  C9  UNK     1      19.382   2.758  35.808  1.00  0.00     0.251 C 
HETATM    9  O3  UNK     1      20.434   3.014  36.387  1.00  0.00    -0.268 OA
HETATM   10  H14 UNK     1      18.017   3.199  34.287  1.00  0.00     0.162 HD
BRANCH   8  11
HETATM   11  C12 UNK     1      18.641   1.519  36.164  1.00  0.00     0.032 A 
HETATM   12  C17 UNK     1      17.871   1.478  37.326  1.00  0.00     0.017 A 
HETATM   13  C21 UNK     1      17.176   0.316  37.662  1.00  0.00     0.001 A 
HETATM   14  C23 UNK     1      17.251  -0.805  36.833  1.00  0.00     0.000 A 
HETATM   15  C22 UNK     1      18.023  -0.763  35.671  1.00  0.00     0.001 A 
HETATM   16  C18 UNK     1      18.717   0.399  35.337  1.00  0.00     0.017 A 
ENDBRANCH   8  11
ENDBRANCH   6   7
ENDBRANCH   5   6
ENDBRANCH   4   5
ENDBRANCH   3   4
ENDBRANCH   2   3
ENDBRANCH   1   2
BRANCH   1  17
HETATM   17  N1  UNK     1      18.984   4.010  29.992  1.00  0.00    -0.357 N 
HETATM   18  C7  UNK     1      18.586   2.841  29.365  1.00  0.00     0.257 C 
HETATM   19  O2  UNK     1      18.009   2.753  28.286  1.00  0.00    -0.267 OA
HETATM   20  H13 UNK     1      19.450   3.959  30.894  1.00  0.00     0.162 HD
BRANCH  18  21
HETATM   21  C8  UNK     1      18.929   1.631  30.134  1.00  0.00     0.108 A 
HETATM   22  C10 UNK     1      19.538   0.651  29.454  1.00  0.00     0.037 A 
HETATM   23  C11 UNK     1      19.915  -0.582  30.127  1.00  0.00    -0.001 A 
HETATM   24  C13 UNK     1      19.633  -0.724  31.481  1.00  0.00     0.089 A 
HETATM   25  C15 UNK     1      20.551  -1.631  29.456  1.00  0.00     0.014 A 
HETATM   26  O1  UNK     1      18.993   0.310  32.191  1.00  0.00    -0.274 OA
HETATM   27  C16 UNK     1      19.968  -1.880  32.184  1.00  0.00     0.038 A 
HETATM   28  C14 UNK     1      18.620   1.502  31.576  1.00  0.00     0.304 A 
HETATM   29  O4  UNK     1      18.062   2.396  32.201  1.00  0.00    -0.259 OA
HETATM   30  C20 UNK     1      20.602  -2.920  31.508  1.00  0.00     0.003 A 
HETATM   31  C19 UNK     1      20.894  -2.796  30.147  1.00  0.00     0.001 A 
ENDBRANCH  18  21
ENDBRANCH   1  17
TORSDOF 9
ENDMDL
MODEL 8
REMARK VINA RESULT:      -8.6      4.005      6.372
REMARK  9 active torsions:
REMARK  status: ('A' for Active; 'I' for Inactive)
REMARK    1  A    between atoms: C5_11  and  N1_5 
REMARK       I    between atoms: C7_13  and  N1_5 
REMARK    2  A    between atoms: C6_12  and  N2_6 
REMARK       I    between atoms: C9_15  and  N2_6 
REMARK    3  A    between atoms: C1_7  and  C2_8 
REMARK    4  A    between atoms: C1_7  and  C3_9 
REMARK    5  A    between atoms: C2_8  and  C4_10 
REMARK    6  A    between atoms: C3_9  and  C5_11 
REMARK    7  A    between atoms: C4_10  and  C6_12 
REMARK    8  A    between atoms: C7_13  and  C8_14 
REMARK    9  A    between atoms: C12_18  and  C9_15 
ROOT
HETATM    1  C5  UNK     1      19.085  -1.918  36.607  1.00  0.00     0.123 C 
ENDROOT
BRANCH   1   2
HETATM    2  C3  UNK     1      17.931  -1.290  37.383  1.00  0.00     0.020 C 
BRANCH   2   3
HETATM    3  C1  UNK     1      17.366  -0.003  36.771  1.00  0.00     0.002 C 
BRANCH   3   4
HETATM    4  C2  UNK     1      18.358   1.162  36.778  1.00  0.00     0.002 C 
BRANCH   4   5
HETATM    5  C4  UNK     1      18.531   1.750  35.373  1.00  0.00     0.020 C 
BRANCH   5   6
HETATM    6  C6  UNK     1      17.577   1.128  34.358  1.00  0.00     0.123 C 
BRANCH   6   7
HETATM    7  N2  UNK     1      18.215   0.844  33.102  1.00  0.00    -0.357 N 
HETATM    8  C9  UNK     1      18.723  -0.411  32.785  1.00  0.00     0.251 C 
HETATM    9  O3  UNK     1      18.680  -1.389  33.527  1.00  0.00    -0.268 OA
HETATM   10  H14 UNK     1      18.400   1.633  32.493  1.00  0.00     0.162 HD
BRANCH   8  11
HETATM   11  C12 UNK     1      19.376  -0.536  31.457  1.00  0.00     0.032 A 
HETATM   12  C17 UNK     1      19.988  -1.735  31.091  1.00  0.00     0.017 A 
HETATM   13  C21 UNK     1      20.602  -1.854  29.845  1.00  0.00     0.001 A 
HETATM   14  C23 UNK     1      20.603  -0.772  28.963  1.00  0.00     0.000 A 
HETATM   15  C22 UNK     1      19.992   0.427  29.329  1.00  0.00     0.001 A 
HETATM   16  C18 UNK     1      19.378   0.545  30.576  1.00  0.00     0.017 A 
ENDBRANCH   8  11
ENDBRANCH   6   7
ENDBRANCH   5   6
ENDBRANCH   4   5
ENDBRANCH   3   4
ENDBRANCH   2   3
ENDBRANCH   1   2
BRANCH   1  17
HETATM   17  N1  UNK     1      19.477  -3.195  37.136  1.00  0.00    -0.357 N 
HETATM   18  C7  UNK     1      19.992  -4.212  36.350  1.00  0.00     0.257 C 
HETATM   19  O2  UNK     1      20.181  -4.173  35.138  1.00  0.00    -0.267 OA
HETATM   20  H13 UNK     1      19.357  -3.347  38.133  1.00  0.00     0.162 HD
BRANCH  18  21
HETATM   21  C8  UNK     1      20.323  -5.424  37.122  1.00  0.00     0.108 A 
HETATM   22  C10 UNK     1      19.419  -6.411  37.088  1.00  0.00     0.037 A 
HETATM   23  C11 UNK     1      19.656  -7.646  37.819  1.00  0.00    -0.001 A 
HETATM   24  C13 UNK     1      20.830  -7.780  38.552  1.00  0.00     0.089 A 
HETATM   25  C15 UNK     1      18.741  -8.703  37.811  1.00  0.00     0.014 A 
HETATM   26  O1  UNK     1      21.776  -6.738  38.584  1.00  0.00    -0.274 OA
HETATM   27  C16 UNK     1      21.116  -8.937  39.274  1.00  0.00     0.038 A 
HETATM   28  C14 UNK     1      21.580  -5.545  37.895  1.00  0.00     0.304 A 
HETATM   29  O4  UNK     1      22.408  -4.642  37.930  1.00  0.00    -0.259 OA
HETATM   30  C20 UNK     1      20.199  -9.986  39.261  1.00  0.00     0.003 A 
HETATM   31  C19 UNK     1      19.014  -9.869  38.531  1.00  0.00     0.001 A 
ENDBRANCH  18  21
ENDBRANCH   1  17
TORSDOF 9
ENDMDL
MODEL 9
REMARK VINA RESULT:      -8.6      2.672      8.269
REMARK  9 active torsions:
REMARK  status: ('A' for Active; 'I' for Inactive)
REMARK    1  A    between atoms: C5_11  and  N1_5 
REMARK       I    between atoms: C7_13  and  N1_5 
REMARK    2  A    between atoms: C6_12  and  N2_6 
REMARK       I    between atoms: C9_15  and  N2_6 
REMARK    3  A    between atoms: C1_7  and  C2_8 
REMARK    4  A    between atoms: C1_7  and  C3_9 
REMARK    5  A    between atoms: C2_8  and  C4_10 
REMARK    6  A    between atoms: C3_9  and  C5_11 
REMARK    7  A    between atoms: C4_10  and  C6_12 
REMARK    8  A    between atoms: C7_13  and  C8_14 
REMARK    9  A    between atoms: C12_18  and  C9_15 
ROOT
HETATM    1  C5  UNK     1      20.264  -0.211  29.180  1.00  0.00     0.123 C 
ENDROOT
BRANCH   1   2
HETATM    2  C3  UNK     1      20.141  -1.601  29.798  1.00  0.00     0.020 C 
BRANCH   2   3
HETATM    3  C1  UNK     1      20.921  -1.799  31.102  1.00  0.00     0.002 C 
BRANCH   3   4
HETATM    4  C2  UNK     1      20.023  -2.002  32.325  1.00  0.00     0.002 C 
BRANCH   4   5
HETATM    5  C4  UNK     1      20.804  -2.628  33.487  1.00  0.00     0.020 C 
BRANCH   5   6
HETATM    6  C6  UNK     1      20.078  -2.488  34.821  1.00  0.00     0.123 C 
BRANCH   6   7
HETATM    7  N2  UNK     1      19.694  -3.757  35.376  1.00  0.00    -0.357 N 
HETATM    8  C9  UNK     1      20.278  -4.282  36.523  1.00  0.00     0.251 C 
HETATM    9  O3  UNK     1      21.163  -3.730  37.171  1.00  0.00    -0.268 OA
HETATM   10  H14 UNK     1      19.061  -4.326  34.824  1.00  0.00     0.162 HD
BRANCH   8  11
HETATM   11  C12 UNK     1      19.788  -5.617  36.954  1.00  0.00     0.032 A 
HETATM   12  C17 UNK     1      19.022  -6.393  36.084  1.00  0.00     0.017 A 
HETATM   13  C21 UNK     1      18.561  -7.646  36.487  1.00  0.00     0.001 A 
HETATM   14  C23 UNK     1      18.867  -8.123  37.762  1.00  0.00     0.000 A 
HETATM   15  C22 UNK     1      19.633  -7.347  38.633  1.00  0.00     0.001 A 
HETATM   16  C18 UNK     1      20.093  -6.094  38.228  1.00  0.00     0.017 A 
ENDBRANCH   8  11
ENDBRANCH   6   7
ENDBRANCH   5   6
ENDBRANCH   4   5
ENDBRANCH   3   4
ENDBRANCH   2   3
ENDBRANCH   1   2
BRANCH   1  17
HETATM   17  N1  UNK     1      19.846   0.831  30.076  1.00  0.00    -0.357 N 
HETATM   18  C7  UNK     1      18.867   1.757  29.753  1.00  0.00     0.257 C 
HETATM   19  O2  UNK     1      18.242   1.819  28.700  1.00  0.00    -0.267 OA
HETATM   20  H13 UNK     1      20.304   0.884  30.981  1.00  0.00     0.162 HD
BRANCH  18  21
HETATM   21  C8  UNK     1      18.611   2.723  30.837  1.00  0.00     0.108 A 
HETATM   22  C10 UNK     1      18.691   4.018  30.505  1.00  0.00     0.037 A 
HETATM   23  C11 UNK     1      18.455   5.047  31.507  1.00  0.00    -0.001 A 
HETATM   24  C13 UNK     1      18.148   4.662  32.808  1.00  0.00     0.089 A 
HETATM   25  C15 UNK     1      18.528   6.409  31.205  1.00  0.00     0.014 A 
HETATM   26  O1  UNK     1      18.066   3.299  33.150  1.00  0.00    -0.274 OA
HETATM   27  C16 UNK     1      17.912   5.598  33.813  1.00  0.00     0.038 A 
HETATM   28  C14 UNK     1      18.285   2.291  32.215  1.00  0.00     0.304 A 
HETATM   29  O4  UNK     1      18.214   1.107  32.522  1.00  0.00    -0.259 OA
HETATM   30  C20 UNK     1      17.986   6.954  33.504  1.00  0.00     0.003 A 
HETATM   31  C19 UNK     1      18.293   7.359  32.203  1.00  0.00     0.001 A 
ENDBRANCH  18  21
ENDBRANCH   1  17
TORSDOF 9
ENDMDL
MODEL 10
REMARK VINA RESULT:      -8.5      4.168      6.984
REMARK  9 active torsions:
REMARK  status: ('A' for Active; 'I' for Inactive)
REMARK    1  A    between atoms: C5_11  and  N1_5 
REMARK       I    between atoms: C7_13  and  N1_5 
REMARK    2  A    between atoms: C6_12  and  N2_6 
REMARK       I    between atoms: C9_15  and  N2_6 
REMARK    3  A    between atoms: C1_7  and  C2_8 
REMARK    4  A    between atoms: C1_7  and  C3_9 
REMARK    5  A    between atoms: C2_8  and  C4_10 
REMARK    6  A    between atoms: C3_9  and  C5_11 
REMARK    7  A    between atoms: C4_10  and  C6_12 
REMARK    8  A    between atoms: C7_13  and  C8_14 
REMARK    9  A    between atoms: C12_18  and  C9_15 
ROOT
HETATM    1  C5  UNK     1      18.950  -2.311  36.761  1.00  0.00     0.123 C 
ENDROOT
BRANCH   1   2
HETATM    2  C3  UNK     1      18.011  -1.671  37.779  1.00  0.00     0.020 C 
BRANCH   2   3
HETATM    3  C1  UNK     1      17.575  -0.240  37.443  1.00  0.00     0.002 C 
BRANCH   3   4
HETATM    4  C2  UNK     1      18.302   0.351  36.233  1.00  0.00     0.002 C 
BRANCH   4   5
HETATM    5  C4  UNK     1      17.310   0.769  35.141  1.00  0.00     0.020 C 
BRANCH   5   6
HETATM    6  C6  UNK     1      17.946   0.806  33.756  1.00  0.00     0.123 C 
BRANCH   6   7
HETATM    7  N2  UNK     1      18.032   2.137  33.223  1.00  0.00    -0.357 N 
HETATM    8  C9  UNK     1      18.320   2.394  31.887  1.00  0.00     0.251 C 
HETATM    9  O3  UNK     1      18.526   1.530  31.039  1.00  0.00    -0.268 OA
HETATM   10  H14 UNK     1      18.001   2.901  33.889  1.00  0.00     0.162 HD
BRANCH   8  11
HETATM   11  C12 UNK     1      18.399   3.826  31.498  1.00  0.00     0.032 A 
HETATM   12  C17 UNK     1      17.863   4.805  32.334  1.00  0.00     0.017 A 
HETATM   13  C21 UNK     1      17.936   6.150  31.970  1.00  0.00     0.001 A 
HETATM   14  C23 UNK     1      18.544   6.514  30.769  1.00  0.00     0.000 A 
HETATM   15  C22 UNK     1      19.079   5.534  29.932  1.00  0.00     0.001 A 
HETATM   16  C18 UNK     1      19.006   4.190  30.297  1.00  0.00     0.017 A 
ENDBRANCH   8  11
ENDBRANCH   6   7
ENDBRANCH   5   6
ENDBRANCH   4   5
ENDBRANCH   3   4
ENDBRANCH   2   3
ENDBRANCH   1   2
BRANCH   1  17
HETATM   17  N1  UNK     1      18.979  -3.744  36.861  1.00  0.00    -0.357 N 
HETATM   18  C7  UNK     1      19.660  -4.551  35.964  1.00  0.00     0.257 C 
HETATM   19  O2  UNK     1      20.310  -4.175  34.994  1.00  0.00    -0.267 OA
HETATM   20  H13 UNK     1      18.464  -4.172  37.626  1.00  0.00     0.162 HD
BRANCH  18  21
HETATM   21  C8  UNK     1      19.544  -5.986  36.280  1.00  0.00     0.108 A 
HETATM   22  C10 UNK     1      20.676  -6.699  36.215  1.00  0.00     0.037 A 
HETATM   23  C11 UNK     1      20.662  -8.124  36.509  1.00  0.00    -0.001 A 
HETATM   24  C13 UNK     1      19.458  -8.728  36.856  1.00  0.00     0.089 A 
HETATM   25  C15 UNK     1      21.818  -8.906  36.453  1.00  0.00     0.014 A 
HETATM   26  O1  UNK     1      18.272  -7.972  36.924  1.00  0.00    -0.274 OA
HETATM   27  C16 UNK     1      19.377 -10.088  37.149  1.00  0.00     0.038 A 
HETATM   28  C14 UNK     1      18.252  -6.609  36.649  1.00  0.00     0.304 A 
HETATM   29  O4  UNK     1      17.214  -5.959  36.708  1.00  0.00    -0.259 OA
HETATM   30  C20 UNK     1      20.535 -10.861  37.091  1.00  0.00     0.003 A 
HETATM   31  C19 UNK     1      21.753 -10.272  36.744  1.00  0.00     0.001 A 
ENDBRANCH  18  21
ENDBRANCH   1  17
TORSDOF 9
ENDMDL
