MODEL 1
REMARK VINA RESULT:      -6.8      0.000      0.000
REMARK  2 active torsions:
REMARK  status: ('A' for Active; 'I' for Inactive)
REMARK    1  A    between atoms: C11_15  and  O2_3 
REMARK    2  A    between atoms: C5_9  and  O2_3 
ROOT
HETATM    1  I1  UNK     1      18.020   1.688  34.616  1.00  0.00    -0.039 I 
HETATM    2  O1  UNK     1      19.401  -0.556  32.866  1.00  0.00    -0.273 OA
HETATM    3  O3  UNK     1      20.269  -2.651  33.157  1.00  0.00    -0.260 OA
HETATM    4  C1  UNK     1      19.445   0.456  30.643  1.00  0.00     0.005 A 
HETATM    5  C2  UNK     1      19.117   0.517  31.998  1.00  0.00     0.109 A 
HETATM    6  C3  UNK     1      20.098  -0.757  30.130  1.00  0.00    -0.043 A 
HETATM    7  C4  UNK     1      19.128   1.565  29.846  1.00  0.00     0.017 A 
HETATM    8  C5  UNK     1      18.189   2.722  31.758  1.00  0.00     0.088 A 
HETATM    9  C6  UNK     1      18.496   1.631  32.565  1.00  0.00     0.074 A 
HETATM   10  C7  UNK     1      18.505   2.688  30.400  1.00  0.00     0.039 A 
HETATM   11  C8  UNK     1      20.357  -1.762  30.979  1.00  0.00     0.090 A 
HETATM   12  C9  UNK     1      20.463  -0.854  28.678  1.00  0.00     0.049 C 
HETATM   13  C10 UNK     1      20.017  -1.713  32.411  1.00  0.00     0.288 A 
ENDROOT
BRANCH   8  14
HETATM   14  O2  UNK     1      17.584   3.841  32.246  1.00  0.00    -0.350 OA
BRANCH  14  15
HETATM   15  C11 UNK     1      18.275   5.076  32.075  1.00  0.00     0.171 C 
HETATM   16  C12 UNK     1      18.872   5.495  33.403  1.00  0.00     0.034 C 
ENDBRANCH  14  15
ENDBRANCH   8  14
TORSDOF 2
ENDMDL
MODEL 2
REMARK VINA RESULT:      -6.5      2.056      4.866
REMARK  2 active torsions:
REMARK  status: ('A' for Active; 'I' for Inactive)
REMARK    1  A    between atoms: C11_15  and  O2_3 
REMARK    2  A    between atoms: C5_9  and  O2_3 
ROOT
HETATM    1  I1  UNK     1      17.649   0.542  34.816  1.00  0.00    -0.039 I 
HETATM    2  O1  UNK     1      18.403   1.083  31.792  1.00  0.00    -0.273 OA
HETATM    3  O3  UNK     1      17.928   2.619  30.166  1.00  0.00    -0.260 OA
HETATM    4  C1  UNK     1      19.903  -0.775  31.278  1.00  0.00     0.005 A 
HETATM    5  C2  UNK     1      19.084  -0.089  32.176  1.00  0.00     0.109 A 
HETATM    6  C3  UNK     1      20.045  -0.251  29.913  1.00  0.00    -0.043 A 
HETATM    7  C4  UNK     1      20.546  -1.933  31.739  1.00  0.00     0.017 A 
HETATM    8  C5  UNK     1      19.543  -1.669  33.929  1.00  0.00     0.088 A 
HETATM    9  C6  UNK     1      18.896  -0.519  33.491  1.00  0.00     0.074 A 
HETATM   10  C7  UNK     1      20.367  -2.375  33.053  1.00  0.00     0.039 A 
HETATM   11  C8  UNK     1      19.384   0.865  29.575  1.00  0.00     0.090 A 
HETATM   12  C9  UNK     1      20.918  -0.966  28.923  1.00  0.00     0.049 C 
HETATM   13  C10 UNK     1      18.517   1.600  30.511  1.00  0.00     0.288 A 
ENDROOT
BRANCH   8  14
HETATM   14  O2  UNK     1      19.403  -2.145  35.198  1.00  0.00    -0.350 OA
BRANCH  14  15
HETATM   15  C11 UNK     1      20.599  -2.382  35.936  1.00  0.00     0.171 C 
HETATM   16  C12 UNK     1      20.261  -3.169  37.185  1.00  0.00     0.034 C 
ENDBRANCH  14  15
ENDBRANCH   8  14
TORSDOF 2
ENDMDL
MODEL 3
REMARK VINA RESULT:      -6.4      2.579      3.888
REMARK  2 active torsions:
REMARK  status: ('A' for Active; 'I' for Inactive)
REMARK    1  A    between atoms: C11_15  and  O2_3 
REMARK    2  A    between atoms: C5_9  and  O2_3 
ROOT
HETATM    1  I1  UNK     1      18.363   2.354  29.571  1.00  0.00    -0.039 I 
HETATM    2  O1  UNK     1      18.466   0.673  32.250  1.00  0.00    -0.273 OA
HETATM    3  O3  UNK     1      18.626  -1.519  32.881  1.00  0.00    -0.260 OA
HETATM    4  C1  UNK     1      18.312   2.402  33.968  1.00  0.00     0.005 A 
HETATM    5  C2  UNK     1      18.356   2.027  32.625  1.00  0.00     0.109 A 
HETATM    6  C3  UNK     1      18.382   1.354  34.995  1.00  0.00    -0.043 A 
HETATM    7  C4  UNK     1      18.204   3.770  34.258  1.00  0.00     0.017 A 
HETATM    8  C5  UNK     1      18.190   4.312  31.895  1.00  0.00     0.088 A 
HETATM    9  C6  UNK     1      18.297   2.960  31.588  1.00  0.00     0.074 A 
HETATM   10  C7  UNK     1      18.144   4.716  33.229  1.00  0.00     0.039 A 
HETATM   11  C8  UNK     1      18.484   0.074  34.609  1.00  0.00     0.090 A 
HETATM   12  C9  UNK     1      18.337   1.725  36.449  1.00  0.00     0.049 C 
HETATM   13  C10 UNK     1      18.532  -0.338  33.196  1.00  0.00     0.288 A 
ENDROOT
BRANCH   8  14
HETATM   14  O2  UNK     1      18.126   5.275  30.933  1.00  0.00    -0.350 OA
BRANCH  14  15
HETATM   15  C11 UNK     1      19.113   6.303  30.980  1.00  0.00     0.171 C 
HETATM   16  C12 UNK     1      20.365   5.818  30.280  1.00  0.00     0.034 C 
ENDBRANCH  14  15
ENDBRANCH   8  14
TORSDOF 2
ENDMDL
MODEL 4
REMARK VINA RESULT:      -6.2      4.365      8.868
REMARK  2 active torsions:
REMARK  status: ('A' for Active; 'I' for Inactive)
REMARK    1  A    between atoms: C11_15  and  O2_3 
REMARK    2  A    between atoms: C5_9  and  O2_3 
ROOT
HETATM    1  I1  UNK     1      15.011   7.264  32.275  1.00  0.00    -0.039 I 
HETATM    2  O1  UNK     1      16.829   9.576  33.440  1.00  0.00    -0.273 OA
HETATM    3  O3  UNK     1      16.624  11.780  34.012  1.00  0.00    -0.260 OA
HETATM    4  C1  UNK     1      18.987   8.467  33.715  1.00  0.00     0.005 A 
HETATM    5  C2  UNK     1      17.645   8.432  33.336  1.00  0.00     0.109 A 
HETATM    6  C3  UNK     1      19.542   9.727  34.228  1.00  0.00    -0.043 A 
HETATM    7  C4  UNK     1      19.731   7.286  33.583  1.00  0.00     0.017 A 
HETATM    8  C5  UNK     1      17.795   6.114  32.716  1.00  0.00     0.088 A 
HETATM    9  C6  UNK     1      17.040   7.276  32.840  1.00  0.00     0.074 A 
HETATM   10  C7  UNK     1      19.138   6.120  33.087  1.00  0.00     0.039 A 
HETATM   11  C8  UNK     1      18.743  10.799  34.315  1.00  0.00     0.090 A 
HETATM   12  C9  UNK     1      20.983   9.797  34.645  1.00  0.00     0.049 C 
HETATM   13  C10 UNK     1      17.325  10.779  33.919  1.00  0.00     0.288 A 
ENDROOT
BRANCH   8  14
HETATM   14  O2  UNK     1      17.268   4.952  32.238  1.00  0.00    -0.350 OA
BRANCH  14  15
HETATM   15  C11 UNK     1      18.150   3.836  32.136  1.00  0.00     0.171 C 
HETATM   16  C12 UNK     1      18.556   3.658  30.688  1.00  0.00     0.034 C 
ENDBRANCH  14  15
ENDBRANCH   8  14
TORSDOF 2
ENDMDL
MODEL 5
REMARK VINA RESULT:      -6.2      1.982      5.064
REMARK  2 active torsions:
REMARK  status: ('A' for Active; 'I' for Inactive)
REMARK    1  A    between atoms: C11_15  and  O2_3 
REMARK    2  A    between atoms: C5_9  and  O2_3 
ROOT
HETATM    1  I1  UNK     1      17.720   1.321  36.217  1.00  0.00    -0.039 I 
HETATM    2  O1  UNK     1      17.979   2.641  33.354  1.00  0.00    -0.273 OA
HETATM    3  O3  UNK     1      17.636   4.682  32.382  1.00  0.00    -0.260 OA
HETATM    4  C1  UNK     1      18.769   0.782  31.981  1.00  0.00     0.005 A 
HETATM    5  C2  UNK     1      18.369   1.294  33.216  1.00  0.00     0.109 A 
HETATM    6  C3  UNK     1      18.777   1.677  30.816  1.00  0.00    -0.043 A 
HETATM    7  C4  UNK     1      19.143  -0.568  31.928  1.00  0.00     0.017 A 
HETATM    8  C5  UNK     1      18.709  -0.826  34.298  1.00  0.00     0.088 A 
HETATM    9  C6  UNK     1      18.334   0.512  34.371  1.00  0.00     0.074 A 
HETATM   10  C7  UNK     1      19.113  -1.364  33.078  1.00  0.00     0.039 A 
HETATM   11  C8  UNK     1      18.399   2.953  30.977  1.00  0.00     0.090 A 
HETATM   12  C9  UNK     1      19.202   1.157  29.474  1.00  0.00     0.049 C 
HETATM   13  C10 UNK     1      17.975   3.509  32.273  1.00  0.00     0.288 A 
ENDROOT
BRANCH   8  14
HETATM   14  O2  UNK     1      18.697  -1.646  35.386  1.00  0.00    -0.350 OA
BRANCH  14  15
HETATM   15  C11 UNK     1      19.961  -2.065  35.894  1.00  0.00     0.171 C 
HETATM   16  C12 UNK     1      19.825  -3.461  36.465  1.00  0.00     0.034 C 
ENDBRANCH  14  15
ENDBRANCH   8  14
TORSDOF 2
ENDMDL
MODEL 6
REMARK VINA RESULT:      -6.2      1.381      5.471
REMARK  2 active torsions:
REMARK  status: ('A' for Active; 'I' for Inactive)
REMARK    1  A    between atoms: C11_15  and  O2_3 
REMARK    2  A    between atoms: C5_9  and  O2_3 
ROOT
HETATM    1  I1  UNK     1      17.879   1.177  34.525  1.00  0.00    -0.039 I 
HETATM    2  O1  UNK     1      17.928   4.181  33.535  1.00  0.00    -0.273 OA
HETATM    3  O3  UNK     1      17.522   6.263  34.388  1.00  0.00    -0.260 OA
HETATM    4  C1  UNK     1      18.606   3.959  31.199  1.00  0.00     0.005 A 
HETATM    5  C2  UNK     1      18.302   3.385  32.433  1.00  0.00     0.109 A 
HETATM    6  C3  UNK     1      18.530   5.420  31.063  1.00  0.00    -0.043 A 
HETATM    7  C4  UNK     1      18.970   3.098  30.154  1.00  0.00     0.017 A 
HETATM    8  C5  UNK     1      18.714   1.168  31.598  1.00  0.00     0.088 A 
HETATM    9  C6  UNK     1      18.350   2.006  32.647  1.00  0.00     0.074 A 
HETATM   10  C7  UNK     1      19.023   1.714  30.353  1.00  0.00     0.039 A 
HETATM   11  C8  UNK     1      18.171   6.152  32.127  1.00  0.00     0.090 A 
HETATM   12  C9  UNK     1      18.852   6.068  29.748  1.00  0.00     0.049 C 
HETATM   13  C10 UNK     1      17.847   5.562  33.436  1.00  0.00     0.288 A 
ENDROOT
BRANCH   8  14
HETATM   14  O2  UNK     1      18.780  -0.185  31.737  1.00  0.00    -0.350 OA
BRANCH  14  15
HETATM   15  C11 UNK     1      19.846  -0.853  31.067  1.00  0.00     0.171 C 
HETATM   16  C12 UNK     1      20.442  -1.889  31.997  1.00  0.00     0.034 C 
ENDBRANCH  14  15
ENDBRANCH   8  14
TORSDOF 2
ENDMDL
MODEL 7
REMARK VINA RESULT:      -5.9      2.722      4.674
REMARK  2 active torsions:
REMARK  status: ('A' for Active; 'I' for Inactive)
REMARK    1  A    between atoms: C11_15  and  O2_3 
REMARK    2  A    between atoms: C5_9  and  O2_3 
ROOT
HETATM    1  I1  UNK     1      18.477  -0.914  33.184  1.00  0.00    -0.039 I 
HETATM    2  O1  UNK     1      18.615   1.317  30.945  1.00  0.00    -0.273 OA
HETATM    3  O3  UNK     1      18.806   1.439  28.671  1.00  0.00    -0.260 OA
HETATM    4  C1  UNK     1      18.462   3.381  32.243  1.00  0.00     0.005 A 
HETATM    5  C2  UNK     1      18.497   1.987  32.180  1.00  0.00     0.109 A 
HETATM    6  C3  UNK     1      18.551   4.146  30.992  1.00  0.00    -0.043 A 
HETATM    7  C4  UNK     1      18.342   3.971  33.509  1.00  0.00     0.017 A 
HETATM    8  C5  UNK     1      18.298   1.791  34.567  1.00  0.00     0.088 A 
HETATM    9  C6  UNK     1      18.417   1.187  33.320  1.00  0.00     0.074 A 
HETATM   10  C7  UNK     1      18.260   3.181  34.661  1.00  0.00     0.039 A 
HETATM   11  C8  UNK     1      18.664   3.481  29.833  1.00  0.00     0.090 A 
HETATM   12  C9  UNK     1      18.516   5.646  31.027  1.00  0.00     0.049 C 
HETATM   13  C10 UNK     1      18.701   2.012  29.749  1.00  0.00     0.288 A 
ENDROOT
BRANCH   8  14
HETATM   14  O2  UNK     1      18.217   1.070  35.721  1.00  0.00    -0.350 OA
BRANCH  14  15
HETATM   15  C11 UNK     1      17.138   1.377  36.601  1.00  0.00     0.171 C 
HETATM   16  C12 UNK     1      17.567   1.093  38.025  1.00  0.00     0.034 C 
ENDBRANCH  14  15
ENDBRANCH   8  14
TORSDOF 2
ENDMDL
MODEL 8
REMARK VINA RESULT:      -5.9     23.637     25.210
REMARK  2 active torsions:
REMARK  status: ('A' for Active; 'I' for Inactive)
REMARK    1  A    between atoms: C11_15  and  O2_3 
REMARK    2  A    between atoms: C5_9  and  O2_3 
ROOT
HETATM    1  I1  UNK     1      12.948   9.282  11.248  1.00  0.00    -0.039 I 
HETATM    2  O1  UNK     1      10.324   8.315   9.770  1.00  0.00    -0.273 OA
HETATM    3  O3  UNK     1       8.059   8.466  10.046  1.00  0.00    -0.260 OA
HETATM    4  C1  UNK     1      11.214   7.096   7.850  1.00  0.00     0.005 A 
HETATM    5  C2  UNK     1      11.414   7.841   9.013  1.00  0.00     0.109 A 
HETATM    6  C3  UNK     1       9.837   6.809   7.424  1.00  0.00    -0.043 A 
HETATM    7  C4  UNK     1      12.351   6.662   7.153  1.00  0.00     0.017 A 
HETATM    8  C5  UNK     1      13.803   7.719   8.780  1.00  0.00     0.088 A 
HETATM    9  C6  UNK     1      12.688   8.157   9.486  1.00  0.00     0.074 A 
HETATM   10  C7  UNK     1      13.634   6.972   7.615  1.00  0.00     0.039 A 
HETATM   11  C8  UNK     1       8.821   7.272   8.165  1.00  0.00     0.090 A 
HETATM   12  C9  UNK     1       9.590   6.010   6.178  1.00  0.00     0.049 C 
HETATM   13  C10 UNK     1       9.014   8.059   9.393  1.00  0.00     0.288 A 
ENDROOT
BRANCH   8  14
HETATM   14  O2  UNK     1      15.075   7.991   9.186  1.00  0.00    -0.350 OA
BRANCH  14  15
HETATM   15  C11 UNK     1      15.795   6.931   9.812  1.00  0.00     0.171 C 
HETATM   16  C12 UNK     1      17.164   7.437  10.217  1.00  0.00     0.034 C 
ENDBRANCH  14  15
ENDBRANCH   8  14
TORSDOF 2
ENDMDL
MODEL 9
REMARK VINA RESULT:      -5.8     13.331     15.368
REMARK  2 active torsions:
REMARK  status: ('A' for Active; 'I' for Inactive)
REMARK    1  A    between atoms: C11_15  and  O2_3 
REMARK    2  A    between atoms: C5_9  and  O2_3 
ROOT
HETATM    1  I1  UNK     1      12.819  12.651  20.662  1.00  0.00    -0.039 I 
HETATM    2  O1  UNK     1      12.669  10.516  22.992  1.00  0.00    -0.273 OA
HETATM    3  O3  UNK     1      12.380  10.487  25.260  1.00  0.00    -0.260 OA
HETATM    4  C1  UNK     1      12.977   8.406  21.800  1.00  0.00     0.005 A 
HETATM    5  C2  UNK     1      12.877   9.798  21.797  1.00  0.00     0.109 A 
HETATM    6  C3  UNK     1      12.863   7.694  23.081  1.00  0.00    -0.043 A 
HETATM    7  C4  UNK     1      13.182   7.767  20.569  1.00  0.00     0.017 A 
HETATM    8  C5  UNK     1      13.176   9.897  19.414  1.00  0.00     0.088 A 
HETATM    9  C6  UNK     1      12.973  10.550  20.625  1.00  0.00     0.074 A 
HETATM   10  C7  UNK     1      13.280   8.507  19.387  1.00  0.00     0.039 A 
HETATM   11  C8  UNK     1      12.667   8.403  24.201  1.00  0.00     0.090 A 
HETATM   12  C9  UNK     1      12.967   6.197  23.117  1.00  0.00     0.049 C 
HETATM   13  C10 UNK     1      12.559   9.871  24.215  1.00  0.00     0.288 A 
ENDROOT
BRANCH   8  14
HETATM   14  O2  UNK     1      13.281  10.570  18.233  1.00  0.00    -0.350 OA
BRANCH  14  15
HETATM   15  C11 UNK     1      14.432  10.302  17.436  1.00  0.00     0.171 C 
HETATM   16  C12 UNK     1      13.991   9.981  16.023  1.00  0.00     0.034 C 
ENDBRANCH  14  15
ENDBRANCH   8  14
TORSDOF 2
ENDMDL
MODEL 10
REMARK VINA RESULT:      -5.8      3.278      4.827
REMARK  2 active torsions:
REMARK  status: ('A' for Active; 'I' for Inactive)
REMARK    1  A    between atoms: C11_15  and  O2_3 
REMARK    2  A    between atoms: C5_9  and  O2_3 
ROOT
HETATM    1  I1  UNK     1      19.663  -1.744  31.990  1.00  0.00    -0.039 I 
HETATM    2  O1  UNK     1      18.943  -1.749  35.070  1.00  0.00    -0.273 OA
HETATM    3  O3  UNK     1      18.998  -3.207  36.830  1.00  0.00    -0.260 OA
HETATM    4  C1  UNK     1      18.122   0.523  35.427  1.00  0.00     0.005 A 
HETATM    5  C2  UNK     1      18.640  -0.461  34.585  1.00  0.00     0.109 A 
HETATM    6  C3  UNK     1      17.896   0.193  36.841  1.00  0.00    -0.043 A 
HETATM    7  C4  UNK     1      17.848   1.779  34.867  1.00  0.00     0.017 A 
HETATM    8  C5  UNK     1      18.607   1.022  32.693  1.00  0.00     0.088 A 
HETATM    9  C6  UNK     1      18.885  -0.230  33.230  1.00  0.00     0.074 A 
HETATM   10  C7  UNK     1      18.089   2.026  33.512  1.00  0.00     0.039 A 
HETATM   11  C8  UNK     1      18.193  -1.040  37.274  1.00  0.00     0.090 A 
HETATM   12  C9  UNK     1      17.341   1.231  37.773  1.00  0.00     0.049 C 
HETATM   13  C10 UNK     1      18.739  -2.089  36.399  1.00  0.00     0.288 A 
ENDROOT
BRANCH   8  14
HETATM   14  O2  UNK     1      18.821   1.316  31.380  1.00  0.00    -0.350 OA
BRANCH  14  15
HETATM   15  C11 UNK     1      18.349   2.577  30.914  1.00  0.00     0.171 C 
HETATM   16  C12 UNK     1      18.119   2.496  29.419  1.00  0.00     0.034 C 
ENDBRANCH  14  15
ENDBRANCH   8  14
TORSDOF 2
ENDMDL
