MODEL 1
REMARK VINA RESULT:      -9.6      0.000      0.000
REMARK  6 active torsions:
REMARK  status: ('A' for Active; 'I' for Inactive)
REMARK    1  A    between atoms: C10_15  and  S1_1 
REMARK    2  A    between atoms: C5_10  and  S1_1 
REMARK       I    between atoms: C12_17  and  N3_5 
REMARK    3  A    between atoms: C9_14  and  N3_5 
REMARK    4  A    between atoms: C10_15  and  C12_17 
REMARK    5  A    between atoms: C11_16  and  C17_22 
REMARK    6  A    between atoms: C18_23  and  C19_24 
ROOT
HETATM    1  O1  UNK     1      17.313   1.704  29.650  1.00  0.00    -0.272 OA
HETATM    2  N3  UNK     1      19.333   2.761  30.217  1.00  0.00    -0.327 N 
HETATM    3  C12 UNK     1      18.538   1.730  29.729  1.00  0.00     0.231 C 
HETATM    4  H10 UNK     1      20.340   2.613  30.227  1.00  0.00     0.169 HD
ENDROOT
BRANCH   2   5
HETATM    5  C9  UNK     1      18.908   4.016  30.714  1.00  0.00     0.034 A 
HETATM    6  C13 UNK     1      19.188   5.163  29.989  1.00  0.00     0.030 A 
HETATM    7  C15 UNK     1      18.771   6.399  30.480  1.00  0.00     0.013 A 
HETATM    8  C11 UNK     1      18.078   6.472  31.688  1.00  0.00    -0.036 A 
HETATM    9  C16 UNK     1      17.802   5.308  32.406  1.00  0.00     0.013 A 
HETATM   10  C14 UNK     1      18.220   4.071  31.915  1.00  0.00     0.030 A 
BRANCH   8  11
HETATM   11  C17 UNK     1      17.641   7.762  32.199  1.00  0.00     0.012 C 
HETATM   12  C19 UNK     1      18.111   8.357  33.321  1.00  0.00     0.012 C 
BRANCH  12  13
HETATM   13  C18 UNK     1      17.682   9.672  33.829  1.00  0.00    -0.036 A 
HETATM   14  C20 UNK     1      16.365   9.852  34.216  1.00  0.00     0.011 A 
HETATM   15  C22 UNK     1      15.958  11.098  34.697  1.00  0.00     0.001 A 
HETATM   16  C24 UNK     1      16.876  12.145  34.784  1.00  0.00     0.000 A 
HETATM   17  C23 UNK     1      18.199  11.947  34.389  1.00  0.00     0.001 A 
HETATM   18  C21 UNK     1      18.605  10.702  33.909  1.00  0.00     0.011 A 
ENDBRANCH  12  13
ENDBRANCH   8  11
ENDBRANCH   2   5
BRANCH   3  19
HETATM   19  C10 UNK     1      19.361   0.540  29.287  1.00  0.00     0.185 C 
BRANCH  19  20
HETATM   20  S1  UNK     1      20.366  -0.040  30.701  1.00  0.00    -0.083 SA
BRANCH  20  21
HETATM   21  C5  UNK     1      19.227  -0.144  31.989  1.00  0.00     0.168 A 
HETATM   22  N1  UNK     1      19.119   0.866  32.905  1.00  0.00    -0.333 N 
HETATM   23  C1  UNK     1      18.145   0.514  33.803  1.00  0.00     0.063 A 
HETATM   24  H2  UNK     1      19.662   1.719  32.918  1.00  0.00     0.168 HD
HETATM   25  C2  UNK     1      17.703  -0.732  33.364  1.00  0.00     0.086 A 
HETATM   26  C3  UNK     1      17.628   1.158  34.928  1.00  0.00     0.038 A 
HETATM   27  N2  UNK     1      18.387  -1.124  32.236  1.00  0.00    -0.223 NA
HETATM   28  C6  UNK     1      16.686  -1.387  34.077  1.00  0.00     0.034 A 
HETATM   29  C7  UNK     1      16.151  -0.760  35.210  1.00  0.00     0.009 A 
HETATM   30  C4  UNK     1      16.616   0.490  35.625  1.00  0.00    -0.060 A 
HETATM   31  C8  UNK     1      16.022   1.128  36.838  1.00  0.00     0.048 C 
ENDBRANCH  20  21
ENDBRANCH  19  20
ENDBRANCH   3  19
TORSDOF 6
ENDMDL
MODEL 2
REMARK VINA RESULT:      -9.5      1.617      2.132
REMARK  6 active torsions:
REMARK  status: ('A' for Active; 'I' for Inactive)
REMARK    1  A    between atoms: C10_15  and  S1_1 
REMARK    2  A    between atoms: C5_10  and  S1_1 
REMARK       I    between atoms: C12_17  and  N3_5 
REMARK    3  A    between atoms: C9_14  and  N3_5 
REMARK    4  A    between atoms: C10_15  and  C12_17 
REMARK    5  A    between atoms: C11_16  and  C17_22 
REMARK    6  A    between atoms: C18_23  and  C19_24 
ROOT
HETATM    1  O1  UNK     1      21.125   0.468  30.876  1.00  0.00    -0.272 OA
HETATM    2  N3  UNK     1      18.803   0.805  30.745  1.00  0.00    -0.327 N 
HETATM    3  C12 UNK     1      19.980   0.067  30.686  1.00  0.00     0.231 C 
HETATM    4  H10 UNK     1      17.933   0.318  30.543  1.00  0.00     0.169 HD
ENDROOT
BRANCH   2   5
HETATM    5  C9  UNK     1      18.663   2.179  31.055  1.00  0.00     0.034 A 
HETATM    6  C13 UNK     1      18.290   2.550  32.336  1.00  0.00     0.030 A 
HETATM    7  C15 UNK     1      18.149   3.903  32.641  1.00  0.00     0.013 A 
HETATM    8  C11 UNK     1      18.384   4.867  31.661  1.00  0.00    -0.036 A 
HETATM    9  C16 UNK     1      18.760   4.477  30.374  1.00  0.00     0.013 A 
HETATM   10  C14 UNK     1      18.900   3.123  30.070  1.00  0.00     0.030 A 
BRANCH   8  11
HETATM   11  C17 UNK     1      18.239   6.278  31.979  1.00  0.00     0.012 C 
HETATM   12  C19 UNK     1      18.110   6.789  33.226  1.00  0.00     0.012 C 
BRANCH  12  13
HETATM   13  C18 UNK     1      17.982   8.220  33.550  1.00  0.00    -0.036 A 
HETATM   14  C20 UNK     1      16.735   8.819  33.494  1.00  0.00     0.011 A 
HETATM   15  C22 UNK     1      16.613  10.175  33.800  1.00  0.00     0.001 A 
HETATM   16  C24 UNK     1      17.742  10.913  34.157  1.00  0.00     0.000 A 
HETATM   17  C23 UNK     1      18.991  10.295  34.208  1.00  0.00     0.001 A 
HETATM   18  C21 UNK     1      19.112   8.940  33.902  1.00  0.00     0.011 A 
ENDBRANCH  12  13
ENDBRANCH   8  11
ENDBRANCH   2   5
BRANCH   3  19
HETATM   19  C10 UNK     1      19.724  -1.380  30.321  1.00  0.00     0.185 C 
BRANCH  19  20
HETATM   20  S1  UNK     1      19.972  -2.416  31.807  1.00  0.00    -0.083 SA
BRANCH  20  21
HETATM   21  C5  UNK     1      19.075  -1.593  33.026  1.00  0.00     0.168 A 
HETATM   22  N1  UNK     1      19.647  -1.303  34.234  1.00  0.00    -0.333 N 
HETATM   23  C1  UNK     1      18.709  -0.655  34.996  1.00  0.00     0.063 A 
HETATM   24  H2  UNK     1      20.592  -1.529  34.515  1.00  0.00     0.168 HD
HETATM   25  C2  UNK     1      17.585  -0.586  34.177  1.00  0.00     0.086 A 
HETATM   26  C3  UNK     1      18.747  -0.138  36.292  1.00  0.00     0.038 A 
HETATM   27  N2  UNK     1      17.831  -1.174  32.958  1.00  0.00    -0.223 NA
HETATM   28  C6  UNK     1      16.421   0.031  34.664  1.00  0.00     0.034 A 
HETATM   29  C7  UNK     1      16.435   0.558  35.962  1.00  0.00     0.009 A 
HETATM   30  C4  UNK     1      17.578   0.473  36.759  1.00  0.00    -0.060 A 
HETATM   31  C8  UNK     1      17.556   1.046  38.138  1.00  0.00     0.048 C 
ENDBRANCH  20  21
ENDBRANCH  19  20
ENDBRANCH   3  19
TORSDOF 6
ENDMDL
MODEL 3
REMARK VINA RESULT:      -9.5      1.557      2.022
REMARK  6 active torsions:
REMARK  status: ('A' for Active; 'I' for Inactive)
REMARK    1  A    between atoms: C10_15  and  S1_1 
REMARK    2  A    between atoms: C5_10  and  S1_1 
REMARK       I    between atoms: C12_17  and  N3_5 
REMARK    3  A    between atoms: C9_14  and  N3_5 
REMARK    4  A    between atoms: C10_15  and  C12_17 
REMARK    5  A    between atoms: C11_16  and  C17_22 
REMARK    6  A    between atoms: C18_23  and  C19_24 
ROOT
HETATM    1  O1  UNK     1      17.905   2.740  28.143  1.00  0.00    -0.272 OA
HETATM    2  N3  UNK     1      18.717   2.421  30.325  1.00  0.00    -0.327 N 
HETATM    3  C12 UNK     1      18.358   2.033  29.039  1.00  0.00     0.231 C 
HETATM    4  H10 UNK     1      19.063   1.699  30.953  1.00  0.00     0.169 HD
ENDROOT
BRANCH   2   5
HETATM    5  C9  UNK     1      18.655   3.721  30.881  1.00  0.00     0.034 A 
HETATM    6  C13 UNK     1      19.323   4.759  30.252  1.00  0.00     0.030 A 
HETATM    7  C15 UNK     1      19.264   6.040  30.801  1.00  0.00     0.013 A 
HETATM    8  C11 UNK     1      18.538   6.264  31.970  1.00  0.00    -0.036 A 
HETATM    9  C16 UNK     1      17.870   5.208  32.592  1.00  0.00     0.013 A 
HETATM   10  C14 UNK     1      17.929   3.927  32.042  1.00  0.00     0.030 A 
BRANCH   8  11
HETATM   11  C17 UNK     1      18.476   7.600  32.542  1.00  0.00     0.012 C 
HETATM   12  C19 UNK     1      17.361   8.184  33.043  1.00  0.00     0.012 C 
BRANCH  12  13
HETATM   13  C18 UNK     1      17.301   9.530  33.639  1.00  0.00    -0.036 A 
HETATM   14  C20 UNK     1      16.081  10.031  34.061  1.00  0.00     0.011 A 
HETATM   15  C22 UNK     1      16.024  11.306  34.625  1.00  0.00     0.001 A 
HETATM   16  C24 UNK     1      17.189  12.062  34.760  1.00  0.00     0.000 A 
HETATM   17  C23 UNK     1      18.411  11.542  34.330  1.00  0.00     0.001 A 
HETATM   18  C21 UNK     1      18.467  10.268  33.765  1.00  0.00     0.011 A 
ENDBRANCH  12  13
ENDBRANCH   8  11
ENDBRANCH   2   5
BRANCH   3  19
HETATM   19  C10 UNK     1      18.566   0.550  28.815  1.00  0.00     0.185 C 
BRANCH  19  20
HETATM   20  S1  UNK     1      20.193   0.074  29.501  1.00  0.00    -0.083 SA
BRANCH  20  21
HETATM   21  C5  UNK     1      19.819  -0.455  31.098  1.00  0.00     0.168 A 
HETATM   22  N1  UNK     1      20.562  -1.432  31.699  1.00  0.00    -0.333 N 
HETATM   23  C1  UNK     1      20.040  -1.645  32.949  1.00  0.00     0.063 A 
HETATM   24  H2  UNK     1      21.355  -1.912  31.294  1.00  0.00     0.168 HD
HETATM   25  C2  UNK     1      18.974  -0.754  33.036  1.00  0.00     0.086 A 
HETATM   26  C3  UNK     1      20.397  -2.516  33.980  1.00  0.00     0.038 A 
HETATM   27  N2  UNK     1      18.852  -0.023  31.877  1.00  0.00    -0.223 NA
HETATM   28  C6  UNK     1      18.209  -0.715  34.213  1.00  0.00     0.034 A 
HETATM   29  C7  UNK     1      18.549  -1.579  35.262  1.00  0.00     0.009 A 
HETATM   30  C4  UNK     1      19.624  -2.462  35.144  1.00  0.00    -0.060 A 
HETATM   31  C8  UNK     1      19.958  -3.369  36.284  1.00  0.00     0.048 C 
ENDBRANCH  20  21
ENDBRANCH  19  20
ENDBRANCH   3  19
TORSDOF 6
ENDMDL
MODEL 4
REMARK VINA RESULT:      -9.4      4.141     10.369
REMARK  6 active torsions:
REMARK  status: ('A' for Active; 'I' for Inactive)
REMARK    1  A    between atoms: C10_15  and  S1_1 
REMARK    2  A    between atoms: C5_10  and  S1_1 
REMARK       I    between atoms: C12_17  and  N3_5 
REMARK    3  A    between atoms: C9_14  and  N3_5 
REMARK    4  A    between atoms: C10_15  and  C12_17 
REMARK    5  A    between atoms: C11_16  and  C17_22 
REMARK    6  A    between atoms: C18_23  and  C19_24 
ROOT
HETATM    1  O1  UNK     1      21.175   0.248  30.655  1.00  0.00    -0.272 OA
HETATM    2  N3  UNK     1      19.018  -0.223  31.460  1.00  0.00    -0.327 N 
HETATM    3  C12 UNK     1      19.951   0.333  30.592  1.00  0.00     0.231 C 
HETATM    4  H10 UNK     1      18.034  -0.040  31.272  1.00  0.00     0.169 HD
ENDROOT
BRANCH   2   5
HETATM    5  C9  UNK     1      19.271  -1.025  32.598  1.00  0.00     0.034 A 
HETATM    6  C13 UNK     1      20.194  -2.054  32.510  1.00  0.00     0.030 A 
HETATM    7  C15 UNK     1      20.442  -2.846  33.631  1.00  0.00     0.013 A 
HETATM    8  C11 UNK     1      19.765  -2.598  34.824  1.00  0.00    -0.036 A 
HETATM    9  C16 UNK     1      18.839  -1.556  34.897  1.00  0.00     0.013 A 
HETATM   10  C14 UNK     1      18.591  -0.764  33.776  1.00  0.00     0.030 A 
BRANCH   8  11
HETATM   11  C17 UNK     1      20.025  -3.423  35.993  1.00  0.00     0.012 C 
HETATM   12  C19 UNK     1      19.916  -4.772  36.037  1.00  0.00     0.012 C 
BRANCH  12  13
HETATM   13  C18 UNK     1      20.197  -5.609  37.216  1.00  0.00    -0.036 A 
HETATM   14  C20 UNK     1      21.394  -5.447  37.893  1.00  0.00     0.011 A 
HETATM   15  C22 UNK     1      21.660  -6.241  39.010  1.00  0.00     0.001 A 
HETATM   16  C24 UNK     1      20.725  -7.186  39.433  1.00  0.00     0.000 A 
HETATM   17  C23 UNK     1      19.524  -7.337  38.739  1.00  0.00     0.001 A 
HETATM   18  C21 UNK     1      19.259  -6.544  37.623  1.00  0.00     0.011 A 
ENDBRANCH  12  13
ENDBRANCH   8  11
ENDBRANCH   2   5
BRANCH   3  19
HETATM   19  C10 UNK     1      19.292   1.133  29.488  1.00  0.00     0.185 C 
BRANCH  19  20
HETATM   20  S1  UNK     1      17.751   1.874  30.136  1.00  0.00    -0.083 SA
BRANCH  20  21
HETATM   21  C5  UNK     1      18.298   3.283  30.964  1.00  0.00     0.168 A 
HETATM   22  N1  UNK     1      17.781   3.617  32.184  1.00  0.00    -0.333 N 
HETATM   23  C1  UNK     1      18.396   4.771  32.597  1.00  0.00     0.063 A 
HETATM   24  H2  UNK     1      17.071   3.105  32.691  1.00  0.00     0.168 HD
HETATM   25  C2  UNK     1      19.281   5.080  31.567  1.00  0.00     0.086 A 
HETATM   26  C3  UNK     1      18.258   5.549  33.748  1.00  0.00     0.038 A 
HETATM   27  N2  UNK     1      19.206   4.144  30.561  1.00  0.00    -0.223 NA
HETATM   28  C6  UNK     1      20.083   6.228  31.675  1.00  0.00     0.034 A 
HETATM   29  C7  UNK     1      19.962   7.023  32.821  1.00  0.00     0.009 A 
HETATM   30  C4  UNK     1      19.065   6.688  33.838  1.00  0.00    -0.060 A 
HETATM   31  C8  UNK     1      18.963   7.560  35.046  1.00  0.00     0.048 C 
ENDBRANCH  20  21
ENDBRANCH  19  20
ENDBRANCH   3  19
TORSDOF 6
ENDMDL
MODEL 5
REMARK VINA RESULT:      -9.2      6.109      8.085
REMARK  6 active torsions:
REMARK  status: ('A' for Active; 'I' for Inactive)
REMARK    1  A    between atoms: C10_15  and  S1_1 
REMARK    2  A    between atoms: C5_10  and  S1_1 
REMARK       I    between atoms: C12_17  and  N3_5 
REMARK    3  A    between atoms: C9_14  and  N3_5 
REMARK    4  A    between atoms: C10_15  and  C12_17 
REMARK    5  A    between atoms: C11_16  and  C17_22 
REMARK    6  A    between atoms: C18_23  and  C19_24 
ROOT
HETATM    1  O1  UNK     1      21.374  -2.364  35.954  1.00  0.00    -0.272 OA
HETATM    2  N3  UNK     1      19.035  -2.157  36.051  1.00  0.00    -0.327 N 
HETATM    3  C12 UNK     1      20.266  -2.743  36.325  1.00  0.00     0.231 C 
HETATM    4  H10 UNK     1      18.205  -2.612  36.424  1.00  0.00     0.169 HD
ENDROOT
BRANCH   2   5
HETATM    5  C9  UNK     1      18.789  -0.983  35.301  1.00  0.00     0.034 A 
HETATM    6  C13 UNK     1      18.658   0.228  35.960  1.00  0.00     0.030 A 
HETATM    7  C15 UNK     1      18.413   1.385  35.221  1.00  0.00     0.013 A 
HETATM    8  C11 UNK     1      18.302   1.315  33.833  1.00  0.00    -0.036 A 
HETATM    9  C16 UNK     1      18.437   0.087  33.183  1.00  0.00     0.013 A 
HETATM   10  C14 UNK     1      18.682  -1.069  33.922  1.00  0.00     0.030 A 
BRANCH   8  11
HETATM   11  C17 UNK     1      18.048   2.521  33.061  1.00  0.00     0.012 C 
HETATM   12  C19 UNK     1      18.301   3.784  33.480  1.00  0.00     0.012 C 
BRANCH  12  13
HETATM   13  C18 UNK     1      18.060   5.005  32.692  1.00  0.00    -0.036 A 
HETATM   14  C20 UNK     1      17.212   5.979  33.192  1.00  0.00     0.011 A 
HETATM   15  C22 UNK     1      16.984   7.136  32.445  1.00  0.00     0.001 A 
HETATM   16  C24 UNK     1      17.608   7.301  31.208  1.00  0.00     0.000 A 
HETATM   17  C23 UNK     1      18.459   6.310  30.718  1.00  0.00     0.001 A 
HETATM   18  C21 UNK     1      18.686   5.154  31.465  1.00  0.00     0.011 A 
ENDBRANCH  12  13
ENDBRANCH   8  11
ENDBRANCH   2   5
BRANCH   3  19
HETATM   19  C10 UNK     1      20.123  -3.996  37.163  1.00  0.00     0.185 C 
BRANCH  19  20
HETATM   20  S1  UNK     1      18.828  -5.055  36.423  1.00  0.00    -0.083 SA
BRANCH  20  21
HETATM   21  C5  UNK     1      19.490  -6.642  36.539  1.00  0.00     0.168 A 
HETATM   22  N1  UNK     1      20.567  -7.003  35.779  1.00  0.00    -0.333 N 
HETATM   23  C1  UNK     1      20.871  -8.306  36.077  1.00  0.00     0.063 A 
HETATM   24  H2  UNK     1      21.053  -6.414  35.115  1.00  0.00     0.168 HD
HETATM   25  C2  UNK     1      19.928  -8.672  37.033  1.00  0.00     0.086 A 
HETATM   26  C3  UNK     1      21.860  -9.171  35.605  1.00  0.00     0.038 A 
HETATM   27  N2  UNK     1      19.078  -7.625  37.308  1.00  0.00    -0.223 NA
HETATM   28  C6  UNK     1      19.959  -9.973  37.562  1.00  0.00     0.034 A 
HETATM   29  C7  UNK     1      20.942 -10.859  37.105  1.00  0.00     0.009 A 
HETATM   30  C4  UNK     1      21.875 -10.462  36.143  1.00  0.00    -0.060 A 
HETATM   31  C8  UNK     1      22.910 -11.434  35.679  1.00  0.00     0.048 C 
ENDBRANCH  20  21
ENDBRANCH  19  20
ENDBRANCH   3  19
TORSDOF 6
ENDMDL
MODEL 6
REMARK VINA RESULT:      -8.9      1.289      2.212
REMARK  6 active torsions:
REMARK  status: ('A' for Active; 'I' for Inactive)
REMARK    1  A    between atoms: C10_15  and  S1_1 
REMARK    2  A    between atoms: C5_10  and  S1_1 
REMARK       I    between atoms: C12_17  and  N3_5 
REMARK    3  A    between atoms: C9_14  and  N3_5 
REMARK    4  A    between atoms: C10_15  and  C12_17 
REMARK    5  A    between atoms: C11_16  and  C17_22 
REMARK    6  A    between atoms: C18_23  and  C19_24 
ROOT
HETATM    1  O1  UNK     1      17.670   1.738  29.675  1.00  0.00    -0.272 OA
HETATM    2  N3  UNK     1      19.451   2.977  30.576  1.00  0.00    -0.327 N 
HETATM    3  C12 UNK     1      18.851   1.872  29.984  1.00  0.00     0.231 C 
HETATM    4  H10 UNK     1      20.446   2.917  30.783  1.00  0.00     0.169 HD
ENDROOT
BRANCH   2   5
HETATM    5  C9  UNK     1      18.837   4.200  30.937  1.00  0.00     0.034 A 
HETATM    6  C13 UNK     1      18.091   4.266  32.102  1.00  0.00     0.030 A 
HETATM    7  C15 UNK     1      17.484   5.471  32.456  1.00  0.00     0.013 A 
HETATM    8  C11 UNK     1      17.633   6.593  31.641  1.00  0.00    -0.036 A 
HETATM    9  C16 UNK     1      18.389   6.511  30.471  1.00  0.00     0.013 A 
HETATM   10  C14 UNK     1      18.996   5.306  30.117  1.00  0.00     0.030 A 
BRANCH   8  11
HETATM   11  C17 UNK     1      17.002   7.850  32.011  1.00  0.00     0.012 C 
HETATM   12  C19 UNK     1      16.188   8.031  33.078  1.00  0.00     0.012 C 
BRANCH  12  13
HETATM   13  C18 UNK     1      15.563   9.308  33.464  1.00  0.00    -0.036 A 
HETATM   14  C20 UNK     1      16.334  10.283  34.075  1.00  0.00     0.011 A 
HETATM   15  C22 UNK     1      15.742  11.492  34.441  1.00  0.00     0.001 A 
HETATM   16  C24 UNK     1      14.387  11.709  34.190  1.00  0.00     0.000 A 
HETATM   17  C23 UNK     1      13.624  10.717  33.574  1.00  0.00     0.001 A 
HETATM   18  C21 UNK     1      14.216   9.508  33.208  1.00  0.00     0.011 A 
ENDBRANCH  12  13
ENDBRANCH   8  11
ENDBRANCH   2   5
BRANCH   3  19
HETATM   19  C10 UNK     1      19.839   0.748  29.750  1.00  0.00     0.185 C 
BRANCH  19  20
HETATM   20  S1  UNK     1      19.159  -0.792  30.464  1.00  0.00    -0.083 SA
BRANCH  20  21
HETATM   21  C5  UNK     1      18.878  -0.381  32.114  1.00  0.00     0.168 A 
HETATM   22  N1  UNK     1      18.754  -1.359  33.062  1.00  0.00    -0.333 N 
HETATM   23  C1  UNK     1      18.537  -0.745  34.269  1.00  0.00     0.063 A 
HETATM   24  H2  UNK     1      18.810  -2.356  32.901  1.00  0.00     0.168 HD
HETATM   25  C2  UNK     1      18.543   0.615  33.972  1.00  0.00     0.086 A 
HETATM   26  C3  UNK     1      18.342  -1.248  35.556  1.00  0.00     0.038 A 
HETATM   27  N2  UNK     1      18.756   0.822  32.628  1.00  0.00    -0.223 NA
HETATM   28  C6  UNK     1      18.345   1.543  35.008  1.00  0.00     0.034 A 
HETATM   29  C7  UNK     1      18.147   1.062  36.309  1.00  0.00     0.009 A 
HETATM   30  C4  UNK     1      18.146  -0.309  36.575  1.00  0.00    -0.060 A 
HETATM   31  C8  UNK     1      17.932  -0.786  37.974  1.00  0.00     0.048 C 
ENDBRANCH  20  21
ENDBRANCH  19  20
ENDBRANCH   3  19
TORSDOF 6
ENDMDL
MODEL 7
REMARK VINA RESULT:      -8.8      5.133     12.082
REMARK  6 active torsions:
REMARK  status: ('A' for Active; 'I' for Inactive)
REMARK    1  A    between atoms: C10_15  and  S1_1 
REMARK    2  A    between atoms: C5_10  and  S1_1 
REMARK       I    between atoms: C12_17  and  N3_5 
REMARK    3  A    between atoms: C9_14  and  N3_5 
REMARK    4  A    between atoms: C10_15  and  C12_17 
REMARK    5  A    between atoms: C11_16  and  C17_22 
REMARK    6  A    between atoms: C18_23  and  C19_24 
ROOT
HETATM    1  O1  UNK     1      17.091   0.117  34.547  1.00  0.00    -0.272 OA
HETATM    2  N3  UNK     1      19.205   0.018  35.566  1.00  0.00    -0.327 N 
HETATM    3  C12 UNK     1      18.115   0.644  34.973  1.00  0.00     0.231 C 
HETATM    4  H10 UNK     1      19.987   0.605  35.851  1.00  0.00     0.169 HD
ENDROOT
BRANCH   2   5
HETATM    5  C9  UNK     1      19.369  -1.364  35.826  1.00  0.00     0.034 A 
HETATM    6  C13 UNK     1      18.845  -1.902  36.990  1.00  0.00     0.030 A 
HETATM    7  C15 UNK     1      19.008  -3.263  37.246  1.00  0.00     0.013 A 
HETATM    8  C11 UNK     1      19.691  -4.067  36.335  1.00  0.00    -0.036 A 
HETATM    9  C16 UNK     1      20.212  -3.511  35.166  1.00  0.00     0.013 A 
HETATM   10  C14 UNK     1      20.050  -2.149  34.910  1.00  0.00     0.030 A 
BRANCH   8  11
HETATM   11  C17 UNK     1      19.860  -5.487  36.602  1.00  0.00     0.012 C 
HETATM   12  C19 UNK     1      19.221  -6.180  37.574  1.00  0.00     0.012 C 
BRANCH  12  13
HETATM   13  C18 UNK     1      19.378  -7.622  37.832  1.00  0.00    -0.036 A 
HETATM   14  C20 UNK     1      19.897  -8.041  39.046  1.00  0.00     0.011 A 
HETATM   15  C22 UNK     1      20.046  -9.407  39.290  1.00  0.00     0.001 A 
HETATM   16  C24 UNK     1      19.674 -10.334  38.317  1.00  0.00     0.000 A 
HETATM   17  C23 UNK     1      19.153  -9.896  37.099  1.00  0.00     0.001 A 
HETATM   18  C21 UNK     1      19.005  -8.531  36.855  1.00  0.00     0.011 A 
ENDBRANCH  12  13
ENDBRANCH   8  11
ENDBRANCH   2   5
BRANCH   3  19
HETATM   19  C10 UNK     1      18.310   2.141  34.867  1.00  0.00     0.185 C 
BRANCH  19  20
HETATM   20  S1  UNK     1      18.256   2.618  33.102  1.00  0.00    -0.083 SA
BRANCH  20  21
HETATM   21  C5  UNK     1      18.180   4.339  33.151  1.00  0.00     0.168 A 
HETATM   22  N1  UNK     1      19.078   5.053  33.895  1.00  0.00    -0.333 N 
HETATM   23  C1  UNK     1      18.779   6.383  33.747  1.00  0.00     0.063 A 
HETATM   24  H2  UNK     1      19.827   4.669  34.455  1.00  0.00     0.168 HD
HETATM   25  C2  UNK     1      17.679   6.398  32.893  1.00  0.00     0.086 A 
HETATM   26  C3  UNK     1      19.358   7.540  34.273  1.00  0.00     0.038 A 
HETATM   27  N2  UNK     1      17.322   5.119  32.533  1.00  0.00    -0.223 NA
HETATM   28  C6  UNK     1      17.112   7.631  32.530  1.00  0.00     0.034 A 
HETATM   29  C7  UNK     1      17.676   8.805  33.044  1.00  0.00     0.009 A 
HETATM   30  C4  UNK     1      18.778   8.758  33.900  1.00  0.00    -0.060 A 
HETATM   31  C8  UNK     1      19.354  10.031  34.429  1.00  0.00     0.048 C 
ENDBRANCH  20  21
ENDBRANCH  19  20
ENDBRANCH   3  19
TORSDOF 6
ENDMDL
MODEL 8
REMARK VINA RESULT:      -8.7      4.333     11.162
REMARK  6 active torsions:
REMARK  status: ('A' for Active; 'I' for Inactive)
REMARK    1  A    between atoms: C10_15  and  S1_1 
REMARK    2  A    between atoms: C5_10  and  S1_1 
REMARK       I    between atoms: C12_17  and  N3_5 
REMARK    3  A    between atoms: C9_14  and  N3_5 
REMARK    4  A    between atoms: C10_15  and  C12_17 
REMARK    5  A    between atoms: C11_16  and  C17_22 
REMARK    6  A    between atoms: C18_23  and  C19_24 
ROOT
HETATM    1  O1  UNK     1      15.194   8.069  31.439  1.00  0.00    -0.272 OA
HETATM    2  N3  UNK     1      17.206   7.767  32.615  1.00  0.00    -0.327 N 
HETATM    3  C12 UNK     1      16.027   8.418  32.271  1.00  0.00     0.231 C 
HETATM    4  H10 UNK     1      17.797   8.205  33.319  1.00  0.00     0.169 HD
ENDROOT
BRANCH   2   5
HETATM    5  C9  UNK     1      17.700   6.547  32.094  1.00  0.00     0.034 A 
HETATM    6  C13 UNK     1      18.355   6.546  30.874  1.00  0.00     0.030 A 
HETATM    7  C15 UNK     1      18.839   5.344  30.360  1.00  0.00     0.013 A 
HETATM    8  C11 UNK     1      18.662   4.159  31.073  1.00  0.00    -0.036 A 
HETATM    9  C16 UNK     1      18.000   4.176  32.302  1.00  0.00     0.013 A 
HETATM   10  C14 UNK     1      17.516   5.379  32.816  1.00  0.00     0.030 A 
BRANCH   8  11
HETATM   11  C17 UNK     1      19.168   2.905  30.538  1.00  0.00     0.012 C 
HETATM   12  C19 UNK     1      19.002   1.688  31.109  1.00  0.00     0.012 C 
BRANCH  12  13
HETATM   13  C18 UNK     1      19.499   0.416  30.557  1.00  0.00    -0.036 A 
HETATM   14  C20 UNK     1      19.797   0.332  29.207  1.00  0.00     0.011 A 
HETATM   15  C22 UNK     1      20.267  -0.873  28.685  1.00  0.00     0.001 A 
HETATM   16  C24 UNK     1      20.431  -1.979  29.520  1.00  0.00     0.000 A 
HETATM   17  C23 UNK     1      20.126  -1.878  30.878  1.00  0.00     0.001 A 
HETATM   18  C21 UNK     1      19.656  -0.673  31.400  1.00  0.00     0.011 A 
ENDBRANCH  12  13
ENDBRANCH   8  11
ENDBRANCH   2   5
BRANCH   3  19
HETATM   19  C10 UNK     1      15.843   9.704  33.049  1.00  0.00     0.185 C 
BRANCH  19  20
HETATM   20  S1  UNK     1      17.297   9.953  34.129  1.00  0.00    -0.083 SA
BRANCH  20  21
HETATM   21  C5  UNK     1      17.551  11.657  34.077  1.00  0.00     0.168 A 
HETATM   22  N1  UNK     1      16.687  12.508  34.708  1.00  0.00    -0.333 N 
HETATM   23  C1  UNK     1      17.133  13.787  34.499  1.00  0.00     0.063 A 
HETATM   24  H2  UNK     1      15.865  12.241  35.233  1.00  0.00     0.168 HD
HETATM   25  C2  UNK     1      18.281  13.632  33.727  1.00  0.00     0.086 A 
HETATM   26  C3  UNK     1      16.645  15.030  34.906  1.00  0.00     0.038 A 
HETATM   27  N2  UNK     1      18.526  12.302  33.476  1.00  0.00    -0.223 NA
HETATM   28  C6  UNK     1      18.998  14.773  33.330  1.00  0.00     0.034 A 
HETATM   29  C7  UNK     1      18.528  16.031  33.726  1.00  0.00     0.009 A 
HETATM   30  C4  UNK     1      17.372  16.154  34.500  1.00  0.00    -0.060 A 
HETATM   31  C8  UNK     1      16.899  17.513  34.905  1.00  0.00     0.048 C 
ENDBRANCH  20  21
ENDBRANCH  19  20
ENDBRANCH   3  19
TORSDOF 6
ENDMDL
MODEL 9
REMARK VINA RESULT:      -8.7      4.764     10.534
REMARK  6 active torsions:
REMARK  status: ('A' for Active; 'I' for Inactive)
REMARK    1  A    between atoms: C10_15  and  S1_1 
REMARK    2  A    between atoms: C5_10  and  S1_1 
REMARK       I    between atoms: C12_17  and  N3_5 
REMARK    3  A    between atoms: C9_14  and  N3_5 
REMARK    4  A    between atoms: C10_15  and  C12_17 
REMARK    5  A    between atoms: C11_16  and  C17_22 
REMARK    6  A    between atoms: C18_23  and  C19_24 
ROOT
HETATM    1  O1  UNK     1      19.123   8.621  34.166  1.00  0.00    -0.272 OA
HETATM    2  N3  UNK     1      17.368   8.066  32.705  1.00  0.00    -0.327 N 
HETATM    3  C12 UNK     1      18.038   8.849  33.638  1.00  0.00     0.231 C 
HETATM    4  H10 UNK     1      16.462   8.395  32.379  1.00  0.00     0.169 HD
ENDROOT
BRANCH   2   5
HETATM    5  C9  UNK     1      17.798   6.840  32.143  1.00  0.00     0.034 A 
HETATM    6  C13 UNK     1      18.432   6.844  30.911  1.00  0.00     0.030 A 
HETATM    7  C15 UNK     1      18.854   5.636  30.356  1.00  0.00     0.013 A 
HETATM    8  C11 UNK     1      18.636   4.441  31.041  1.00  0.00    -0.036 A 
HETATM    9  C16 UNK     1      17.996   4.453  32.281  1.00  0.00     0.013 A 
HETATM   10  C14 UNK     1      17.575   5.661  32.836  1.00  0.00     0.030 A 
BRANCH   8  11
HETATM   11  C17 UNK     1      19.077   3.182  30.463  1.00  0.00     0.012 C 
HETATM   12  C19 UNK     1      18.973   1.970  31.059  1.00  0.00     0.012 C 
BRANCH  12  13
HETATM   13  C18 UNK     1      19.402   0.692  30.466  1.00  0.00    -0.036 A 
HETATM   14  C20 UNK     1      19.452   0.566  29.088  1.00  0.00     0.011 A 
HETATM   15  C22 UNK     1      19.858  -0.645  28.526  1.00  0.00     0.001 A 
HETATM   16  C24 UNK     1      20.209  -1.714  29.352  1.00  0.00     0.000 A 
HETATM   17  C23 UNK     1      20.154  -1.570  30.738  1.00  0.00     0.001 A 
HETATM   18  C21 UNK     1      19.747  -0.360  31.299  1.00  0.00     0.011 A 
ENDBRANCH  12  13
ENDBRANCH   8  11
ENDBRANCH   2   5
BRANCH   3  19
HETATM   19  C10 UNK     1      17.255  10.094  33.998  1.00  0.00     0.185 C 
BRANCH  19  20
HETATM   20  S1  UNK     1      15.524   9.882  33.448  1.00  0.00    -0.083 SA
BRANCH  20  21
HETATM   21  C5  UNK     1      14.609  10.656  34.686  1.00  0.00     0.168 A 
HETATM   22  N1  UNK     1      13.511  11.407  34.372  1.00  0.00    -0.333 N 
HETATM   23  C1  UNK     1      12.990  11.895  35.543  1.00  0.00     0.063 A 
HETATM   24  H2  UNK     1      13.149  11.574  33.443  1.00  0.00     0.168 HD
HETATM   25  C2  UNK     1      13.831  11.393  36.532  1.00  0.00     0.086 A 
HETATM   26  C3  UNK     1      11.888  12.708  35.813  1.00  0.00     0.038 A 
HETATM   27  N2  UNK     1      14.831  10.625  35.981  1.00  0.00    -0.223 NA
HETATM   28  C6  UNK     1      13.573  11.710  37.876  1.00  0.00     0.034 A 
HETATM   29  C7  UNK     1      12.472  12.525  38.172  1.00  0.00     0.009 A 
HETATM   30  C4  UNK     1      11.647  13.013  37.157  1.00  0.00    -0.060 A 
HETATM   31  C8  UNK     1      10.482  13.879  37.510  1.00  0.00     0.048 C 
ENDBRANCH  20  21
ENDBRANCH  19  20
ENDBRANCH   3  19
TORSDOF 6
ENDMDL
MODEL 10
REMARK VINA RESULT:      -8.6     23.358     25.759
REMARK  6 active torsions:
REMARK  status: ('A' for Active; 'I' for Inactive)
REMARK    1  A    between atoms: C10_15  and  S1_1 
REMARK    2  A    between atoms: C5_10  and  S1_1 
REMARK       I    between atoms: C12_17  and  N3_5 
REMARK    3  A    between atoms: C9_14  and  N3_5 
REMARK    4  A    between atoms: C10_15  and  C12_17 
REMARK    5  A    between atoms: C11_16  and  C17_22 
REMARK    6  A    between atoms: C18_23  and  C19_24 
ROOT
HETATM    1  O1  UNK     1      18.608  11.245   8.220  1.00  0.00    -0.272 OA
HETATM    2  N3  UNK     1      17.742  10.450  10.254  1.00  0.00    -0.327 N 
HETATM    3  C12 UNK     1      18.631  11.147   9.444  1.00  0.00     0.231 C 
HETATM    4  H10 UNK     1      17.916  10.456  11.257  1.00  0.00     0.169 HD
ENDROOT
BRANCH   2   5
HETATM    5  C9  UNK     1      16.602   9.714   9.849  1.00  0.00     0.034 A 
HETATM    6  C13 UNK     1      16.469   8.395  10.249  1.00  0.00     0.030 A 
HETATM    7  C15 UNK     1      15.347   7.670   9.848  1.00  0.00     0.013 A 
HETATM    8  C11 UNK     1      14.374   8.275   9.054  1.00  0.00    -0.036 A 
HETATM    9  C16 UNK     1      14.522   9.605   8.660  1.00  0.00     0.013 A 
HETATM   10  C14 UNK     1      15.644  10.330   9.061  1.00  0.00     0.030 A 
BRANCH   8  11
HETATM   11  C17 UNK     1      13.203   7.519   8.637  1.00  0.00     0.012 C 
HETATM   12  C19 UNK     1      12.152   8.025   7.949  1.00  0.00     0.012 C 
BRANCH  12  13
HETATM   13  C18 UNK     1      10.974   7.256   7.510  1.00  0.00    -0.036 A 
HETATM   14  C20 UNK     1      10.855   6.899   6.178  1.00  0.00     0.011 A 
HETATM   15  C22 UNK     1       9.740   6.171   5.762  1.00  0.00     0.001 A 
HETATM   16  C24 UNK     1       8.759   5.810   6.686  1.00  0.00     0.000 A 
HETATM   17  C23 UNK     1       8.894   6.178   8.025  1.00  0.00     0.001 A 
HETATM   18  C21 UNK     1      10.009   6.905   8.440  1.00  0.00     0.011 A 
ENDBRANCH  12  13
ENDBRANCH   8  11
ENDBRANCH   2   5
BRANCH   3  19
HETATM   19  C10 UNK     1      19.729  11.810  10.247  1.00  0.00     0.185 C 
BRANCH  19  20
HETATM   20  S1  UNK     1      20.957  12.520   9.093  1.00  0.00    -0.083 SA
BRANCH  20  21
HETATM   21  C5  UNK     1      22.368  12.701  10.066  1.00  0.00     0.168 A 
HETATM   22  N1  UNK     1      23.555  12.146   9.679  1.00  0.00    -0.333 N 
HETATM   23  C1  UNK     1      24.490  12.448  10.636  1.00  0.00     0.063 A 
HETATM   24  H2  UNK     1      23.715  11.607   8.838  1.00  0.00     0.168 HD
HETATM   25  C2  UNK     1      23.790  13.196  11.579  1.00  0.00     0.086 A 
HETATM   26  C3  UNK     1      25.846  12.141  10.754  1.00  0.00     0.038 A 
HETATM   27  N2  UNK     1      22.473  13.343  11.208  1.00  0.00    -0.223 NA
HETATM   28  C6  UNK     1      24.468  13.674  12.713  1.00  0.00     0.034 A 
HETATM   29  C7  UNK     1      25.830  13.378  12.853  1.00  0.00     0.009 A 
HETATM   30  C4  UNK     1      26.504  12.625  11.889  1.00  0.00    -0.060 A 
HETATM   31  C8  UNK     1      27.957  12.330  12.072  1.00  0.00     0.048 C 
ENDBRANCH  20  21
ENDBRANCH  19  20
ENDBRANCH   3  19
TORSDOF 6
ENDMDL
