MODEL 1
REMARK VINA RESULT:      -8.1      0.000      0.000
REMARK  3 active torsions:
REMARK  status: ('A' for Active; 'I' for Inactive)
REMARK    1  A    between atoms: C7_11  and  O2_2 
REMARK    2  A    between atoms: C15_19  and  O4_4 
REMARK    3  A    between atoms: C3_7  and  C4_8 
ROOT
HETATM    1  O1  UNK     1      19.397   2.000  31.304  1.00  0.00    -0.309 OA
HETATM    2  O3  UNK     1      17.833   1.652  27.557  1.00  0.00    -0.287 OA
HETATM    3  C1  UNK     1      19.095   0.667  29.295  1.00  0.00     0.081 A 
HETATM    4  C2  UNK     1      19.601   0.851  30.581  1.00  0.00     0.093 A 
HETATM    5  C3  UNK     1      18.663   3.024  30.724  1.00  0.00     0.090 A 
HETATM    6  C5  UNK     1      18.309   1.748  28.681  1.00  0.00     0.190 A 
HETATM    7  C6  UNK     1      18.121   2.963  29.497  1.00  0.00     0.094 A 
HETATM    8  C7  UNK     1      19.333  -0.524  28.607  1.00  0.00     0.082 A 
HETATM    9  C8  UNK     1      20.349  -0.158  31.188  1.00  0.00     0.038 A 
HETATM   10  C11 UNK     1      20.083  -1.532  29.215  1.00  0.00     0.037 A 
HETATM   11  C12 UNK     1      20.589  -1.349  30.503  1.00  0.00     0.006 A 
ENDROOT
BRANCH   5  12
HETATM   12  C4  UNK     1      18.501   4.210  31.588  1.00  0.00    -0.002 A 
HETATM   13  C10 UNK     1      18.174   4.054  32.938  1.00  0.00     0.017 A 
HETATM   14  C14 UNK     1      18.022   5.175  33.755  1.00  0.00     0.037 A 
HETATM   15  C15 UNK     1      18.195   6.453  33.225  1.00  0.00     0.065 A 
HETATM   16  C13 UNK     1      18.521   6.611  31.878  1.00  0.00     0.037 A 
HETATM   17  C9  UNK     1      18.674   5.492  31.061  1.00  0.00     0.017 A 
BRANCH  15  18
HETATM   18  O4  UNK     1      18.046   7.546  34.022  1.00  0.00    -0.361 OA
HETATM   19  H10 UNK     1      17.844   8.317  33.465  1.00  0.00     0.217 HD
ENDBRANCH  15  18
ENDBRANCH   5  12
BRANCH   8  20
HETATM   20  O2  UNK     1      18.862  -0.752  27.349  1.00  0.00    -0.360 OA
HETATM   21  H9  UNK     1      18.509   0.065  26.965  1.00  0.00     0.217 HD
ENDBRANCH   8  20
TORSDOF 3
ENDMDL
MODEL 2
REMARK VINA RESULT:      -8.0     12.333     16.012
REMARK  3 active torsions:
REMARK  status: ('A' for Active; 'I' for Inactive)
REMARK    1  A    between atoms: C7_11  and  O2_2 
REMARK    2  A    between atoms: C15_19  and  O4_4 
REMARK    3  A    between atoms: C3_7  and  C4_8 
ROOT
HETATM    1  O1  UNK     1      19.160   0.335  15.895  1.00  0.00    -0.309 OA
HETATM    2  O3  UNK     1      18.649  -0.532  19.843  1.00  0.00    -0.287 OA
HETATM    3  C1  UNK     1      19.081   1.107  18.197  1.00  0.00     0.081 A 
HETATM    4  C2  UNK     1      19.244   1.334  16.831  1.00  0.00     0.093 A 
HETATM    5  C3  UNK     1      18.909  -0.958  16.329  1.00  0.00     0.090 A 
HETATM    6  C5  UNK     1      18.806  -0.262  18.660  1.00  0.00     0.190 A 
HETATM    7  C6  UNK     1      18.728  -1.301  17.614  1.00  0.00     0.094 A 
HETATM    8  C7  UNK     1      19.177   2.163  19.105  1.00  0.00     0.082 A 
HETATM    9  C8  UNK     1      19.505   2.623  16.365  1.00  0.00     0.038 A 
HETATM   10  C11 UNK     1      19.439   3.452  18.637  1.00  0.00     0.037 A 
HETATM   11  C12 UNK     1      19.602   3.681  17.270  1.00  0.00     0.006 A 
ENDROOT
BRANCH   5  12
HETATM   12  C4  UNK     1      18.833  -1.952  15.240  1.00  0.00    -0.002 A 
HETATM   13  C10 UNK     1      18.257  -3.204  15.472  1.00  0.00     0.017 A 
HETATM   14  C14 UNK     1      18.184  -4.143  14.443  1.00  0.00     0.037 A 
HETATM   15  C15 UNK     1      18.687  -3.833  13.179  1.00  0.00     0.065 A 
HETATM   16  C13 UNK     1      19.263  -2.585  12.945  1.00  0.00     0.037 A 
HETATM   17  C9  UNK     1      19.336  -1.645  13.974  1.00  0.00     0.017 A 
BRANCH  15  18
HETATM   18  O4  UNK     1      18.616  -4.749  12.176  1.00  0.00    -0.361 OA
HETATM   19  H10 UNK     1      19.519  -5.007  11.920  1.00  0.00     0.217 HD
ENDBRANCH  15  18
ENDBRANCH   5  12
BRANCH   8  20
HETATM   20  O2  UNK     1      19.026   1.993  20.448  1.00  0.00    -0.360 OA
HETATM   21  H9  UNK     1      18.333   1.339  20.632  1.00  0.00     0.217 HD
ENDBRANCH   8  20
TORSDOF 3
ENDMDL
MODEL 3
REMARK VINA RESULT:      -8.0      4.558      7.747
REMARK  3 active torsions:
REMARK  status: ('A' for Active; 'I' for Inactive)
REMARK    1  A    between atoms: C7_11  and  O2_2 
REMARK    2  A    between atoms: C15_19  and  O4_4 
REMARK    3  A    between atoms: C3_7  and  C4_8 
ROOT
HETATM    1  O1  UNK     1      18.684  -0.605  33.948  1.00  0.00    -0.309 OA
HETATM    2  O3  UNK     1      20.620  -3.526  36.029  1.00  0.00    -0.287 OA
HETATM    3  C1  UNK     1      19.092  -1.723  36.066  1.00  0.00     0.081 A 
HETATM    4  C2  UNK     1      18.463  -0.747  35.295  1.00  0.00     0.093 A 
HETATM    5  C3  UNK     1      19.579  -1.467  33.331  1.00  0.00     0.090 A 
HETATM    6  C5  UNK     1      20.035  -2.644  35.414  1.00  0.00     0.190 A 
HETATM    7  C6  UNK     1      20.241  -2.449  33.965  1.00  0.00     0.094 A 
HETATM    8  C7  UNK     1      18.828  -1.821  37.434  1.00  0.00     0.082 A 
HETATM    9  C8  UNK     1      17.564   0.139  35.889  1.00  0.00     0.038 A 
HETATM   10  C11 UNK     1      17.929  -0.934  38.027  1.00  0.00     0.037 A 
HETATM   11  C12 UNK     1      17.298   0.044  37.255  1.00  0.00     0.006 A 
ENDROOT
BRANCH   5  12
HETATM   12  C4  UNK     1      19.738  -1.231  31.883  1.00  0.00    -0.002 A 
HETATM   13  C10 UNK     1      19.389   0.005  31.331  1.00  0.00     0.017 A 
HETATM   14  C14 UNK     1      19.541   0.228  29.963  1.00  0.00     0.037 A 
HETATM   15  C15 UNK     1      20.040  -0.783  29.142  1.00  0.00     0.065 A 
HETATM   16  C13 UNK     1      20.389  -2.017  29.689  1.00  0.00     0.037 A 
HETATM   17  C9  UNK     1      20.239  -2.241  31.058  1.00  0.00     0.017 A 
BRANCH  15  18
HETATM   18  O4  UNK     1      20.188  -0.564  27.807  1.00  0.00    -0.361 OA
HETATM   19  H10 UNK     1      19.321  -0.335  27.427  1.00  0.00     0.217 HD
ENDBRANCH  15  18
ENDBRANCH   5  12
BRANCH   8  20
HETATM   20  O2  UNK     1      19.417  -2.757  38.230  1.00  0.00    -0.360 OA
HETATM   21  H9  UNK     1      19.044  -2.725  39.125  1.00  0.00     0.217 HD
ENDBRANCH   8  20
TORSDOF 3
ENDMDL
MODEL 4
REMARK VINA RESULT:      -7.9      4.952      8.329
REMARK  3 active torsions:
REMARK  status: ('A' for Active; 'I' for Inactive)
REMARK    1  A    between atoms: C7_11  and  O2_2 
REMARK    2  A    between atoms: C15_19  and  O4_4 
REMARK    3  A    between atoms: C3_7  and  C4_8 
ROOT
HETATM    1  O1  UNK     1      17.733   8.606  33.009  1.00  0.00    -0.309 OA
HETATM    2  O3  UNK     1      14.316   7.091  31.386  1.00  0.00    -0.287 OA
HETATM    3  C1  UNK     1      15.323   8.745  32.740  1.00  0.00     0.081 A 
HETATM    4  C2  UNK     1      16.528   9.212  33.262  1.00  0.00     0.093 A 
HETATM    5  C3  UNK     1      17.748   7.475  32.206  1.00  0.00     0.090 A 
HETATM    6  C5  UNK     1      15.336   7.552  31.880  1.00  0.00     0.190 A 
HETATM    7  C6  UNK     1      16.656   6.935  31.641  1.00  0.00     0.094 A 
HETATM    8  C7  UNK     1      14.126   9.404  33.031  1.00  0.00     0.082 A 
HETATM    9  C8  UNK     1      16.544  10.342  34.080  1.00  0.00     0.038 A 
HETATM   10  C11 UNK     1      14.143  10.534  33.850  1.00  0.00     0.037 A 
HETATM   11  C12 UNK     1      15.350  11.002  34.372  1.00  0.00     0.006 A 
ENDROOT
BRANCH   5  12
HETATM   12  C4  UNK     1      19.094   6.907  31.994  1.00  0.00    -0.002 A 
HETATM   13  C10 UNK     1      19.406   6.271  30.790  1.00  0.00     0.017 A 
HETATM   14  C14 UNK     1      20.679   5.735  30.590  1.00  0.00     0.037 A 
HETATM   15  C15 UNK     1      21.642   5.833  31.594  1.00  0.00     0.065 A 
HETATM   16  C13 UNK     1      21.333   6.467  32.797  1.00  0.00     0.037 A 
HETATM   17  C9  UNK     1      20.061   7.003  32.998  1.00  0.00     0.017 A 
BRANCH  15  18
HETATM   18  O4  UNK     1      22.883   5.310  31.399  1.00  0.00    -0.361 OA
HETATM   19  H10 UNK     1      23.398   5.407  32.219  1.00  0.00     0.217 HD
ENDBRANCH  15  18
ENDBRANCH   5  12
BRANCH   8  20
HETATM   20  O2  UNK     1      12.922   8.988  32.546  1.00  0.00    -0.360 OA
HETATM   21  H9  UNK     1      12.207   9.239  33.151  1.00  0.00     0.217 HD
ENDBRANCH   8  20
TORSDOF 3
ENDMDL
MODEL 5
REMARK VINA RESULT:      -7.9     12.017     15.745
REMARK  3 active torsions:
REMARK  status: ('A' for Active; 'I' for Inactive)
REMARK    1  A    between atoms: C7_11  and  O2_2 
REMARK    2  A    between atoms: C15_19  and  O4_4 
REMARK    3  A    between atoms: C3_7  and  C4_8 
ROOT
HETATM    1  O1  UNK     1      18.933  -1.214  17.738  1.00  0.00    -0.309 OA
HETATM    2  O3  UNK     1      19.272   2.045  15.315  1.00  0.00    -0.287 OA
HETATM    3  C1  UNK     1      19.019   1.203  17.508  1.00  0.00     0.081 A 
HETATM    4  C2  UNK     1      18.908   0.047  18.279  1.00  0.00     0.093 A 
HETATM    5  C3  UNK     1      19.065  -1.340  16.363  1.00  0.00     0.090 A 
HETATM    6  C5  UNK     1      19.167   1.073  16.051  1.00  0.00     0.190 A 
HETATM    7  C6  UNK     1      19.185  -0.304  15.518  1.00  0.00     0.094 A 
HETATM    8  C7  UNK     1      18.988   2.461  18.114  1.00  0.00     0.082 A 
HETATM    9  C8  UNK     1      18.767   0.142  19.664  1.00  0.00     0.038 A 
HETATM   10  C11 UNK     1      18.845   2.555  19.500  1.00  0.00     0.037 A 
HETATM   11  C12 UNK     1      18.736   1.397  20.272  1.00  0.00     0.006 A 
ENDROOT
BRANCH   5  12
HETATM   12  C4  UNK     1      19.086  -2.738  15.888  1.00  0.00    -0.002 A 
HETATM   13  C10 UNK     1      20.282  -3.459  15.881  1.00  0.00     0.017 A 
HETATM   14  C14 UNK     1      20.301  -4.780  15.433  1.00  0.00     0.037 A 
HETATM   15  C15 UNK     1      19.124  -5.384  14.992  1.00  0.00     0.065 A 
HETATM   16  C13 UNK     1      17.928  -4.667  14.998  1.00  0.00     0.037 A 
HETATM   17  C9  UNK     1      17.908  -3.346  15.446  1.00  0.00     0.017 A 
BRANCH  15  18
HETATM   18  O4  UNK     1      19.143  -6.673  14.555  1.00  0.00    -0.361 OA
HETATM   19  H10 UNK     1      19.120  -6.676  13.582  1.00  0.00     0.217 HD
ENDBRANCH  15  18
ENDBRANCH   5  12
BRANCH   8  20
HETATM   20  O2  UNK     1      19.090   3.620  17.405  1.00  0.00    -0.360 OA
HETATM   21  H9  UNK     1      20.005   3.760  17.113  1.00  0.00     0.217 HD
ENDBRANCH   8  20
TORSDOF 3
ENDMDL
MODEL 6
REMARK VINA RESULT:      -7.8      3.439      4.247
REMARK  3 active torsions:
REMARK  status: ('A' for Active; 'I' for Inactive)
REMARK    1  A    between atoms: C7_11  and  O2_2 
REMARK    2  A    between atoms: C15_19  and  O4_4 
REMARK    3  A    between atoms: C3_7  and  C4_8 
ROOT
HETATM    1  O1  UNK     1      19.282  -0.275  32.818  1.00  0.00    -0.309 OA
HETATM    2  O3  UNK     1      17.937   2.657  30.328  1.00  0.00    -0.287 OA
HETATM    3  C1  UNK     1      19.079   0.601  30.562  1.00  0.00     0.081 A 
HETATM    4  C2  UNK     1      19.510  -0.366  31.469  1.00  0.00     0.093 A 
HETATM    5  C3  UNK     1      18.599   0.833  33.300  1.00  0.00     0.090 A 
HETATM    6  C5  UNK     1      18.347   1.772  31.068  1.00  0.00     0.190 A 
HETATM    7  C6  UNK     1      18.130   1.825  32.527  1.00  0.00     0.094 A 
HETATM    8  C7  UNK     1      19.340   0.456  29.197  1.00  0.00     0.082 A 
HETATM    9  C8  UNK     1      20.206  -1.487  31.015  1.00  0.00     0.038 A 
HETATM   10  C11 UNK     1      20.037  -0.666  28.746  1.00  0.00     0.037 A 
HETATM   11  C12 UNK     1      20.468  -1.635  29.653  1.00  0.00     0.006 A 
ENDROOT
BRANCH   5  12
HETATM   12  C4  UNK     1      18.404   0.827  34.763  1.00  0.00    -0.002 A 
HETATM   13  C10 UNK     1      18.230  -0.381  35.443  1.00  0.00     0.017 A 
HETATM   14  C14 UNK     1      18.046  -0.386  36.826  1.00  0.00     0.037 A 
HETATM   15  C15 UNK     1      18.036   0.817  37.533  1.00  0.00     0.065 A 
HETATM   16  C13 UNK     1      18.209   2.024  36.857  1.00  0.00     0.037 A 
HETATM   17  C9  UNK     1      18.393   2.030  35.474  1.00  0.00     0.017 A 
BRANCH  15  18
HETATM   18  O4  UNK     1      17.856   0.811  38.882  1.00  0.00    -0.361 OA
HETATM   19  H10 UNK     1      17.275   1.553  39.125  1.00  0.00     0.217 HD
ENDBRANCH  15  18
ENDBRANCH   5  12
BRANCH   8  20
HETATM   20  O2  UNK     1      18.941   1.373  28.272  1.00  0.00    -0.360 OA
HETATM   21  H9  UNK     1      18.416   2.072  28.691  1.00  0.00     0.217 HD
ENDBRANCH   8  20
TORSDOF 3
ENDMDL
MODEL 7
REMARK VINA RESULT:      -7.7      2.733      3.739
REMARK  3 active torsions:
REMARK  status: ('A' for Active; 'I' for Inactive)
REMARK    1  A    between atoms: C7_11  and  O2_2 
REMARK    2  A    between atoms: C15_19  and  O4_4 
REMARK    3  A    between atoms: C3_7  and  C4_8 
ROOT
HETATM    1  O1  UNK     1      18.321   3.602  34.328  1.00  0.00    -0.309 OA
HETATM    2  O3  UNK     1      18.269   1.490  30.843  1.00  0.00    -0.287 OA
HETATM    3  C1  UNK     1      18.355   1.448  33.205  1.00  0.00     0.081 A 
HETATM    4  C2  UNK     1      18.368   2.231  34.358  1.00  0.00     0.093 A 
HETATM    5  C3  UNK     1      18.265   4.234  33.094  1.00  0.00     0.090 A 
HETATM    6  C5  UNK     1      18.288   2.115  31.895  1.00  0.00     0.190 A 
HETATM    7  C6  UNK     1      18.241   3.590  31.916  1.00  0.00     0.094 A 
HETATM    8  C7  UNK     1      18.405   0.055  33.296  1.00  0.00     0.082 A 
HETATM    9  C8  UNK     1      18.431   1.624  35.612  1.00  0.00     0.038 A 
HETATM   10  C11 UNK     1      18.469  -0.550  34.552  1.00  0.00     0.037 A 
HETATM   11  C12 UNK     1      18.481   0.233  35.707  1.00  0.00     0.006 A 
ENDROOT
BRANCH   5  12
HETATM   12  C4  UNK     1      18.212   5.707  33.177  1.00  0.00    -0.002 A 
HETATM   13  C10 UNK     1      17.093   6.396  32.702  1.00  0.00     0.017 A 
HETATM   14  C14 UNK     1      17.043   7.788  32.781  1.00  0.00     0.037 A 
HETATM   15  C15 UNK     1      18.110   8.495  33.335  1.00  0.00     0.065 A 
HETATM   16  C13 UNK     1      19.228   7.809  33.810  1.00  0.00     0.037 A 
HETATM   17  C9  UNK     1      19.279   6.418  33.731  1.00  0.00     0.017 A 
BRANCH  15  18
HETATM   18  O4  UNK     1      18.060   9.852  33.412  1.00  0.00    -0.361 OA
HETATM   19  H10 UNK     1      18.862  10.172  33.862  1.00  0.00     0.217 HD
ENDBRANCH  15  18
ENDBRANCH   5  12
BRANCH   8  20
HETATM   20  O2  UNK     1      18.396  -0.753  32.200  1.00  0.00    -0.360 OA
HETATM   21  H9  UNK     1      19.164  -0.570  31.636  1.00  0.00     0.217 HD
ENDBRANCH   8  20
TORSDOF 3
ENDMDL
MODEL 8
REMARK VINA RESULT:      -7.7      1.862      3.021
REMARK  3 active torsions:
REMARK  status: ('A' for Active; 'I' for Inactive)
REMARK    1  A    between atoms: C7_11  and  O2_2 
REMARK    2  A    between atoms: C15_19  and  O4_4 
REMARK    3  A    between atoms: C3_7  and  C4_8 
ROOT
HETATM    1  O1  UNK     1      19.223   2.011  30.453  1.00  0.00    -0.309 OA
HETATM    2  O3  UNK     1      18.605  -0.097  33.885  1.00  0.00    -0.287 OA
HETATM    3  C1  UNK     1      19.367  -0.099  31.649  1.00  0.00     0.081 A 
HETATM    4  C2  UNK     1      19.553   0.680  30.508  1.00  0.00     0.093 A 
HETATM    5  C3  UNK     1      18.673   2.602  31.581  1.00  0.00     0.090 A 
HETATM    6  C5  UNK     1      18.792   0.527  32.849  1.00  0.00     0.190 A 
HETATM    7  C6  UNK     1      18.452   1.959  32.739  1.00  0.00     0.094 A 
HETATM    8  C7  UNK     1      19.722  -1.450  31.647  1.00  0.00     0.082 A 
HETATM    9  C8  UNK     1      20.097   0.112  29.356  1.00  0.00     0.038 A 
HETATM   10  C11 UNK     1      20.266  -2.017  30.493  1.00  0.00     0.037 A 
HETATM   11  C12 UNK     1      20.453  -1.237  29.350  1.00  0.00     0.006 A 
ENDROOT
BRANCH   5  12
HETATM   12  C4  UNK     1      18.361   4.035  31.415  1.00  0.00    -0.002 A 
HETATM   13  C10 UNK     1      18.879   4.745  30.329  1.00  0.00     0.017 A 
HETATM   14  C14 UNK     1      18.583   6.100  30.172  1.00  0.00     0.037 A 
HETATM   15  C15 UNK     1      17.769   6.748  31.100  1.00  0.00     0.065 A 
HETATM   16  C13 UNK     1      17.250   6.042  32.186  1.00  0.00     0.037 A 
HETATM   17  C9  UNK     1      17.545   4.688  32.343  1.00  0.00     0.017 A 
BRANCH  15  18
HETATM   18  O4  UNK     1      17.480   8.069  30.947  1.00  0.00    -0.361 OA
HETATM   19  H10 UNK     1      17.795   8.360  30.073  1.00  0.00     0.217 HD
ENDBRANCH  15  18
ENDBRANCH   5  12
BRANCH   8  20
HETATM   20  O2  UNK     1      19.560  -2.253  32.735  1.00  0.00    -0.360 OA
HETATM   21  H9  UNK     1      19.253  -1.736  33.496  1.00  0.00     0.217 HD
ENDBRANCH   8  20
TORSDOF 3
ENDMDL
MODEL 9
REMARK VINA RESULT:      -7.7      3.682      4.843
REMARK  3 active torsions:
REMARK  status: ('A' for Active; 'I' for Inactive)
REMARK    1  A    between atoms: C7_11  and  O2_2 
REMARK    2  A    between atoms: C15_19  and  O4_4 
REMARK    3  A    between atoms: C3_7  and  C4_8 
ROOT
HETATM    1  O1  UNK     1      18.575   0.503  32.457  1.00  0.00    -0.309 OA
HETATM    2  O3  UNK     1      20.462  -3.109  32.477  1.00  0.00    -0.287 OA
HETATM    3  C1  UNK     1      19.832  -1.190  31.250  1.00  0.00     0.081 A 
HETATM    4  C2  UNK     1      19.171   0.035  31.313  1.00  0.00     0.093 A 
HETATM    5  C3  UNK     1      18.627  -0.285  33.598  1.00  0.00     0.090 A 
HETATM    6  C5  UNK     1      19.896  -2.024  32.460  1.00  0.00     0.190 A 
HETATM    7  C6  UNK     1      19.237  -1.479  33.664  1.00  0.00     0.094 A 
HETATM    8  C7  UNK     1      20.422  -1.615  30.057  1.00  0.00     0.082 A 
HETATM    9  C8  UNK     1      19.097   0.847  30.180  1.00  0.00     0.038 A 
HETATM   10  C11 UNK     1      20.345  -0.803  28.925  1.00  0.00     0.037 A 
HETATM   11  C12 UNK     1      19.684   0.426  28.987  1.00  0.00     0.006 A 
ENDROOT
BRANCH   5  12
HETATM   12  C4  UNK     1      17.960   0.313  34.771  1.00  0.00    -0.002 A 
HETATM   13  C10 UNK     1      16.628   0.001  35.056  1.00  0.00     0.017 A 
HETATM   14  C14 UNK     1      15.999   0.566  36.165  1.00  0.00     0.037 A 
HETATM   15  C15 UNK     1      16.698   1.445  36.992  1.00  0.00     0.065 A 
HETATM   16  C13 UNK     1      18.028   1.759  36.710  1.00  0.00     0.037 A 
HETATM   17  C9  UNK     1      18.658   1.194  35.601  1.00  0.00     0.017 A 
BRANCH  15  18
HETATM   18  O4  UNK     1      16.084   1.996  38.074  1.00  0.00    -0.361 OA
HETATM   19  H10 UNK     1      16.171   1.388  38.829  1.00  0.00     0.217 HD
ENDBRANCH  15  18
ENDBRANCH   5  12
BRANCH   8  20
HETATM   20  O2  UNK     1      21.077  -2.804  29.945  1.00  0.00    -0.360 OA
HETATM   21  H9  UNK     1      21.025  -3.300  30.776  1.00  0.00     0.217 HD
ENDBRANCH   8  20
TORSDOF 3
ENDMDL
MODEL 10
REMARK VINA RESULT:      -7.6      3.797      5.387
REMARK  3 active torsions:
REMARK  status: ('A' for Active; 'I' for Inactive)
REMARK    1  A    between atoms: C7_11  and  O2_2 
REMARK    2  A    between atoms: C15_19  and  O4_4 
REMARK    3  A    between atoms: C3_7  and  C4_8 
ROOT
HETATM    1  O1  UNK     1      18.051   2.490  34.512  1.00  0.00    -0.309 OA
HETATM    2  O3  UNK     1      18.487  -1.421  33.456  1.00  0.00    -0.287 OA
HETATM    3  C1  UNK     1      18.068   0.152  35.169  1.00  0.00     0.081 A 
HETATM    4  C2  UNK     1      17.929   1.507  35.462  1.00  0.00     0.093 A 
HETATM    5  C3  UNK     1      18.331   2.116  33.206  1.00  0.00     0.090 A 
HETATM    6  C5  UNK     1      18.356  -0.250  33.784  1.00  0.00     0.190 A 
HETATM    7  C6  UNK     1      18.480   0.845  32.800  1.00  0.00     0.094 A 
HETATM    8  C7  UNK     1      17.933  -0.806  36.177  1.00  0.00     0.082 A 
HETATM    9  C8  UNK     1      17.655   1.915  36.768  1.00  0.00     0.038 A 
HETATM   10  C11 UNK     1      17.659  -0.396  37.483  1.00  0.00     0.037 A 
HETATM   11  C12 UNK     1      17.520   0.961  37.777  1.00  0.00     0.006 A 
ENDROOT
BRANCH   5  12
HETATM   12  C4  UNK     1      18.435   3.250  32.267  1.00  0.00    -0.002 A 
HETATM   13  C10 UNK     1      18.732   3.020  30.921  1.00  0.00     0.017 A 
HETATM   14  C14 UNK     1      18.829   4.092  30.033  1.00  0.00     0.037 A 
HETATM   15  C15 UNK     1      18.630   5.396  30.488  1.00  0.00     0.065 A 
HETATM   16  C13 UNK     1      18.334   5.627  31.831  1.00  0.00     0.037 A 
HETATM   17  C9  UNK     1      18.237   4.557  32.719  1.00  0.00     0.017 A 
BRANCH  15  18
HETATM   18  O4  UNK     1      18.725   6.441  29.621  1.00  0.00    -0.361 OA
HETATM   19  H10 UNK     1      19.528   6.950  29.829  1.00  0.00     0.217 HD
ENDBRANCH  15  18
ENDBRANCH   5  12
BRANCH   8  20
HETATM   20  O2  UNK     1      18.060  -2.142  35.942  1.00  0.00    -0.360 OA
HETATM   21  H9  UNK     1      18.836  -2.317  35.388  1.00  0.00     0.217 HD
ENDBRANCH   8  20
TORSDOF 3
ENDMDL
