MODEL 1
REMARK VINA RESULT:      -8.1      0.000      0.000
REMARK  0 active torsions:
REMARK  status: ('A' for Active; 'I' for Inactive)
ROOT
HETATM    1  O1  UNK     1      18.848   0.672  33.282  1.00  0.00    -0.313 OA
HETATM    2  O2  UNK     1      19.307   1.469  29.196  1.00  0.00    -0.274 OA
HETATM    3  O3  UNK     1      17.755   4.345  32.017  1.00  0.00    -0.287 OA
HETATM    4  O4  UNK     1      18.491   3.573  29.497  1.00  0.00    -0.259 OA
HETATM    5  C1  UNK     1      18.972   1.008  31.946  1.00  0.00     0.109 A 
HETATM    6  C2  UNK     1      19.511  -0.047  31.088  1.00  0.00     0.033 A 
HETATM    7  C3  UNK     1      18.633   2.203  31.434  1.00  0.00     0.124 A 
HETATM    8  C4  UNK     1      19.663   0.216  29.729  1.00  0.00     0.092 A 
HETATM    9  C5  UNK     1      18.092   3.223  32.379  1.00  0.00     0.193 A 
HETATM   10  C6  UNK     1      18.347   1.605  34.170  1.00  0.00     0.053 A 
HETATM   11  C7  UNK     1      19.884  -1.313  31.557  1.00  0.00     0.017 A 
HETATM   12  C8  UNK     1      18.794   2.490  29.986  1.00  0.00     0.305 A 
HETATM   13  C9  UNK     1      17.971   2.834  33.799  1.00  0.00     0.088 A 
HETATM   14  C10 UNK     1      20.169  -0.732  28.840  1.00  0.00     0.038 A 
HETATM   15  C11 UNK     1      20.393  -2.275  30.678  1.00  0.00     0.001 A 
HETATM   16  C12 UNK     1      20.536  -1.985  29.322  1.00  0.00     0.003 A 
HETATM   17  C13 UNK     1      18.262   1.118  35.581  1.00  0.00     0.077 C 
ENDROOT
TORSDOF 0
ENDMDL
MODEL 2
REMARK VINA RESULT:      -7.9      1.692      2.504
REMARK  0 active torsions:
REMARK  status: ('A' for Active; 'I' for Inactive)
ROOT
HETATM    1  O1  UNK     1      19.381  -1.369  33.793  1.00  0.00    -0.313 OA
HETATM    2  O2  UNK     1      18.661   1.748  31.088  1.00  0.00    -0.274 OA
HETATM    3  O3  UNK     1      17.696   1.979  35.290  1.00  0.00    -0.287 OA
HETATM    4  O4  UNK     1      17.789   3.021  32.762  1.00  0.00    -0.259 OA
HETATM    5  C1  UNK     1      19.114  -0.298  32.960  1.00  0.00     0.109 A 
HETATM    6  C2  UNK     1      19.486  -0.492  31.558  1.00  0.00     0.033 A 
HETATM    7  C3  UNK     1      18.555   0.854  33.367  1.00  0.00     0.124 A 
HETATM    8  C4  UNK     1      19.247   0.543  30.658  1.00  0.00     0.092 A 
HETATM    9  C5  UNK     1      18.207   0.971  34.814  1.00  0.00     0.193 A 
HETATM   10  C6  UNK     1      19.062  -1.278  35.134  1.00  0.00     0.053 A 
HETATM   11  C7  UNK     1      20.072  -1.666  31.068  1.00  0.00     0.017 A 
HETATM   12  C8  UNK     1      18.298   1.962  32.412  1.00  0.00     0.305 A 
HETATM   13  C9  UNK     1      18.503  -0.191  35.677  1.00  0.00     0.088 A 
HETATM   14  C10 UNK     1      19.571   0.441  29.305  1.00  0.00     0.038 A 
HETATM   15  C11 UNK     1      20.403  -1.784  29.714  1.00  0.00     0.001 A 
HETATM   16  C12 UNK     1      20.153  -0.732  28.834  1.00  0.00     0.003 A 
HETATM   17  C13 UNK     1      19.399  -2.501  35.924  1.00  0.00     0.077 C 
ENDROOT
TORSDOF 0
ENDMDL
MODEL 3
REMARK VINA RESULT:      -7.8      2.001      5.280
REMARK  0 active torsions:
REMARK  status: ('A' for Active; 'I' for Inactive)
ROOT
HETATM    1  O1  UNK     1      18.595   1.255  31.262  1.00  0.00    -0.313 OA
HETATM    2  O2  UNK     1      19.879  -2.048  33.496  1.00  0.00    -0.274 OA
HETATM    3  O3  UNK     1      20.849  -1.478  29.327  1.00  0.00    -0.287 OA
HETATM    4  O4  UNK     1      20.954  -2.885  31.671  1.00  0.00    -0.259 OA
HETATM    5  C1  UNK     1      19.056   0.138  31.935  1.00  0.00     0.109 A 
HETATM    6  C2  UNK     1      18.664   0.055  33.342  1.00  0.00     0.033 A 
HETATM    7  C3  UNK     1      19.809  -0.823  31.374  1.00  0.00     0.124 A 
HETATM    8  C4  UNK     1      19.090  -1.043  34.086  1.00  0.00     0.092 A 
HETATM    9  C5  UNK     1      20.164  -0.660  29.934  1.00  0.00     0.193 A 
HETATM   10  C6  UNK     1      18.913   1.420  29.927  1.00  0.00     0.053 A 
HETATM   11  C7  UNK     1      17.882   1.021  33.987  1.00  0.00     0.017 A 
HETATM   12  C8  UNK     1      20.266  -1.996  32.162  1.00  0.00     0.305 A 
HETATM   13  C9  UNK     1      19.656   0.543  29.243  1.00  0.00     0.088 A 
HETATM   14  C10 UNK     1      18.762  -1.200  35.432  1.00  0.00     0.038 A 
HETATM   15  C11 UNK     1      17.545   0.878  35.337  1.00  0.00     0.001 A 
HETATM   16  C12 UNK     1      17.985  -0.231  36.058  1.00  0.00     0.003 A 
HETATM   17  C13 UNK     1      18.355   2.664  29.317  1.00  0.00     0.077 C 
ENDROOT
TORSDOF 0
ENDMDL
MODEL 4
REMARK VINA RESULT:      -7.5      1.295      3.317
REMARK  0 active torsions:
REMARK  status: ('A' for Active; 'I' for Inactive)
ROOT
HETATM    1  O1  UNK     1      19.145   3.025  30.337  1.00  0.00    -0.313 OA
HETATM    2  O2  UNK     1      18.920  -0.334  32.831  1.00  0.00    -0.274 OA
HETATM    3  O3  UNK     1      17.723   3.626  34.066  1.00  0.00    -0.287 OA
HETATM    4  O4  UNK     1      18.085   0.952  34.514  1.00  0.00    -0.259 OA
HETATM    5  C1  UNK     1      19.042   1.962  31.217  1.00  0.00     0.109 A 
HETATM    6  C2  UNK     1      19.476   0.670  30.685  1.00  0.00     0.033 A 
HETATM    7  C3  UNK     1      18.582   2.067  32.475  1.00  0.00     0.124 A 
HETATM    8  C4  UNK     1      19.402  -0.447  31.513  1.00  0.00     0.092 A 
HETATM    9  C5  UNK     1      18.159   3.421  32.938  1.00  0.00     0.193 A 
HETATM   10  C6  UNK     1      18.760   4.285  30.751  1.00  0.00     0.053 A 
HETATM   11  C7  UNK     1      19.963   0.492  29.384  1.00  0.00     0.017 A 
HETATM   12  C8  UNK     1      18.501   0.879  33.363  1.00  0.00     0.305 A 
HETATM   13  C9  UNK     1      18.283   4.535  31.975  1.00  0.00     0.088 A 
HETATM   14  C10 UNK     1      19.795  -1.715  31.086  1.00  0.00     0.038 A 
HETATM   15  C11 UNK     1      20.361  -0.774  28.941  1.00  0.00     0.001 A 
HETATM   16  C12 UNK     1      20.276  -1.876  29.792  1.00  0.00     0.003 A 
HETATM   17  C13 UNK     1      18.922   5.344  29.709  1.00  0.00     0.077 C 
ENDROOT
TORSDOF 0
ENDMDL
MODEL 5
REMARK VINA RESULT:      -7.5      2.490      4.405
REMARK  0 active torsions:
REMARK  status: ('A' for Active; 'I' for Inactive)
ROOT
HETATM    1  O1  UNK     1      18.754  -0.013  33.566  1.00  0.00    -0.313 OA
HETATM    2  O2  UNK     1      20.843  -2.440  30.865  1.00  0.00    -0.274 OA
HETATM    3  O3  UNK     1      20.467  -3.343  35.070  1.00  0.00    -0.287 OA
HETATM    4  O4  UNK     1      21.364  -3.888  32.543  1.00  0.00    -0.259 OA
HETATM    5  C1  UNK     1      19.459  -0.863  32.734  1.00  0.00     0.109 A 
HETATM    6  C2  UNK     1      19.517  -0.454  31.331  1.00  0.00     0.033 A 
HETATM    7  C3  UNK     1      20.063  -1.991  33.145  1.00  0.00     0.124 A 
HETATM    8  C4  UNK     1      20.212  -1.259  30.432  1.00  0.00     0.092 A 
HETATM    9  C5  UNK     1      19.955  -2.336  34.592  1.00  0.00     0.193 A 
HETATM   10  C6  UNK     1      18.646  -0.317  34.910  1.00  0.00     0.053 A 
HETATM   11  C7  UNK     1      18.910   0.708  30.837  1.00  0.00     0.017 A 
HETATM   12  C8  UNK     1      20.806  -2.855  32.191  1.00  0.00     0.305 A 
HETATM   13  C9  UNK     1      19.196  -1.408  35.455  1.00  0.00     0.088 A 
HETATM   14  C10 UNK     1      20.315  -0.943  29.077  1.00  0.00     0.038 A 
HETATM   15  C11 UNK     1      19.005   1.039  29.481  1.00  0.00     0.001 A 
HETATM   16  C12 UNK     1      19.706   0.214  28.603  1.00  0.00     0.003 A 
HETATM   17  C13 UNK     1      17.861   0.680  35.699  1.00  0.00     0.077 C 
ENDROOT
TORSDOF 0
ENDMDL
MODEL 6
REMARK VINA RESULT:      -7.5      2.704      6.535
REMARK  0 active torsions:
REMARK  status: ('A' for Active; 'I' for Inactive)
ROOT
HETATM    1  O1  UNK     1      18.809  -0.099  32.716  1.00  0.00    -0.313 OA
HETATM    2  O2  UNK     1      19.091  -2.280  36.282  1.00  0.00    -0.274 OA
HETATM    3  O3  UNK     1      21.216  -3.339  32.675  1.00  0.00    -0.287 OA
HETATM    4  O4  UNK     1      20.533  -3.740  35.294  1.00  0.00    -0.259 OA
HETATM    5  C1  UNK     1      18.953  -0.868  33.858  1.00  0.00     0.109 A 
HETATM    6  C2  UNK     1      18.186  -0.410  35.016  1.00  0.00     0.033 A 
HETATM    7  C3  UNK     1      19.728  -1.962  33.937  1.00  0.00     0.124 A 
HETATM    8  C4  UNK     1      18.278  -1.135  36.202  1.00  0.00     0.092 A 
HETATM    9  C5  UNK     1      20.478  -2.359  32.710  1.00  0.00     0.193 A 
HETATM   10  C6  UNK     1      19.495  -0.455  31.571  1.00  0.00     0.053 A 
HETATM   11  C7  UNK     1      17.360   0.721  35.001  1.00  0.00     0.017 A 
HETATM   12  C8  UNK     1      19.832  -2.739  35.199  1.00  0.00     0.305 A 
HETATM   13  C9  UNK     1      20.303  -1.519  31.508  1.00  0.00     0.088 A 
HETATM   14  C10 UNK     1      17.581  -0.768  37.353  1.00  0.00     0.038 A 
HETATM   15  C11 UNK     1      16.654   1.101  36.147  1.00  0.00     0.001 A 
HETATM   16  C12 UNK     1      16.765   0.358  37.321  1.00  0.00     0.003 A 
HETATM   17  C13 UNK     1      19.254   0.455  30.410  1.00  0.00     0.077 C 
ENDROOT
TORSDOF 0
ENDMDL
MODEL 7
REMARK VINA RESULT:      -7.4      1.625      5.342
REMARK  0 active torsions:
REMARK  status: ('A' for Active; 'I' for Inactive)
ROOT
HETATM    1  O1  UNK     1      19.497   1.455  30.135  1.00  0.00    -0.313 OA
HETATM    2  O2  UNK     1      17.870   3.460  33.434  1.00  0.00    -0.274 OA
HETATM    3  O3  UNK     1      18.613  -0.793  33.369  1.00  0.00    -0.287 OA
HETATM    4  O4  UNK     1      17.748   1.500  34.586  1.00  0.00    -0.259 OA
HETATM    5  C1  UNK     1      18.958   2.048  31.263  1.00  0.00     0.109 A 
HETATM    6  C2  UNK     1      18.753   3.493  31.167  1.00  0.00     0.033 A 
HETATM    7  C3  UNK     1      18.631   1.381  32.382  1.00  0.00     0.124 A 
HETATM    8  C4  UNK     1      18.211   4.161  32.262  1.00  0.00     0.092 A 
HETATM    9  C5  UNK     1      18.873  -0.091  32.397  1.00  0.00     0.193 A 
HETATM   10  C6  UNK     1      19.726   0.092  30.132  1.00  0.00     0.053 A 
HETATM   11  C7  UNK     1      19.072   4.247  30.031  1.00  0.00     0.017 A 
HETATM   12  C8  UNK     1      18.053   2.088  33.555  1.00  0.00     0.305 A 
HETATM   13  C9  UNK     1      19.449  -0.695  31.178  1.00  0.00     0.088 A 
HETATM   14  C10 UNK     1      17.984   5.537  32.255  1.00  0.00     0.038 A 
HETATM   15  C11 UNK     1      18.849   5.628  30.008  1.00  0.00     0.001 A 
HETATM   16  C12 UNK     1      18.307   6.272  31.119  1.00  0.00     0.003 A 
HETATM   17  C13 UNK     1      20.309  -0.425  28.857  1.00  0.00     0.077 C 
ENDROOT
TORSDOF 0
ENDMDL
MODEL 8
REMARK VINA RESULT:      -7.4      5.746      6.925
REMARK  0 active torsions:
REMARK  status: ('A' for Active; 'I' for Inactive)
ROOT
HETATM    1  O1  UNK     1      16.209   6.937  32.102  1.00  0.00    -0.313 OA
HETATM    2  O2  UNK     1      20.072   6.999  33.722  1.00  0.00    -0.274 OA
HETATM    3  O3  UNK     1      16.557   8.206  35.918  1.00  0.00    -0.287 OA
HETATM    4  O4  UNK     1      19.251   7.786  35.694  1.00  0.00    -0.259 OA
HETATM    5  C1  UNK     1      17.454   6.984  32.704  1.00  0.00     0.109 A 
HETATM    6  C2  UNK     1      18.568   6.549  31.863  1.00  0.00     0.033 A 
HETATM    7  C3  UNK     1      17.666   7.393  33.966  1.00  0.00     0.124 A 
HETATM    8  C4  UNK     1      19.853   6.570  32.399  1.00  0.00     0.092 A 
HETATM    9  C5  UNK     1      16.474   7.819  34.757  1.00  0.00     0.193 A 
HETATM   10  C6  UNK     1      15.096   7.330  32.820  1.00  0.00     0.053 A 
HETATM   11  C7  UNK     1      18.416   6.112  30.541  1.00  0.00     0.017 A 
HETATM   12  C8  UNK     1      19.034   7.417  34.546  1.00  0.00     0.305 A 
HETATM   13  C9  UNK     1      15.160   7.758  34.086  1.00  0.00     0.088 A 
HETATM   14  C10 UNK     1      20.971   6.172  31.667  1.00  0.00     0.038 A 
HETATM   15  C11 UNK     1      19.528   5.710  29.793  1.00  0.00     0.001 A 
HETATM   16  C12 UNK     1      20.803   5.740  30.355  1.00  0.00     0.003 A 
HETATM   17  C13 UNK     1      13.814   7.234  32.057  1.00  0.00     0.077 C 
ENDROOT
TORSDOF 0
ENDMDL
MODEL 9
REMARK VINA RESULT:      -7.4      1.967      5.057
REMARK  0 active torsions:
REMARK  status: ('A' for Active; 'I' for Inactive)
ROOT
HETATM    1  O1  UNK     1      18.071   2.765  33.206  1.00  0.00    -0.313 OA
HETATM    2  O2  UNK     1      18.797  -1.295  33.941  1.00  0.00    -0.274 OA
HETATM    3  O3  UNK     1      19.250   0.534  30.056  1.00  0.00    -0.287 OA
HETATM    4  O4  UNK     1      19.344  -1.610  31.753  1.00  0.00    -0.259 OA
HETATM    5  C1  UNK     1      18.330   1.417  33.373  1.00  0.00     0.109 A 
HETATM    6  C2  UNK     1      18.144   0.911  34.733  1.00  0.00     0.033 A 
HETATM    7  C3  UNK     1      18.725   0.597  32.384  1.00  0.00     0.124 A 
HETATM    8  C4  UNK     1      18.384  -0.438  34.978  1.00  0.00     0.092 A 
HETATM    9  C5  UNK     1      18.892   1.193  31.027  1.00  0.00     0.193 A 
HETATM   10  C6  UNK     1      18.219   3.332  31.955  1.00  0.00     0.053 A 
HETATM   11  C7  UNK     1      17.736   1.711  35.808  1.00  0.00     0.017 A 
HETATM   12  C8  UNK     1      18.983  -0.844  32.639  1.00  0.00     0.305 A 
HETATM   13  C9  UNK     1      18.607   2.635  30.881  1.00  0.00     0.088 A 
HETATM   14  C10 UNK     1      18.232  -1.002  36.245  1.00  0.00     0.038 A 
HETATM   15  C11 UNK     1      17.577   1.161  37.084  1.00  0.00     0.001 A 
HETATM   16  C12 UNK     1      17.826  -0.194  37.302  1.00  0.00     0.003 A 
HETATM   17  C13 UNK     1      17.908   4.793  31.908  1.00  0.00     0.077 C 
ENDROOT
TORSDOF 0
ENDMDL
MODEL 10
REMARK VINA RESULT:      -7.2      1.365      4.494
REMARK  0 active torsions:
REMARK  status: ('A' for Active; 'I' for Inactive)
ROOT
HETATM    1  O1  UNK     1      19.527  -0.778  31.530  1.00  0.00    -0.313 OA
HETATM    2  O2  UNK     1      17.777   2.485  33.490  1.00  0.00    -0.274 OA
HETATM    3  O3  UNK     1      18.930   2.553  29.330  1.00  0.00    -0.287 OA
HETATM    4  O4  UNK     1      17.874   3.710  31.573  1.00  0.00    -0.259 OA
HETATM    5  C1  UNK     1      18.953   0.340  32.109  1.00  0.00     0.109 A 
HETATM    6  C2  UNK     1      18.603   0.197  33.522  1.00  0.00     0.033 A 
HETATM    7  C3  UNK     1      18.718   1.491  31.457  1.00  0.00     0.124 A 
HETATM    8  C4  UNK     1      18.022   1.281  34.176  1.00  0.00     0.092 A 
HETATM    9  C5  UNK     1      19.103   1.552  30.017  1.00  0.00     0.193 A 
HETATM   10  C6  UNK     1      19.892  -0.736  30.198  1.00  0.00     0.053 A 
HETATM   11  C7  UNK     1      18.820  -0.974  34.260  1.00  0.00     0.017 A 
HETATM   12  C8  UNK     1      18.098   2.651  32.148  1.00  0.00     0.305 A 
HETATM   13  C9  UNK     1      19.715   0.343  29.428  1.00  0.00     0.088 A 
HETATM   14  C10 UNK     1      17.658   1.229  35.521  1.00  0.00     0.038 A 
HETATM   15  C11 UNK     1      18.461  -1.041  35.610  1.00  0.00     0.001 A 
HETATM   16  C12 UNK     1      17.880   0.059  36.239  1.00  0.00     0.003 A 
HETATM   17  C13 UNK     1      20.501  -2.005  29.694  1.00  0.00     0.077 C 
ENDROOT
TORSDOF 0
ENDMDL
