MODEL 1
REMARK VINA RESULT:      -7.8      0.000      0.000
REMARK  2 active torsions:
REMARK  status: ('A' for Active; 'I' for Inactive)
REMARK    1  A    between atoms: C2_6  and  O2_2 
REMARK    2  A    between atoms: C1_5  and  C2_6 
ROOT
HETATM    1  O1  UNK     1      18.792   1.145  32.004  1.00  0.00    -0.342 OA
HETATM    2  O3  UNK     1      17.626   5.428  33.904  1.00  0.00    -0.275 OA
HETATM    3  O4  UNK     1      17.088   7.496  34.729  1.00  0.00    -0.260 OA
HETATM    4  C1  UNK     1      18.893   0.756  30.608  1.00  0.00     0.166 C 
HETATM    5  C3  UNK     1      19.261   1.993  29.775  1.00  0.00     0.077 C 
HETATM    6  C4  UNK     1      18.796   3.050  30.701  1.00  0.00    -0.021 A 
HETATM    7  C5  UNK     1      18.574   2.498  31.956  1.00  0.00     0.078 A 
HETATM    8  C8  UNK     1      18.640   4.409  30.478  1.00  0.00     0.024 A 
HETATM    9  C9  UNK     1      18.192   3.266  33.037  1.00  0.00     0.075 A 
HETATM   10  C10 UNK     1      18.240   5.213  31.551  1.00  0.00    -0.001 A 
HETATM   11  C11 UNK     1      18.024   4.632  32.808  1.00  0.00     0.092 A 
HETATM   12  C12 UNK     1      18.047   6.647  31.404  1.00  0.00     0.020 A 
HETATM   13  C13 UNK     1      17.669   7.388  32.449  1.00  0.00     0.083 A 
HETATM   14  C14 UNK     1      17.435   6.801  33.781  1.00  0.00     0.288 A 
ENDROOT
BRANCH   4  15
HETATM   15  C2  UNK     1      19.918  -0.358  30.479  1.00  0.00     0.077 C 
HETATM   16  C6  UNK     1      20.099  -0.778  29.018  1.00  0.00     0.048 C 
HETATM   17  C7  UNK     1      19.522  -1.565  31.333  1.00  0.00     0.048 C 
BRANCH  15  18
HETATM   18  O2  UNK     1      21.178   0.112  30.969  1.00  0.00    -0.388 OA
HETATM   19  H12 UNK     1      21.291   1.032  30.674  1.00  0.00     0.210 HD
ENDBRANCH  15  18
ENDBRANCH   4  15
TORSDOF 2
ENDMDL
MODEL 2
REMARK VINA RESULT:      -7.6      1.469      6.401
REMARK  2 active torsions:
REMARK  status: ('A' for Active; 'I' for Inactive)
REMARK    1  A    between atoms: C2_6  and  O2_2 
REMARK    2  A    between atoms: C1_5  and  C2_6 
ROOT
HETATM    1  O1  UNK     1      17.665   5.487  32.851  1.00  0.00    -0.342 OA
HETATM    2  O3  UNK     1      18.715   0.788  32.483  1.00  0.00    -0.275 OA
HETATM    3  O4  UNK     1      19.233  -1.428  32.225  1.00  0.00    -0.260 OA
HETATM    4  C1  UNK     1      18.031   6.582  31.970  1.00  0.00     0.166 C 
HETATM    5  C3  UNK     1      18.206   6.033  30.546  1.00  0.00     0.077 C 
HETATM    6  C4  UNK     1      18.456   4.611  30.869  1.00  0.00    -0.021 A 
HETATM    7  C5  UNK     1      18.101   4.368  32.189  1.00  0.00     0.078 A 
HETATM    8  C8  UNK     1      18.903   3.588  30.047  1.00  0.00     0.024 A 
HETATM    9  C9  UNK     1      18.171   3.108  32.747  1.00  0.00     0.075 A 
HETATM   10  C10 UNK     1      18.998   2.300  30.586  1.00  0.00    -0.001 A 
HETATM   11  C11 UNK     1      18.631   2.081  31.922  1.00  0.00     0.092 A 
HETATM   12  C12 UNK     1      19.462   1.170  29.798  1.00  0.00     0.020 A 
HETATM   13  C13 UNK     1      19.536  -0.048  30.341  1.00  0.00     0.083 A 
HETATM   14  C14 UNK     1      19.158  -0.303  31.742  1.00  0.00     0.288 A 
ENDROOT
BRANCH   4  15
HETATM   15  C2  UNK     1      16.962   7.659  32.051  1.00  0.00     0.077 C 
HETATM   16  C6  UNK     1      17.393   8.797  32.979  1.00  0.00     0.048 C 
HETATM   17  C7  UNK     1      15.629   7.070  32.517  1.00  0.00     0.048 C 
BRANCH  15  18
HETATM   18  O2  UNK     1      16.751   8.202  30.744  1.00  0.00    -0.388 OA
HETATM   19  H12 UNK     1      15.793   8.308  30.613  1.00  0.00     0.210 HD
ENDBRANCH  15  18
ENDBRANCH   4  15
TORSDOF 2
ENDMDL
MODEL 3
REMARK VINA RESULT:      -7.5     23.267     24.612
REMARK  2 active torsions:
REMARK  status: ('A' for Active; 'I' for Inactive)
REMARK    1  A    between atoms: C2_6  and  O2_2 
REMARK    2  A    between atoms: C1_5  and  C2_6 
ROOT
HETATM    1  O1  UNK     1      10.857   5.186   7.929  1.00  0.00    -0.342 OA
HETATM    2  O3  UNK     1      15.609   5.349   8.774  1.00  0.00    -0.275 OA
HETATM    3  O4  UNK     1      17.851   5.503   9.212  1.00  0.00    -0.260 OA
HETATM    4  C1  UNK     1       9.788   5.956   8.541  1.00  0.00     0.166 C 
HETATM    5  C3  UNK     1      10.353   7.310   8.996  1.00  0.00     0.077 C 
HETATM    6  C4  UNK     1      11.786   6.951   9.090  1.00  0.00    -0.021 A 
HETATM    7  C5  UNK     1      12.002   5.743   8.438  1.00  0.00     0.078 A 
HETATM    8  C8  UNK     1      12.835   7.661   9.649  1.00  0.00     0.024 A 
HETATM    9  C9  UNK     1      13.261   5.194   8.314  1.00  0.00     0.075 A 
HETATM   10  C10 UNK     1      14.124   7.124   9.552  1.00  0.00    -0.001 A 
HETATM   11  C11 UNK     1      14.316   5.904   8.888  1.00  0.00     0.092 A 
HETATM   12  C12 UNK     1      15.282   7.800  10.115  1.00  0.00     0.020 A 
HETATM   13  C13 UNK     1      16.499   7.263  10.000  1.00  0.00     0.083 A 
HETATM   14  C14 UNK     1      16.727   5.982   9.308  1.00  0.00     0.288 A 
ENDROOT
BRANCH   4  15
HETATM   15  C2  UNK     1       8.653   6.104   7.542  1.00  0.00     0.077 C 
HETATM   16  C6  UNK     1       9.185   6.210   6.111  1.00  0.00     0.048 C 
HETATM   17  C7  UNK     1       7.788   7.321   7.877  1.00  0.00     0.048 C 
BRANCH  15  18
HETATM   18  O2  UNK     1       7.811   4.951   7.623  1.00  0.00    -0.388 OA
HETATM   19  H12 UNK     1       8.170   4.273   7.026  1.00  0.00     0.210 HD
ENDBRANCH  15  18
ENDBRANCH   4  15
TORSDOF 2
ENDMDL
MODEL 4
REMARK VINA RESULT:      -7.4      3.399      6.266
REMARK  2 active torsions:
REMARK  status: ('A' for Active; 'I' for Inactive)
REMARK    1  A    between atoms: C2_6  and  O2_2 
REMARK    2  A    between atoms: C1_5  and  C2_6 
ROOT
HETATM    1  O1  UNK     1      18.634  -0.452  35.153  1.00  0.00    -0.342 OA
HETATM    2  O3  UNK     1      19.428  -0.539  30.391  1.00  0.00    -0.275 OA
HETATM    3  O4  UNK     1      19.780  -0.498  28.128  1.00  0.00    -0.260 OA
HETATM    4  C1  UNK     1      18.492   0.689  36.040  1.00  0.00     0.166 C 
HETATM    5  C3  UNK     1      17.938   1.875  35.236  1.00  0.00     0.077 C 
HETATM    6  C4  UNK     1      18.338   1.447  33.876  1.00  0.00    -0.021 A 
HETATM    7  C5  UNK     1      18.696   0.106  33.902  1.00  0.00     0.078 A 
HETATM    8  C8  UNK     1      18.328   2.164  32.690  1.00  0.00     0.024 A 
HETATM    9  C9  UNK     1      19.056  -0.578  32.758  1.00  0.00     0.075 A 
HETATM   10  C10 UNK     1      18.700   1.503  31.515  1.00  0.00    -0.001 A 
HETATM   11  C11 UNK     1      19.056   0.147  31.567  1.00  0.00     0.092 A 
HETATM   12  C12 UNK     1      18.722   2.179  30.227  1.00  0.00     0.020 A 
HETATM   13  C13 UNK     1      19.077   1.518  29.123  1.00  0.00     0.083 A 
HETATM   14  C14 UNK     1      19.457   0.094  29.152  1.00  0.00     0.288 A 
ENDROOT
BRANCH   4  15
HETATM   15  C2  UNK     1      17.593   0.303  37.202  1.00  0.00     0.077 C 
HETATM   16  C6  UNK     1      17.770  -1.171  37.573  1.00  0.00     0.048 C 
HETATM   17  C7  UNK     1      16.126   0.595  36.876  1.00  0.00     0.048 C 
BRANCH  15  18
HETATM   18  O2  UNK     1      17.939   1.097  38.340  1.00  0.00    -0.388 OA
HETATM   19  H12 UNK     1      17.468   1.945  38.271  1.00  0.00     0.210 HD
ENDBRANCH  15  18
ENDBRANCH   4  15
TORSDOF 2
ENDMDL
MODEL 5
REMARK VINA RESULT:      -7.4      3.810      7.136
REMARK  2 active torsions:
REMARK  status: ('A' for Active; 'I' for Inactive)
REMARK    1  A    between atoms: C2_6  and  O2_2 
REMARK    2  A    between atoms: C1_5  and  C2_6 
ROOT
HETATM    1  O1  UNK     1      17.776   1.268  34.597  1.00  0.00    -0.342 OA
HETATM    2  O3  UNK     1      19.602   0.193  30.258  1.00  0.00    -0.275 OA
HETATM    3  O4  UNK     1      20.491  -0.394  28.230  1.00  0.00    -0.260 OA
HETATM    4  C1  UNK     1      17.419   0.380  35.689  1.00  0.00     0.166 C 
HETATM    5  C3  UNK     1      18.302  -0.876  35.614  1.00  0.00     0.077 C 
HETATM    6  C4  UNK     1      18.680  -0.815  34.184  1.00  0.00    -0.021 A 
HETATM    7  C5  UNK     1      18.374   0.443  33.680  1.00  0.00     0.078 A 
HETATM    8  C8  UNK     1      19.305  -1.769  33.398  1.00  0.00     0.024 A 
HETATM    9  C9  UNK     1      18.676   0.804  32.383  1.00  0.00     0.075 A 
HETATM   10  C10 UNK     1      19.612  -1.439  32.074  1.00  0.00    -0.001 A 
HETATM   11  C11 UNK     1      19.295  -0.162  31.589  1.00  0.00     0.092 A 
HETATM   12  C12 UNK     1      20.263  -2.382  31.178  1.00  0.00     0.020 A 
HETATM   13  C13 UNK     1      20.547  -2.033  29.921  1.00  0.00     0.083 A 
HETATM   14  C14 UNK     1      20.223  -0.697  29.387  1.00  0.00     0.288 A 
ENDROOT
BRANCH   4  15
HETATM   15  C2  UNK     1      17.578   1.125  37.004  1.00  0.00     0.077 C 
HETATM   16  C6  UNK     1      17.896   0.163  38.151  1.00  0.00     0.048 C 
HETATM   17  C7  UNK     1      16.322   1.938  37.325  1.00  0.00     0.048 C 
BRANCH  15  18
HETATM   18  O2  UNK     1      18.662   2.052  36.882  1.00  0.00    -0.388 OA
HETATM   19  H12 UNK     1      18.630   2.654  37.644  1.00  0.00     0.210 HD
ENDBRANCH  15  18
ENDBRANCH   4  15
TORSDOF 2
ENDMDL
MODEL 6
REMARK VINA RESULT:      -7.3     23.274     24.474
REMARK  2 active torsions:
REMARK  status: ('A' for Active; 'I' for Inactive)
REMARK    1  A    between atoms: C2_6  and  O2_2 
REMARK    2  A    between atoms: C1_5  and  C2_6 
ROOT
HETATM    1  O1  UNK     1      13.744   7.329  10.542  1.00  0.00    -0.342 OA
HETATM    2  O3  UNK     1       9.436   7.031   8.383  1.00  0.00    -0.275 OA
HETATM    3  O4  UNK     1       7.431   6.863   7.288  1.00  0.00    -0.260 OA
HETATM    4  C1  UNK     1      15.011   6.733  10.153  1.00  0.00     0.166 C 
HETATM    5  C3  UNK     1      15.025   6.554   8.627  1.00  0.00     0.077 C 
HETATM    6  C4  UNK     1      13.566   6.559   8.374  1.00  0.00    -0.021 A 
HETATM    7  C5  UNK     1      12.905   7.037   9.498  1.00  0.00     0.078 A 
HETATM    8  C8  UNK     1      12.872   6.230   7.220  1.00  0.00     0.024 A 
HETATM    9  C9  UNK     1      11.536   7.208   9.525  1.00  0.00     0.075 A 
HETATM   10  C10 UNK     1      11.481   6.381   7.219  1.00  0.00    -0.001 A 
HETATM   11  C11 UNK     1      10.838   6.867   8.367  1.00  0.00     0.092 A 
HETATM   12  C12 UNK     1      10.675   6.055   6.054  1.00  0.00     0.020 A 
HETATM   13  C13 UNK     1       9.350   6.215   6.084  1.00  0.00     0.083 A 
HETATM   14  C14 UNK     1       8.649   6.722   7.277  1.00  0.00     0.288 A 
ENDROOT
BRANCH   4  15
HETATM   15  C2  UNK     1      16.144   7.616  10.645  1.00  0.00     0.077 C 
HETATM   16  C6  UNK     1      15.874   8.125  12.063  1.00  0.00     0.048 C 
HETATM   17  C7  UNK     1      16.372   8.793   9.694  1.00  0.00     0.048 C 
BRANCH  15  18
HETATM   18  O2  UNK     1      17.353   6.850  10.667  1.00  0.00    -0.388 OA
HETATM   19  H12 UNK     1      17.117   5.913  10.555  1.00  0.00     0.210 HD
ENDBRANCH  15  18
ENDBRANCH   4  15
TORSDOF 2
ENDMDL
MODEL 7
REMARK VINA RESULT:      -7.3     23.128     24.356
REMARK  2 active torsions:
REMARK  status: ('A' for Active; 'I' for Inactive)
REMARK    1  A    between atoms: C2_6  and  O2_2 
REMARK    2  A    between atoms: C1_5  and  C2_6 
ROOT
HETATM    1  O1  UNK     1      13.883   6.370  10.283  1.00  0.00    -0.342 OA
HETATM    2  O3  UNK     1       9.418   5.063   8.991  1.00  0.00    -0.275 OA
HETATM    3  O4  UNK     1       7.304   4.499   8.313  1.00  0.00    -0.260 OA
HETATM    4  C1  UNK     1      14.899   7.061   9.508  1.00  0.00     0.166 C 
HETATM    5  C3  UNK     1      14.205   7.949   8.464  1.00  0.00     0.077 C 
HETATM    6  C4  UNK     1      12.898   7.257   8.394  1.00  0.00    -0.021 A 
HETATM    7  C5  UNK     1      12.776   6.393   9.475  1.00  0.00     0.078 A 
HETATM    8  C8  UNK     1      11.865   7.418   7.485  1.00  0.00     0.024 A 
HETATM    9  C9  UNK     1      11.629   5.659   9.699  1.00  0.00     0.075 A 
HETATM   10  C10 UNK     1      10.694   6.678   7.677  1.00  0.00    -0.001 A 
HETATM   11  C11 UNK     1      10.594   5.814   8.777  1.00  0.00     0.092 A 
HETATM   12  C12 UNK     1       9.563   6.781   6.769  1.00  0.00     0.020 A 
HETATM   13  C13 UNK     1       8.457   6.065   6.983  1.00  0.00     0.083 A 
HETATM   14  C14 UNK     1       8.327   5.149   8.131  1.00  0.00     0.288 A 
ENDROOT
BRANCH   4  15
HETATM   15  C2  UNK     1      15.784   7.856  10.453  1.00  0.00     0.077 C 
HETATM   16  C6  UNK     1      15.780   9.344  10.095  1.00  0.00     0.048 C 
HETATM   17  C7  UNK     1      17.215   7.313  10.445  1.00  0.00     0.048 C 
BRANCH  15  18
HETATM   18  O2  UNK     1      15.284   7.714  11.786  1.00  0.00    -0.388 OA
HETATM   19  H12 UNK     1      16.045   7.687  12.391  1.00  0.00     0.210 HD
ENDBRANCH  15  18
ENDBRANCH   4  15
TORSDOF 2
ENDMDL
MODEL 8
REMARK VINA RESULT:      -7.2      1.596      6.654
REMARK  2 active torsions:
REMARK  status: ('A' for Active; 'I' for Inactive)
REMARK    1  A    between atoms: C2_6  and  O2_2 
REMARK    2  A    between atoms: C1_5  and  C2_6 
ROOT
HETATM    1  O1  UNK     1      18.088   5.523  31.245  1.00  0.00    -0.342 OA
HETATM    2  O3  UNK     1      19.412   1.400  29.110  1.00  0.00    -0.275 OA
HETATM    3  O4  UNK     1      20.038  -0.594  28.174  1.00  0.00    -0.260 OA
HETATM    4  C1  UNK     1      17.488   5.730  32.552  1.00  0.00     0.166 C 
HETATM    5  C3  UNK     1      17.931   4.592  33.485  1.00  0.00     0.077 C 
HETATM    6  C4  UNK     1      18.285   3.577  32.468  1.00  0.00    -0.021 A 
HETATM    7  C5  UNK     1      18.382   4.185  31.223  1.00  0.00     0.078 A 
HETATM    8  C8  UNK     1      18.565   2.229  32.631  1.00  0.00     0.024 A 
HETATM    9  C9  UNK     1      18.760   3.486  30.095  1.00  0.00     0.075 A 
HETATM   10  C10 UNK     1      18.939   1.490  31.504  1.00  0.00    -0.001 A 
HETATM   11  C11 UNK     1      19.031   2.128  30.258  1.00  0.00     0.092 A 
HETATM   12  C12 UNK     1      19.246   0.071  31.584  1.00  0.00     0.020 A 
HETATM   13  C13 UNK     1      19.604  -0.605  30.489  1.00  0.00     0.083 A 
HETATM   14  C14 UNK     1      19.707   0.042  29.169  1.00  0.00     0.288 A 
ENDROOT
BRANCH   4  15
HETATM   15  C2  UNK     1      17.896   7.099  33.071  1.00  0.00     0.077 C 
HETATM   16  C6  UNK     1      19.414   7.199  33.237  1.00  0.00     0.048 C 
HETATM   17  C7  UNK     1      17.195   7.411  34.395  1.00  0.00     0.048 C 
BRANCH  15  18
HETATM   18  O2  UNK     1      17.481   8.093  32.129  1.00  0.00    -0.388 OA
HETATM   19  H12 UNK     1      16.644   7.800  31.731  1.00  0.00     0.210 HD
ENDBRANCH  15  18
ENDBRANCH   4  15
TORSDOF 2
ENDMDL
MODEL 9
REMARK VINA RESULT:      -7.1     22.994     24.194
REMARK  2 active torsions:
REMARK  status: ('A' for Active; 'I' for Inactive)
REMARK    1  A    between atoms: C2_6  and  O2_2 
REMARK    2  A    between atoms: C1_5  and  C2_6 
ROOT
HETATM    1  O1  UNK     1      11.371   7.585   8.010  1.00  0.00    -0.342 OA
HETATM    2  O3  UNK     1      15.763   9.198   9.206  1.00  0.00    -0.275 OA
HETATM    3  O4  UNK     1      17.863   9.885   9.806  1.00  0.00    -0.260 OA
HETATM    4  C1  UNK     1      10.893   6.218   7.902  1.00  0.00     0.166 C 
HETATM    5  C3  UNK     1      11.707   5.332   8.856  1.00  0.00     0.077 C 
HETATM    6  C4  UNK     1      12.912   6.179   8.998  1.00  0.00    -0.021 A 
HETATM    7  C5  UNK     1      12.638   7.454   8.519  1.00  0.00     0.078 A 
HETATM    8  C8  UNK     1      14.140   5.875   9.563  1.00  0.00     0.024 A 
HETATM    9  C9  UNK     1      13.564   8.475   8.583  1.00  0.00     0.075 A 
HETATM   10  C10 UNK     1      15.106   6.885   9.631  1.00  0.00    -0.001 A 
HETATM   11  C11 UNK     1      14.803   8.164   9.142  1.00  0.00     0.092 A 
HETATM   12  C12 UNK     1      16.422   6.651  10.203  1.00  0.00     0.020 A 
HETATM   13  C13 UNK     1      17.320   7.638  10.257  1.00  0.00     0.083 A 
HETATM   14  C14 UNK     1      17.027   8.991   9.749  1.00  0.00     0.288 A 
ENDROOT
BRANCH   4  15
HETATM   15  C2  UNK     1       9.405   6.190   8.208  1.00  0.00     0.077 C 
HETATM   16  C6  UNK     1       8.576   6.128   6.923  1.00  0.00     0.048 C 
HETATM   17  C7  UNK     1       8.997   7.406   9.043  1.00  0.00     0.048 C 
BRANCH  15  18
HETATM   18  O2  UNK     1       9.114   5.026   8.987  1.00  0.00    -0.388 OA
HETATM   19  H12 UNK     1       8.179   4.798   8.849  1.00  0.00     0.210 HD
ENDBRANCH  15  18
ENDBRANCH   4  15
TORSDOF 2
ENDMDL
MODEL 10
REMARK VINA RESULT:      -7.1      3.104      4.356
REMARK  2 active torsions:
REMARK  status: ('A' for Active; 'I' for Inactive)
REMARK    1  A    between atoms: C2_6  and  O2_2 
REMARK    2  A    between atoms: C1_5  and  C2_6 
ROOT
HETATM    1  O1  UNK     1      17.842   0.704  33.769  1.00  0.00    -0.342 OA
HETATM    2  O3  UNK     1      18.563   4.500  30.874  1.00  0.00    -0.275 OA
HETATM    3  O4  UNK     1      18.915   6.350  29.570  1.00  0.00    -0.260 OA
HETATM    4  C1  UNK     1      18.159   0.550  35.178  1.00  0.00     0.166 C 
HETATM    5  C3  UNK     1      18.123   1.933  35.847  1.00  0.00     0.077 C 
HETATM    6  C4  UNK     1      18.328   2.780  34.651  1.00  0.00    -0.021 A 
HETATM    7  C5  UNK     1      18.127   2.019  33.507  1.00  0.00     0.078 A 
HETATM    8  C8  UNK     1      18.609   4.135  34.570  1.00  0.00     0.024 A 
HETATM    9  C9  UNK     1      18.193   2.567  32.242  1.00  0.00     0.075 A 
HETATM   10  C10 UNK     1      18.695   4.718  33.302  1.00  0.00    -0.001 A 
HETATM   11  C11 UNK     1      18.486   3.929  32.162  1.00  0.00     0.092 A 
HETATM   12  C12 UNK     1      18.990   6.131  33.125  1.00  0.00     0.020 A 
HETATM   13  C13 UNK     1      19.061   6.658  31.901  1.00  0.00     0.083 A 
HETATM   14  C14 UNK     1      18.846   5.850  30.687  1.00  0.00     0.288 A 
ENDROOT
BRANCH   4  15
HETATM   15  C2  UNK     1      17.173  -0.424  35.802  1.00  0.00     0.077 C 
HETATM   16  C6  UNK     1      15.730  -0.041  35.467  1.00  0.00     0.048 C 
HETATM   17  C7  UNK     1      17.364  -0.496  37.319  1.00  0.00     0.048 C 
BRANCH  15  18
HETATM   18  O2  UNK     1      17.423  -1.733  35.281  1.00  0.00    -0.388 OA
HETATM   19  H12 UNK     1      17.583  -1.651  34.326  1.00  0.00     0.210 HD
ENDBRANCH  15  18
ENDBRANCH   4  15
TORSDOF 2
ENDMDL
