MODEL 1
REMARK VINA RESULT:      -8.6      0.000      0.000
REMARK  4 active torsions:
REMARK  status: ('A' for Active; 'I' for Inactive)
REMARK    1  A    between atoms: C10_16  and  N1_5 
REMARK    2  A    between atoms: C11_17  and  N1_5 
REMARK    3  A    between atoms: C11_17  and  C9_15 
REMARK    4  A    between atoms: C12_18  and  C9_15 
ROOT
HETATM    1  O1  UNK     1      28.389  -8.298  33.239  1.00  0.00    -0.332 OA
HETATM    2  O2  UNK     1      31.176  -5.068  35.583  1.00  0.00    -0.274 OA
HETATM    3  O3  UNK     1      30.375  -6.635  30.725  1.00  0.00    -0.289 OA
HETATM    4  O4  UNK     1      32.404  -3.508  36.724  1.00  0.00    -0.260 OA
HETATM    5  C1  UNK     1      28.563  -7.618  31.995  1.00  0.00     0.125 C 
HETATM    6  C2  UNK     1      29.885  -6.732  34.360  1.00  0.00     0.048 A 
HETATM    7  C3  UNK     1      30.629  -6.583  33.099  1.00  0.00     0.044 C 
HETATM    8  C4  UNK     1      29.918  -6.923  31.829  1.00  0.00     0.196 C 
HETATM    9  C5  UNK     1      28.799  -7.618  34.357  1.00  0.00     0.084 A 
HETATM   10  C6  UNK     1      28.437  -8.704  30.918  1.00  0.00     0.055 C 
HETATM   11  C7  UNK     1      27.440  -6.590  31.808  1.00  0.00     0.055 C 
HETATM   12  C8  UNK     1      30.157  -6.053  35.560  1.00  0.00     0.103 A 
HETATM   13  C10 UNK     1      31.932  -6.281  32.998  1.00  0.00     0.099 C 
HETATM   14  C13 UNK     1      29.430  -6.293  36.731  1.00  0.00    -0.001 A 
HETATM   15  C14 UNK     1      28.079  -7.888  35.527  1.00  0.00     0.039 A 
HETATM   16  C16 UNK     1      28.396  -7.228  36.712  1.00  0.00     0.017 A 
HETATM   17  C19 UNK     1      29.767  -5.563  37.943  1.00  0.00     0.020 A 
HETATM   18  C22 UNK     1      30.743  -4.654  37.940  1.00  0.00     0.083 A 
HETATM   19  C23 UNK     1      31.514  -4.350  36.724  1.00  0.00     0.288 A 
ENDROOT
BRANCH  13  20
HETATM   20  N1  UNK     1      32.809  -6.056  34.003  1.00  0.00    -0.398 N 
HETATM   21  H13 UNK     1      32.437  -5.862  34.924  1.00  0.00     0.158 HD
BRANCH  20  22
HETATM   22  C11 UNK     1      34.240  -6.230  33.877  1.00  0.00     0.123 C 
BRANCH  22  23
HETATM   23  C9  UNK     1      34.734  -7.369  34.769  1.00  0.00     0.060 C 
BRANCH  23  24
HETATM   24  C12 UNK     1      34.089  -7.387  36.126  1.00  0.00    -0.029 A 
HETATM   25  C15 UNK     1      33.021  -8.215  36.518  1.00  0.00    -0.002 A 
HETATM   26  C17 UNK     1      32.748  -7.898  37.850  1.00  0.00     0.042 A 
HETATM   27  C20 UNK     1      32.247  -9.210  35.886  1.00  0.00     0.014 A 
HETATM   28  N2  UNK     1      33.633  -6.911  38.220  1.00  0.00    -0.365 N 
HETATM   29  C21 UNK     1      31.736  -8.526  38.584  1.00  0.00     0.030 A 
HETATM   30  C18 UNK     1      34.455  -6.596  37.171  1.00  0.00     0.096 A 
HETATM   31  H16 UNK     1      33.670  -6.482  39.135  1.00  0.00     0.165 HD
HETATM   32  C25 UNK     1      30.982  -9.508  37.936  1.00  0.00     0.002 A 
HETATM   33  C24 UNK     1      31.232  -9.847  36.607  1.00  0.00     0.001 A 
ENDBRANCH  23  24
ENDBRANCH  22  23
ENDBRANCH  20  22
ENDBRANCH  13  20
TORSDOF 4
ENDMDL
MODEL 2
REMARK VINA RESULT:      -8.4      1.102      1.287
REMARK  4 active torsions:
REMARK  status: ('A' for Active; 'I' for Inactive)
REMARK    1  A    between atoms: C10_16  and  N1_5 
REMARK    2  A    between atoms: C11_17  and  N1_5 
REMARK    3  A    between atoms: C11_17  and  C9_15 
REMARK    4  A    between atoms: C12_18  and  C9_15 
ROOT
HETATM    1  O1  UNK     1      28.971  -8.634  32.624  1.00  0.00    -0.332 OA
HETATM    2  O2  UNK     1      29.901  -5.436  36.174  1.00  0.00    -0.274 OA
HETATM    3  O3  UNK     1      30.213  -5.647  31.022  1.00  0.00    -0.289 OA
HETATM    4  O4  UNK     1      30.244  -3.941  37.875  1.00  0.00    -0.260 OA
HETATM    5  C1  UNK     1      28.922  -7.600  31.640  1.00  0.00     0.125 C 
HETATM    6  C2  UNK     1      29.553  -7.022  34.359  1.00  0.00     0.048 A 
HETATM    7  C3  UNK     1      30.247  -6.218  33.340  1.00  0.00     0.044 C 
HETATM    8  C4  UNK     1      29.848  -6.411  31.912  1.00  0.00     0.196 C 
HETATM    9  C5  UNK     1      28.963  -8.219  33.931  1.00  0.00     0.084 A 
HETATM   10  C6  UNK     1      29.358  -8.267  30.329  1.00  0.00     0.055 C 
HETATM   11  C7  UNK     1      27.480  -7.096  31.494  1.00  0.00     0.055 C 
HETATM   12  C8  UNK     1      29.416  -6.686  35.717  1.00  0.00     0.103 A 
HETATM   13  C10 UNK     1      31.294  -5.409  33.569  1.00  0.00     0.099 C 
HETATM   14  C13 UNK     1      28.784  -7.535  36.632  1.00  0.00    -0.001 A 
HETATM   15  C14 UNK     1      28.350  -9.090  34.839  1.00  0.00     0.039 A 
HETATM   16  C16 UNK     1      28.262  -8.749  36.187  1.00  0.00     0.017 A 
HETATM   17  C19 UNK     1      28.681  -7.134  38.026  1.00  0.00     0.020 A 
HETATM   18  C22 UNK     1      29.163  -5.958  38.432  1.00  0.00     0.083 A 
HETATM   19  C23 UNK     1      29.811  -5.024  37.498  1.00  0.00     0.288 A 
ENDROOT
BRANCH  13  20
HETATM   20  N1  UNK     1      31.911  -5.171  34.749  1.00  0.00    -0.398 N 
HETATM   21  H13 UNK     1      31.373  -5.284  35.598  1.00  0.00     0.158 HD
BRANCH  20  22
HETATM   22  C11 UNK     1      33.329  -4.918  34.878  1.00  0.00     0.123 C 
BRANCH  22  23
HETATM   23  C9  UNK     1      34.063  -6.156  35.393  1.00  0.00     0.060 C 
BRANCH  23  24
HETATM   24  C12 UNK     1      33.366  -6.826  36.544  1.00  0.00    -0.029 A 
HETATM   25  C15 UNK     1      32.706  -8.068  36.494  1.00  0.00    -0.002 A 
HETATM   26  C17 UNK     1      32.210  -8.299  37.779  1.00  0.00     0.042 A 
HETATM   27  C20 UNK     1      32.471  -9.033  35.494  1.00  0.00     0.014 A 
HETATM   28  N2  UNK     1      32.573  -7.219  38.552  1.00  0.00    -0.365 N 
HETATM   29  C21 UNK     1      31.488  -9.449  38.115  1.00  0.00     0.030 A 
HETATM   30  C18 UNK     1      33.279  -6.317  37.803  1.00  0.00     0.096 A 
HETATM   31  H16 UNK     1      32.349  -7.110  39.532  1.00  0.00     0.165 HD
HETATM   32  C25 UNK     1      31.268 -10.392  37.107  1.00  0.00     0.002 A 
HETATM   33  C24 UNK     1      31.751 -10.189  35.815  1.00  0.00     0.001 A 
ENDBRANCH  23  24
ENDBRANCH  22  23
ENDBRANCH  20  22
ENDBRANCH  13  20
TORSDOF 4
ENDMDL
MODEL 3
REMARK VINA RESULT:      -8.3      3.170      6.929
REMARK  4 active torsions:
REMARK  status: ('A' for Active; 'I' for Inactive)
REMARK    1  A    between atoms: C10_16  and  N1_5 
REMARK    2  A    between atoms: C11_17  and  N1_5 
REMARK    3  A    between atoms: C11_17  and  C9_15 
REMARK    4  A    between atoms: C12_18  and  C9_15 
ROOT
HETATM    1  O1  UNK     1      30.456  -7.185  34.439  1.00  0.00    -0.332 OA
HETATM    2  O2  UNK     1      32.569 -10.147  31.206  1.00  0.00    -0.274 OA
HETATM    3  O3  UNK     1      33.929  -6.215  34.269  1.00  0.00    -0.289 OA
HETATM    4  O4  UNK     1      33.533 -11.619  29.739  1.00  0.00    -0.260 OA
HETATM    5  C1  UNK     1      31.715  -6.843  35.022  1.00  0.00     0.125 C 
HETATM    6  C2  UNK     1      31.554  -8.568  32.758  1.00  0.00     0.048 A 
HETATM    7  C3  UNK     1      32.714  -7.664  32.811  1.00  0.00     0.044 C 
HETATM    8  C4  UNK     1      32.893  -6.836  34.042  1.00  0.00     0.196 C 
HETATM    9  C5  UNK     1      30.463  -8.253  33.579  1.00  0.00     0.084 A 
HETATM   10  C6  UNK     1      31.534  -5.425  35.577  1.00  0.00     0.055 C 
HETATM   11  C7  UNK     1      32.025  -7.803  36.179  1.00  0.00     0.055 C 
HETATM   12  C8  UNK     1      31.452  -9.728  31.970  1.00  0.00     0.103 A 
HETATM   13  C10 UNK     1      33.563  -7.429  31.798  1.00  0.00     0.099 C 
HETATM   14  C13 UNK     1      30.290 -10.506  31.940  1.00  0.00    -0.001 A 
HETATM   15  C14 UNK     1      29.284  -9.007  33.540  1.00  0.00     0.039 A 
HETATM   16  C16 UNK     1      29.197 -10.130  32.721  1.00  0.00     0.017 A 
HETATM   17  C19 UNK     1      30.244 -11.691  31.097  1.00  0.00     0.020 A 
HETATM   18  C22 UNK     1      31.306 -12.052  30.374  1.00  0.00     0.083 A 
HETATM   19  C23 UNK     1      32.557 -11.278  30.398  1.00  0.00     0.288 A 
ENDROOT
BRANCH  13  20
HETATM   20  N1  UNK     1      33.531  -7.959  30.554  1.00  0.00    -0.398 N 
HETATM   21  H13 UNK     1      33.455  -8.964  30.467  1.00  0.00     0.158 HD
BRANCH  20  22
HETATM   22  C11 UNK     1      33.441  -7.169  29.345  1.00  0.00     0.123 C 
BRANCH  22  23
HETATM   23  C9  UNK     1      32.060  -6.525  29.212  1.00  0.00     0.060 C 
BRANCH  23  24
HETATM   24  C12 UNK     1      30.950  -7.525  29.047  1.00  0.00    -0.029 A 
HETATM   25  C15 UNK     1      29.685  -7.455  29.659  1.00  0.00    -0.002 A 
HETATM   26  C17 UNK     1      28.980  -8.581  29.229  1.00  0.00     0.042 A 
HETATM   27  C20 UNK     1      29.051  -6.554  30.539  1.00  0.00     0.014 A 
HETATM   28  N2  UNK     1      29.815  -9.285  28.390  1.00  0.00    -0.365 N 
HETATM   29  C21 UNK     1      27.669  -8.853  29.635  1.00  0.00     0.030 A 
HETATM   30  C18 UNK     1      31.019  -8.644  28.276  1.00  0.00     0.096 A 
HETATM   31  H16 UNK     1      29.572 -10.150  27.927  1.00  0.00     0.165 HD
HETATM   32  C25 UNK     1      27.061  -7.946  30.508  1.00  0.00     0.002 A 
HETATM   33  C24 UNK     1      27.740  -6.813  30.954  1.00  0.00     0.001 A 
ENDBRANCH  23  24
ENDBRANCH  22  23
ENDBRANCH  20  22
ENDBRANCH  13  20
TORSDOF 4
ENDMDL
MODEL 4
REMARK VINA RESULT:      -8.2      2.833      6.662
REMARK  4 active torsions:
REMARK  status: ('A' for Active; 'I' for Inactive)
REMARK    1  A    between atoms: C10_16  and  N1_5 
REMARK    2  A    between atoms: C11_17  and  N1_5 
REMARK    3  A    between atoms: C11_17  and  C9_15 
REMARK    4  A    between atoms: C12_18  and  C9_15 
ROOT
HETATM    1  O1  UNK     1      32.236  -5.113  34.661  1.00  0.00    -0.332 OA
HETATM    2  O2  UNK     1      31.769  -9.342  32.298  1.00  0.00    -0.274 OA
HETATM    3  O3  UNK     1      35.560  -6.111  33.669  1.00  0.00    -0.289 OA
HETATM    4  O4  UNK     1      31.504 -11.370  31.267  1.00  0.00    -0.260 OA
HETATM    5  C1  UNK     1      33.624  -5.347  34.906  1.00  0.00     0.125 C 
HETATM    6  C2  UNK     1      32.062  -7.181  33.381  1.00  0.00     0.048 A 
HETATM    7  C3  UNK     1      33.463  -7.007  32.962  1.00  0.00     0.044 C 
HETATM    8  C4  UNK     1      34.340  -6.148  33.814  1.00  0.00     0.196 C 
HETATM    9  C5  UNK     1      31.517  -6.188  34.206  1.00  0.00     0.084 A 
HETATM   10  C6  UNK     1      34.262  -3.955  34.987  1.00  0.00     0.055 C 
HETATM   11  C7  UNK     1      33.796  -6.061  36.253  1.00  0.00     0.055 C 
HETATM   12  C8  UNK     1      31.231  -8.262  33.040  1.00  0.00     0.103 A 
HETATM   13  C10 UNK     1      33.992  -7.458  31.814  1.00  0.00     0.099 C 
HETATM   14  C13 UNK     1      29.891  -8.324  33.438  1.00  0.00    -0.001 A 
HETATM   15  C14 UNK     1      30.172  -6.223  34.591  1.00  0.00     0.039 A 
HETATM   16  C16 UNK     1      29.360  -7.288  34.207  1.00  0.00     0.017 A 
HETATM   17  C19 UNK     1      29.081  -9.466  33.046  1.00  0.00     0.020 A 
HETATM   18  C22 UNK     1      29.610 -10.461  32.332  1.00  0.00     0.083 A 
HETATM   19  C23 UNK     1      31.021 -10.449  31.915  1.00  0.00     0.288 A 
ENDROOT
BRANCH  13  20
HETATM   20  N1  UNK     1      33.367  -8.145  30.831  1.00  0.00    -0.398 N 
HETATM   21  H13 UNK     1      32.798  -8.939  31.094  1.00  0.00     0.158 HD
BRANCH  20  22
HETATM   22  C11 UNK     1      33.338  -7.723  29.448  1.00  0.00     0.123 C 
BRANCH  22  23
HETATM   23  C9  UNK     1      32.087  -6.895  29.153  1.00  0.00     0.060 C 
BRANCH  23  24
HETATM   24  C12 UNK     1      30.823  -7.707  29.148  1.00  0.00    -0.029 A 
HETATM   25  C15 UNK     1      29.615  -7.352  29.779  1.00  0.00    -0.002 A 
HETATM   26  C17 UNK     1      28.718  -8.388  29.515  1.00  0.00     0.042 A 
HETATM   27  C20 UNK     1      29.179  -6.257  30.552  1.00  0.00     0.014 A 
HETATM   28  N2  UNK     1      29.386  -9.319  28.753  1.00  0.00    -0.365 N 
HETATM   29  C21 UNK     1      27.400  -8.385  29.988  1.00  0.00     0.030 A 
HETATM   30  C18 UNK     1      30.672  -8.907  28.525  1.00  0.00     0.096 A 
HETATM   31  H16 UNK     1      28.984 -10.181  28.411  1.00  0.00     0.165 HD
HETATM   32  C25 UNK     1      26.990  -7.289  30.752  1.00  0.00     0.002 A 
HETATM   33  C24 UNK     1      27.865  -6.240  31.031  1.00  0.00     0.001 A 
ENDBRANCH  23  24
ENDBRANCH  22  23
ENDBRANCH  20  22
ENDBRANCH  13  20
TORSDOF 4
ENDMDL
MODEL 5
REMARK VINA RESULT:      -8.2      1.385      1.652
REMARK  4 active torsions:
REMARK  status: ('A' for Active; 'I' for Inactive)
REMARK    1  A    between atoms: C10_16  and  N1_5 
REMARK    2  A    between atoms: C11_17  and  N1_5 
REMARK    3  A    between atoms: C11_17  and  C9_15 
REMARK    4  A    between atoms: C12_18  and  C9_15 
ROOT
HETATM    1  O1  UNK     1      28.129  -8.263  32.164  1.00  0.00    -0.332 OA
HETATM    2  O2  UNK     1      31.812  -5.516  33.771  1.00  0.00    -0.274 OA
HETATM    3  O3  UNK     1      30.063  -7.331  29.262  1.00  0.00    -0.289 OA
HETATM    4  O4  UNK     1      33.478  -4.162  34.570  1.00  0.00    -0.260 OA
HETATM    5  C1  UNK     1      28.273  -7.762  30.834  1.00  0.00     0.125 C 
HETATM    6  C2  UNK     1      30.053  -6.965  32.912  1.00  0.00     0.048 A 
HETATM    7  C3  UNK     1      30.636  -7.107  31.568  1.00  0.00     0.044 C 
HETATM    8  C4  UNK     1      29.708  -7.403  30.436  1.00  0.00     0.196 C 
HETATM    9  C5  UNK     1      28.816  -7.585  33.138  1.00  0.00     0.084 A 
HETATM   10  C6  UNK     1      27.782  -8.892  29.920  1.00  0.00     0.055 C 
HETATM   11  C7  UNK     1      27.372  -6.534  30.646  1.00  0.00     0.055 C 
HETATM   12  C8  UNK     1      30.618  -6.249  33.982  1.00  0.00     0.103 A 
HETATM   13  C10 UNK     1      31.949  -7.111  31.288  1.00  0.00     0.099 C 
HETATM   14  C13 UNK     1      30.021  -6.208  35.246  1.00  0.00    -0.001 A 
HETATM   15  C14 UNK     1      28.220  -7.574  34.404  1.00  0.00     0.039 A 
HETATM   16  C16 UNK     1      28.822  -6.888  35.457  1.00  0.00     0.017 A 
HETATM   17  C19 UNK     1      30.660  -5.456  36.315  1.00  0.00     0.020 A 
HETATM   18  C22 UNK     1      31.794  -4.790  36.093  1.00  0.00     0.083 A 
HETATM   19  C23 UNK     1      32.441  -4.783  34.771  1.00  0.00     0.288 A 
ENDROOT
BRANCH  13  20
HETATM   20  N1  UNK     1      32.979  -6.989  32.156  1.00  0.00    -0.398 N 
HETATM   21  H13 UNK     1      32.948  -6.234  32.829  1.00  0.00     0.158 HD
BRANCH  20  22
HETATM   22  C11 UNK     1      34.043  -7.961  32.284  1.00  0.00     0.123 C 
BRANCH  22  23
HETATM   23  C9  UNK     1      33.726  -8.980  33.379  1.00  0.00     0.060 C 
BRANCH  23  24
HETATM   24  C12 UNK     1      33.810  -8.410  34.767  1.00  0.00    -0.029 A 
HETATM   25  C15 UNK     1      32.883  -8.628  35.803  1.00  0.00    -0.002 A 
HETATM   26  C17 UNK     1      33.353  -7.913  36.906  1.00  0.00     0.042 A 
HETATM   27  C20 UNK     1      31.684  -9.360  35.930  1.00  0.00     0.014 A 
HETATM   28  N2  UNK     1      34.522  -7.296  36.519  1.00  0.00    -0.365 N 
HETATM   29  C21 UNK     1      32.684  -7.892  38.134  1.00  0.00     0.030 A 
HETATM   30  C18 UNK     1      34.805  -7.597  35.214  1.00  0.00     0.096 A 
HETATM   31  H16 UNK     1      35.088  -6.707  37.115  1.00  0.00     0.165 HD
HETATM   32  C25 UNK     1      31.498  -8.624  38.237  1.00  0.00     0.002 A 
HETATM   33  C24 UNK     1      31.004  -9.348  37.153  1.00  0.00     0.001 A 
ENDBRANCH  23  24
ENDBRANCH  22  23
ENDBRANCH  20  22
ENDBRANCH  13  20
TORSDOF 4
ENDMDL
MODEL 6
REMARK VINA RESULT:      -8.0      2.525      6.548
REMARK  4 active torsions:
REMARK  status: ('A' for Active; 'I' for Inactive)
REMARK    1  A    between atoms: C10_16  and  N1_5 
REMARK    2  A    between atoms: C11_17  and  N1_5 
REMARK    3  A    between atoms: C11_17  and  C9_15 
REMARK    4  A    between atoms: C12_18  and  C9_15 
ROOT
HETATM    1  O1  UNK     1      28.747  -6.357  37.263  1.00  0.00    -0.332 OA
HETATM    2  O2  UNK     1      30.770  -8.222  33.248  1.00  0.00    -0.274 OA
HETATM    3  O3  UNK     1      31.677  -4.366  36.565  1.00  0.00    -0.289 OA
HETATM    4  O4  UNK     1      31.727  -9.188  31.405  1.00  0.00    -0.260 OA
HETATM    5  C1  UNK     1      29.964  -5.705  37.632  1.00  0.00     0.125 C 
HETATM    6  C2  UNK     1      29.755  -7.178  35.201  1.00  0.00     0.048 A 
HETATM    7  C3  UNK     1      30.599  -5.973  35.166  1.00  0.00     0.044 C 
HETATM    8  C4  UNK     1      30.828  -5.248  36.453  1.00  0.00     0.196 C 
HETATM    9  C5  UNK     1      28.845  -7.287  36.261  1.00  0.00     0.084 A 
HETATM   10  C6  UNK     1      29.535  -4.467  38.430  1.00  0.00     0.055 C 
HETATM   11  C7  UNK     1      30.789  -6.628  38.538  1.00  0.00     0.055 C 
HETATM   12  C8  UNK     1      29.794  -8.235  34.275  1.00  0.00     0.103 A 
HETATM   13  C10 UNK     1      31.087  -5.398  34.055  1.00  0.00     0.099 C 
HETATM   14  C13 UNK     1      28.917  -9.323  34.352  1.00  0.00    -0.001 A 
HETATM   15  C14 UNK     1      27.944  -8.356  36.337  1.00  0.00     0.039 A 
HETATM   16  C16 UNK     1      27.979  -9.371  35.383  1.00  0.00     0.017 A 
HETATM   17  C19 UNK     1      29.002 -10.381  33.358  1.00  0.00     0.020 A 
HETATM   18  C22 UNK     1      29.920 -10.334  32.392  1.00  0.00     0.083 A 
HETATM   19  C23 UNK     1      30.879  -9.223  32.290  1.00  0.00     0.288 A 
ENDROOT
BRANCH  13  20
HETATM   20  N1  UNK     1      30.909  -5.794  32.774  1.00  0.00    -0.398 N 
HETATM   21  H13 UNK     1      31.109  -6.758  32.543  1.00  0.00     0.158 HD
BRANCH  20  22
HETATM   22  C11 UNK     1      30.306  -4.966  31.752  1.00  0.00     0.123 C 
BRANCH  22  23
HETATM   23  C9  UNK     1      29.240  -5.741  30.978  1.00  0.00     0.060 C 
BRANCH  23  24
HETATM   24  C12 UNK     1      29.812  -6.709  29.981  1.00  0.00    -0.029 A 
HETATM   25  C15 UNK     1      29.186  -7.883  29.523  1.00  0.00    -0.002 A 
HETATM   26  C17 UNK     1      30.070  -8.468  28.614  1.00  0.00     0.042 A 
HETATM   27  C20 UNK     1      27.956  -8.522  29.779  1.00  0.00     0.014 A 
HETATM   28  N2  UNK     1      31.179  -7.656  28.548  1.00  0.00    -0.365 N 
HETATM   29  C21 UNK     1      29.785  -9.665  27.946  1.00  0.00     0.030 A 
HETATM   30  C18 UNK     1      31.027  -6.580  29.381  1.00  0.00     0.096 A 
HETATM   31  H16 UNK     1      31.989  -7.830  27.968  1.00  0.00     0.165 HD
HETATM   32  C25 UNK     1      28.560 -10.280  28.216  1.00  0.00     0.002 A 
HETATM   33  C24 UNK     1      27.657  -9.719  29.118  1.00  0.00     0.001 A 
ENDBRANCH  23  24
ENDBRANCH  22  23
ENDBRANCH  20  22
ENDBRANCH  13  20
TORSDOF 4
ENDMDL
MODEL 7
REMARK VINA RESULT:      -7.9      2.209      5.505
REMARK  4 active torsions:
REMARK  status: ('A' for Active; 'I' for Inactive)
REMARK    1  A    between atoms: C10_16  and  N1_5 
REMARK    2  A    between atoms: C11_17  and  N1_5 
REMARK    3  A    between atoms: C11_17  and  C9_15 
REMARK    4  A    between atoms: C12_18  and  C9_15 
ROOT
HETATM    1  O1  UNK     1      33.688  -6.805  34.974  1.00  0.00    -0.332 OA
HETATM    2  O2  UNK     1      29.053  -6.055  33.690  1.00  0.00    -0.274 OA
HETATM    3  O3  UNK     1      32.339  -4.422  37.327  1.00  0.00    -0.289 OA
HETATM    4  O4  UNK     1      26.904  -5.675  32.995  1.00  0.00    -0.260 OA
HETATM    5  C1  UNK     1      33.728  -5.588  35.723  1.00  0.00     0.125 C 
HETATM    6  C2  UNK     1      31.332  -6.459  34.447  1.00  0.00     0.048 A 
HETATM    7  C3  UNK     1      31.174  -5.768  35.736  1.00  0.00     0.044 C 
HETATM    8  C4  UNK     1      32.398  -5.190  36.370  1.00  0.00     0.196 C 
HETATM    9  C5  UNK     1      32.605  -6.966  34.149  1.00  0.00     0.084 A 
HETATM   10  C6  UNK     1      34.758  -5.830  36.834  1.00  0.00     0.055 C 
HETATM   11  C7  UNK     1      34.215  -4.445  34.822  1.00  0.00     0.055 C 
HETATM   12  C8  UNK     1      30.326  -6.642  33.483  1.00  0.00     0.103 A 
HETATM   13  C10 UNK     1      30.040  -5.712  36.453  1.00  0.00     0.099 C 
HETATM   14  C13 UNK     1      30.548  -7.359  32.302  1.00  0.00    -0.001 A 
HETATM   15  C14 UNK     1      32.836  -7.708  32.985  1.00  0.00     0.039 A 
HETATM   16  C16 UNK     1      31.809  -7.905  32.064  1.00  0.00     0.017 A 
HETATM   17  C19 UNK     1      29.463  -7.519  31.347  1.00  0.00     0.020 A 
HETATM   18  C22 UNK     1      28.269  -6.970  31.578  1.00  0.00     0.083 A 
HETATM   19  C23 UNK     1      28.000  -6.185  32.792  1.00  0.00     0.288 A 
ENDROOT
BRANCH  13  20
HETATM   20  N1  UNK     1      28.844  -6.264  36.150  1.00  0.00    -0.398 N 
HETATM   21  H13 UNK     1      28.397  -5.987  35.286  1.00  0.00     0.158 HD
BRANCH  20  22
HETATM   22  C11 UNK     1      28.238  -7.339  36.906  1.00  0.00     0.123 C 
BRANCH  22  23
HETATM   23  C9  UNK     1      28.095  -8.598  36.051  1.00  0.00     0.060 C 
BRANCH  23  24
HETATM   24  C12 UNK     1      29.395  -9.319  35.830  1.00  0.00    -0.029 A 
HETATM   25  C15 UNK     1      29.744 -10.050  34.679  1.00  0.00    -0.002 A 
HETATM   26  C17 UNK     1      31.030 -10.544  34.904  1.00  0.00     0.042 A 
HETATM   27  C20 UNK     1      29.107 -10.350  33.457  1.00  0.00     0.014 A 
HETATM   28  N2  UNK     1      31.416 -10.112  36.153  1.00  0.00    -0.365 N 
HETATM   29  C21 UNK     1      31.714 -11.326  33.967  1.00  0.00     0.030 A 
HETATM   30  C18 UNK     1      30.421  -9.364  36.722  1.00  0.00     0.096 A 
HETATM   31  H16 UNK     1      32.306 -10.319  36.586  1.00  0.00     0.165 HD
HETATM   32  C25 UNK     1      31.062 -11.611  32.764  1.00  0.00     0.002 A 
HETATM   33  C24 UNK     1      29.779 -11.131  32.511  1.00  0.00     0.001 A 
ENDBRANCH  23  24
ENDBRANCH  22  23
ENDBRANCH  20  22
ENDBRANCH  13  20
TORSDOF 4
ENDMDL
MODEL 8
REMARK VINA RESULT:      -7.9      2.556      6.419
REMARK  4 active torsions:
REMARK  status: ('A' for Active; 'I' for Inactive)
REMARK    1  A    between atoms: C10_16  and  N1_5 
REMARK    2  A    between atoms: C11_17  and  N1_5 
REMARK    3  A    between atoms: C11_17  and  C9_15 
REMARK    4  A    between atoms: C12_18  and  C9_15 
ROOT
HETATM    1  O1  UNK     1      32.227  -3.957  36.787  1.00  0.00    -0.332 OA
HETATM    2  O2  UNK     1      28.596  -7.186  36.496  1.00  0.00    -0.274 OA
HETATM    3  O3  UNK     1      32.872  -5.973  33.862  1.00  0.00    -0.289 OA
HETATM    4  O4  UNK     1      26.911  -8.737  36.452  1.00  0.00    -0.260 OA
HETATM    5  C1  UNK     1      33.064  -4.750  35.943  1.00  0.00     0.125 C 
HETATM    6  C2  UNK     1      30.387  -5.535  36.525  1.00  0.00     0.048 A 
HETATM    7  C3  UNK     1      30.881  -5.846  35.174  1.00  0.00     0.044 C 
HETATM    8  C4  UNK     1      32.318  -5.559  34.878  1.00  0.00     0.196 C 
HETATM    9  C5  UNK     1      31.095  -4.572  37.256  1.00  0.00     0.084 A 
HETATM   10  C6  UNK     1      33.990  -3.752  35.236  1.00  0.00     0.055 C 
HETATM   11  C7  UNK     1      33.909  -5.701  36.802  1.00  0.00     0.055 C 
HETATM   12  C8  UNK     1      29.278  -6.132  37.151  1.00  0.00     0.103 A 
HETATM   13  C10 UNK     1      30.124  -6.256  34.145  1.00  0.00     0.099 C 
HETATM   14  C13 UNK     1      28.843  -5.740  38.422  1.00  0.00    -0.001 A 
HETATM   15  C14 UNK     1      30.656  -4.151  38.517  1.00  0.00     0.039 A 
HETATM   16  C16 UNK     1      29.531  -4.733  39.098  1.00  0.00     0.017 A 
HETATM   17  C19 UNK     1      27.684  -6.390  39.013  1.00  0.00     0.020 A 
HETATM   18  C22 UNK     1      27.050  -7.369  38.365  1.00  0.00     0.083 A 
HETATM   19  C23 UNK     1      27.491  -7.831  37.039  1.00  0.00     0.288 A 
ENDROOT
BRANCH  13  20
HETATM   20  N1  UNK     1      28.787  -6.462  34.134  1.00  0.00    -0.398 N 
HETATM   21  H13 UNK     1      28.236  -6.050  34.875  1.00  0.00     0.158 HD
BRANCH  20  22
HETATM   22  C11 UNK     1      28.081  -7.103  33.046  1.00  0.00     0.123 C 
BRANCH  22  23
HETATM   23  C9  UNK     1      28.057  -6.210  31.806  1.00  0.00     0.060 C 
BRANCH  23  24
HETATM   24  C12 UNK     1      29.024  -6.644  30.740  1.00  0.00    -0.029 A 
HETATM   25  C15 UNK     1      28.895  -7.788  29.930  1.00  0.00    -0.002 A 
HETATM   26  C17 UNK     1      30.009  -7.799  29.089  1.00  0.00     0.042 A 
HETATM   27  C20 UNK     1      27.949  -8.827  29.815  1.00  0.00     0.014 A 
HETATM   28  N2  UNK     1      30.764  -6.691  29.403  1.00  0.00    -0.365 N 
HETATM   29  C21 UNK     1      30.227  -8.799  28.135  1.00  0.00     0.030 A 
HETATM   30  C18 UNK     1      30.166  -5.982  30.410  1.00  0.00     0.096 A 
HETATM   31  H16 UNK     1      31.633  -6.438  28.953  1.00  0.00     0.165 HD
HETATM   32  C25 UNK     1      29.275  -9.819  28.040  1.00  0.00     0.002 A 
HETATM   33  C24 UNK     1      28.153  -9.834  28.866  1.00  0.00     0.001 A 
ENDBRANCH  23  24
ENDBRANCH  22  23
ENDBRANCH  20  22
ENDBRANCH  13  20
TORSDOF 4
ENDMDL
MODEL 9
REMARK VINA RESULT:      -7.9      2.255      5.842
REMARK  4 active torsions:
REMARK  status: ('A' for Active; 'I' for Inactive)
REMARK    1  A    between atoms: C10_16  and  N1_5 
REMARK    2  A    between atoms: C11_17  and  N1_5 
REMARK    3  A    between atoms: C11_17  and  C9_15 
REMARK    4  A    between atoms: C12_18  and  C9_15 
ROOT
HETATM    1  O1  UNK     1      29.483  -5.849  36.578  1.00  0.00    -0.332 OA
HETATM    2  O2  UNK     1      31.218  -9.982  34.682  1.00  0.00    -0.274 OA
HETATM    3  O3  UNK     1      32.253  -6.855  38.662  1.00  0.00    -0.289 OA
HETATM    4  O4  UNK     1      31.943 -11.967  33.799  1.00  0.00    -0.260 OA
HETATM    5  C1  UNK     1      30.101  -6.111  37.839  1.00  0.00     0.125 C 
HETATM    6  C2  UNK     1      30.464  -7.866  35.622  1.00  0.00     0.048 A 
HETATM    7  C3  UNK     1      31.619  -7.695  36.520  1.00  0.00     0.044 C 
HETATM    8  C4  UNK     1      31.423  -6.881  37.757  1.00  0.00     0.196 C 
HETATM    9  C5  UNK     1      29.454  -6.896  35.694  1.00  0.00     0.084 A 
HETATM   10  C6  UNK     1      30.378  -4.731  38.449  1.00  0.00     0.055 C 
HETATM   11  C7  UNK     1      29.124  -6.875  38.742  1.00  0.00     0.055 C 
HETATM   12  C8  UNK     1      30.278  -8.922  34.714  1.00  0.00     0.103 A 
HETATM   13  C10 UNK     1      32.869  -8.111  36.263  1.00  0.00     0.099 C 
HETATM   14  C13 UNK     1      29.173  -8.981  33.858  1.00  0.00    -0.001 A 
HETATM   15  C14 UNK     1      28.356  -6.927  34.827  1.00  0.00     0.039 A 
HETATM   16  C16 UNK     1      28.217  -7.967  33.909  1.00  0.00     0.017 A 
HETATM   17  C19 UNK     1      29.042 -10.097  32.935  1.00  0.00     0.020 A 
HETATM   18  C22 UNK     1      29.952 -11.072  32.914  1.00  0.00     0.083 A 
HETATM   19  C23 UNK     1      31.115 -11.064  33.816  1.00  0.00     0.288 A 
ENDROOT
BRANCH  13  20
HETATM   20  N1  UNK     1      33.316  -8.754  35.160  1.00  0.00    -0.398 N 
HETATM   21  H13 UNK     1      32.963  -9.683  34.975  1.00  0.00     0.158 HD
BRANCH  20  22
HETATM   22  C11 UNK     1      34.146  -8.135  34.150  1.00  0.00     0.123 C 
BRANCH  22  23
HETATM   23  C9  UNK     1      33.434  -6.944  33.508  1.00  0.00     0.060 C 
BRANCH  23  24
HETATM   24  C12 UNK     1      32.474  -7.339  32.421  1.00  0.00    -0.029 A 
HETATM   25  C15 UNK     1      31.312  -6.634  32.055  1.00  0.00    -0.002 A 
HETATM   26  C17 UNK     1      30.731  -7.355  31.010  1.00  0.00     0.042 A 
HETATM   27  C20 UNK     1      30.681  -5.453  32.497  1.00  0.00     0.014 A 
HETATM   28  N2  UNK     1      31.534  -8.449  30.777  1.00  0.00    -0.365 N 
HETATM   29  C21 UNK     1      29.546  -6.953  30.382  1.00  0.00     0.030 A 
HETATM   30  C18 UNK     1      32.599  -8.443  31.636  1.00  0.00     0.096 A 
HETATM   31  H16 UNK     1      31.360  -9.152  30.073  1.00  0.00     0.165 HD
HETATM   32  C25 UNK     1      28.939  -5.780  30.838  1.00  0.00     0.002 A 
HETATM   33  C24 UNK     1      29.496  -5.039  31.879  1.00  0.00     0.001 A 
ENDBRANCH  23  24
ENDBRANCH  22  23
ENDBRANCH  20  22
ENDBRANCH  13  20
TORSDOF 4
ENDMDL
MODEL 10
REMARK VINA RESULT:      -7.8      3.390      6.772
REMARK  4 active torsions:
REMARK  status: ('A' for Active; 'I' for Inactive)
REMARK    1  A    between atoms: C10_16  and  N1_5 
REMARK    2  A    between atoms: C11_17  and  N1_5 
REMARK    3  A    between atoms: C11_17  and  C9_15 
REMARK    4  A    between atoms: C12_18  and  C9_15 
ROOT
HETATM    1  O1  UNK     1      33.935  -6.317  33.234  1.00  0.00    -0.332 OA
HETATM    2  O2  UNK     1      31.152 -10.154  32.127  1.00  0.00    -0.274 OA
HETATM    3  O3  UNK     1      35.847  -8.351  30.945  1.00  0.00    -0.289 OA
HETATM    4  O4  UNK     1      29.836 -11.981  31.704  1.00  0.00    -0.260 OA
HETATM    5  C1  UNK     1      35.121  -6.995  32.815  1.00  0.00     0.125 C 
HETATM    6  C2  UNK     1      32.555  -8.211  32.559  1.00  0.00     0.048 A 
HETATM    7  C3  UNK     1      33.529  -8.506  31.496  1.00  0.00     0.044 C 
HETATM    8  C4  UNK     1      34.919  -7.985  31.663  1.00  0.00     0.196 C 
HETATM    9  C5  UNK     1      32.814  -7.096  33.368  1.00  0.00     0.084 A 
HETATM   10  C6  UNK     1      36.075  -5.890  32.347  1.00  0.00     0.055 C 
HETATM   11  C7  UNK     1      35.744  -7.728  34.010  1.00  0.00     0.055 C 
HETATM   12  C8  UNK     1      31.399  -8.959  32.845  1.00  0.00     0.103 A 
HETATM   13  C10 UNK     1      33.246  -9.104  30.328  1.00  0.00     0.099 C 
HETATM   14  C13 UNK     1      30.497  -8.578  33.844  1.00  0.00    -0.001 A 
HETATM   15  C14 UNK     1      31.907  -6.688  34.353  1.00  0.00     0.039 A 
HETATM   16  C16 UNK     1      30.750  -7.427  34.589  1.00  0.00     0.017 A 
HETATM   17  C19 UNK     1      29.314  -9.390  34.086  1.00  0.00     0.020 A 
HETATM   18  C22 UNK     1      29.098 -10.502  33.382  1.00  0.00     0.083 A 
HETATM   19  C23 UNK     1      30.035 -10.953  32.342  1.00  0.00     0.288 A 
ENDROOT
BRANCH  13  20
HETATM   20  N1  UNK     1      32.043  -9.546  29.897  1.00  0.00    -0.398 N 
HETATM   21  H13 UNK     1      31.379  -9.870  30.588  1.00  0.00     0.158 HD
BRANCH  20  22
HETATM   22  C11 UNK     1      31.590  -9.439  28.527  1.00  0.00     0.123 C 
BRANCH  22  23
HETATM   23  C9  UNK     1      30.638  -8.255  28.355  1.00  0.00     0.060 C 
BRANCH  23  24
HETATM   24  C12 UNK     1      29.508  -8.249  29.345  1.00  0.00    -0.029 A 
HETATM   25  C15 UNK     1      29.289  -7.275  30.337  1.00  0.00    -0.002 A 
HETATM   26  C17 UNK     1      28.136  -7.666  31.020  1.00  0.00     0.042 A 
HETATM   27  C20 UNK     1      29.946  -6.094  30.736  1.00  0.00     0.014 A 
HETATM   28  N2  UNK     1      27.698  -8.835  30.440  1.00  0.00    -0.365 N 
HETATM   29  C21 UNK     1      27.604  -6.932  32.087  1.00  0.00     0.030 A 
HETATM   30  C18 UNK     1      28.533  -9.195  29.416  1.00  0.00     0.096 A 
HETATM   31  H16 UNK     1      26.879  -9.352  30.729  1.00  0.00     0.165 HD
HETATM   32  C25 UNK     1      28.273  -5.765  32.465  1.00  0.00     0.002 A 
HETATM   33  C24 UNK     1      29.426  -5.350  31.801  1.00  0.00     0.001 A 
ENDBRANCH  23  24
ENDBRANCH  22  23
ENDBRANCH  20  22
ENDBRANCH  13  20
TORSDOF 4
ENDMDL
