MODEL 1
REMARK VINA RESULT:      -8.9      0.000      0.000
REMARK  6 active torsions:
REMARK  status: ('A' for Active; 'I' for Inactive)
REMARK    1  A    between atoms: C16_22  and  O4_4 
REMARK    2  A    between atoms: C21_27  and  O4_4 
REMARK    3  A    between atoms: C5_11  and  N1_5 
REMARK       I    between atoms: C6_12  and  N2_6 
REMARK    4  A    between atoms: C5_11  and  C8_14 
REMARK    5  A    between atoms: C6_12  and  C7_13 
REMARK    6  A    between atoms: C12_18  and  C14_20 
ROOT
HETATM    1  O1  UNK     1      15.461   5.358   8.607  1.00  0.00    -0.267 OA
HETATM    2  N1  UNK     1      16.174   9.937  10.492  1.00  0.00     0.095 N 
HETATM    3  N2  UNK     1      15.122   7.383   9.702  1.00  0.00    -0.344 N 
HETATM    4  C1  UNK     1      17.012   8.984   9.752  1.00  0.00     0.292 C 
HETATM    5  C2  UNK     1      14.772   9.812  10.071  1.00  0.00     0.292 C 
HETATM    6  C3  UNK     1      16.544   7.553  10.004  1.00  0.00     0.156 C 
HETATM    7  C4  UNK     1      14.245   8.394  10.306  1.00  0.00     0.156 C 
HETATM    8  C6  UNK     1      14.709   6.251   9.002  1.00  0.00     0.260 C 
ENDROOT
BRANCH   8   9
HETATM    9  C7  UNK     1      13.267   6.106   8.721  1.00  0.00     0.108 A 
HETATM   10  C10 UNK     1      12.320   5.569   9.724  1.00  0.00     0.304 A 
HETATM   11  O2  UNK     1      10.985   5.482   9.340  1.00  0.00    -0.271 OA
HETATM   12  O3  UNK     1      12.688   5.219  10.840  1.00  0.00    -0.259 OA
HETATM   13  C13 UNK     1      10.552   5.881   8.061  1.00  0.00     0.123 A 
HETATM   14  C11 UNK     1      11.458   6.382   7.132  1.00  0.00     0.002 A 
HETATM   15  C16 UNK     1       9.195   5.755   7.768  1.00  0.00     0.103 A 
HETATM   16  C9  UNK     1      12.861   6.487   7.504  1.00  0.00     0.037 A 
HETATM   17  C15 UNK     1      10.990   6.767   5.874  1.00  0.00     0.014 A 
HETATM   18  C18 UNK     1       9.632   6.646   5.566  1.00  0.00     0.004 A 
HETATM   19  C17 UNK     1       8.737   6.141   6.511  1.00  0.00     0.040 A 
BRANCH  15  20
HETATM   20  O4  UNK     1       8.320   5.263   8.686  1.00  0.00    -0.349 OA
BRANCH  20  21
HETATM   21  C21 UNK     1       7.560   6.213   9.433  1.00  0.00     0.171 C 
HETATM   22  C25 UNK     1       6.972   5.529  10.648  1.00  0.00     0.034 C 
ENDBRANCH  20  21
ENDBRANCH  15  20
ENDBRANCH   8   9
BRANCH   2  23
HETATM   23  C5  UNK     1      16.651  11.304  10.292  1.00  0.00     0.300 C 
BRANCH  23  24
HETATM   24  C8  UNK     1      18.132  11.342  10.055  1.00  0.00     0.004 C 
HETATM   25  C12 UNK     1      18.974  12.094  10.781  1.00  0.00     0.009 C 
BRANCH  25  26
HETATM   26  C14 UNK     1      20.434  12.151  10.598  1.00  0.00    -0.036 A 
HETATM   27  C19 UNK     1      20.956  12.215   9.316  1.00  0.00     0.011 A 
HETATM   28  C22 UNK     1      22.339  12.270   9.143  1.00  0.00     0.001 A 
HETATM   29  C24 UNK     1      23.182  12.262  10.254  1.00  0.00     0.000 A 
HETATM   30  C23 UNK     1      22.642  12.197  11.538  1.00  0.00     0.001 A 
HETATM   31  C20 UNK     1      21.259  12.142  11.712  1.00  0.00     0.011 A 
ENDBRANCH  25  26
ENDBRANCH  23  24
ENDBRANCH   2  23
TORSDOF 6
ENDMDL
MODEL 2
REMARK VINA RESULT:      -8.8     27.031     29.043
REMARK  6 active torsions:
REMARK  status: ('A' for Active; 'I' for Inactive)
REMARK    1  A    between atoms: C16_22  and  O4_4 
REMARK    2  A    between atoms: C21_27  and  O4_4 
REMARK    3  A    between atoms: C5_11  and  N1_5 
REMARK       I    between atoms: C6_12  and  N2_6 
REMARK    4  A    between atoms: C5_11  and  C8_14 
REMARK    5  A    between atoms: C6_12  and  C7_13 
REMARK    6  A    between atoms: C12_18  and  C14_20 
ROOT
HETATM    1  O1  UNK     1      16.216  -0.945  35.313  1.00  0.00    -0.267 OA
HETATM    2  N1  UNK     1      20.434  -2.999  37.049  1.00  0.00     0.095 N 
HETATM    3  N2  UNK     1      18.441  -1.271  35.913  1.00  0.00    -0.344 N 
HETATM    4  C1  UNK     1      19.031  -3.428  36.978  1.00  0.00     0.292 C 
HETATM    5  C2  UNK     1      20.762  -2.148  35.898  1.00  0.00     0.292 C 
HETATM    6  C3  UNK     1      18.102  -2.217  36.977  1.00  0.00     0.156 C 
HETATM    7  C4  UNK     1      19.863  -0.910  35.847  1.00  0.00     0.156 C 
HETATM    8  C6  UNK     1      17.415  -0.708  35.156  1.00  0.00     0.260 C 
ENDROOT
BRANCH   8   9
HETATM    9  C7  UNK     1      17.790   0.249  34.096  1.00  0.00     0.108 A 
HETATM   10  C10 UNK     1      18.204  -0.197  32.746  1.00  0.00     0.304 A 
HETATM   11  O2  UNK     1      18.532   0.801  31.832  1.00  0.00    -0.271 OA
HETATM   12  O3  UNK     1      18.255  -1.383  32.442  1.00  0.00    -0.259 OA
HETATM   13  C13 UNK     1      18.477   2.166  32.170  1.00  0.00     0.123 A 
HETATM   14  C11 UNK     1      18.086   2.564  33.445  1.00  0.00     0.002 A 
HETATM   15  C16 UNK     1      18.825   3.092  31.188  1.00  0.00     0.103 A 
HETATM   16  C9  UNK     1      17.735   1.545  34.423  1.00  0.00     0.037 A 
HETATM   17  C15 UNK     1      18.044   3.927  33.743  1.00  0.00     0.014 A 
HETATM   18  C18 UNK     1      18.392   4.867  32.768  1.00  0.00     0.004 A 
HETATM   19  C17 UNK     1      18.781   4.450  31.493  1.00  0.00     0.040 A 
BRANCH  15  20
HETATM   20  O4  UNK     1      19.206   2.689  29.946  1.00  0.00    -0.349 OA
BRANCH  20  21
HETATM   21  C21 UNK     1      18.206   2.692  28.927  1.00  0.00     0.171 C 
HETATM   22  C25 UNK     1      17.932   1.266  28.502  1.00  0.00     0.034 C 
ENDBRANCH  20  21
ENDBRANCH  15  20
ENDBRANCH   8   9
BRANCH   2  23
HETATM   23  C5  UNK     1      21.324  -4.159  37.101  1.00  0.00     0.300 C 
BRANCH  23  24
HETATM   24  C8  UNK     1      20.575  -5.413  37.444  1.00  0.00     0.004 C 
HETATM   25  C12 UNK     1      21.151  -6.625  37.487  1.00  0.00     0.009 C 
BRANCH  25  26
HETATM   26  C14 UNK     1      20.463  -7.880  37.834  1.00  0.00    -0.036 A 
HETATM   27  C19 UNK     1      20.639  -8.425  39.096  1.00  0.00     0.011 A 
HETATM   28  C22 UNK     1      19.987  -9.613  39.425  1.00  0.00     0.001 A 
HETATM   29  C24 UNK     1      19.166 -10.240  38.487  1.00  0.00     0.000 A 
HETATM   30  C23 UNK     1      18.998  -9.680  37.222  1.00  0.00     0.001 A 
HETATM   31  C20 UNK     1      19.650  -8.492  36.893  1.00  0.00     0.011 A 
ENDBRANCH  25  26
ENDBRANCH  23  24
ENDBRANCH   2  23
TORSDOF 6
ENDMDL
MODEL 3
REMARK VINA RESULT:      -8.7     33.977     37.054
REMARK  6 active torsions:
REMARK  status: ('A' for Active; 'I' for Inactive)
REMARK    1  A    between atoms: C16_22  and  O4_4 
REMARK    2  A    between atoms: C21_27  and  O4_4 
REMARK    3  A    between atoms: C5_11  and  N1_5 
REMARK       I    between atoms: C6_12  and  N2_6 
REMARK    4  A    between atoms: C5_11  and  C8_14 
REMARK    5  A    between atoms: C6_12  and  C7_13 
REMARK    6  A    between atoms: C12_18  and  C14_20 
ROOT
HETATM    1  O1  UNK     1      30.814 -10.729  39.130  1.00  0.00    -0.267 OA
HETATM    2  N1  UNK     1      26.593  -8.146  38.399  1.00  0.00     0.095 N 
HETATM    3  N2  UNK     1      29.159  -9.414  38.158  1.00  0.00    -0.344 N 
HETATM    4  C1  UNK     1      27.125  -8.963  39.498  1.00  0.00     0.292 C 
HETATM    5  C2  UNK     1      27.688  -7.469  37.695  1.00  0.00     0.292 C 
HETATM    6  C3  UNK     1      28.093 -10.014  38.961  1.00  0.00     0.156 C 
HETATM    7  C4  UNK     1      28.692  -8.477  37.128  1.00  0.00     0.156 C 
HETATM    8  C6  UNK     1      30.469  -9.854  38.334  1.00  0.00     0.260 C 
ENDROOT
BRANCH   8   9
HETATM    9  C7  UNK     1      31.520  -9.233  37.502  1.00  0.00     0.108 A 
HETATM   10  C10 UNK     1      31.879  -9.762  36.167  1.00  0.00     0.304 A 
HETATM   11  O2  UNK     1      32.885  -9.090  35.479  1.00  0.00    -0.271 OA
HETATM   12  O3  UNK     1      31.322 -10.743  35.687  1.00  0.00    -0.259 OA
HETATM   13  C13 UNK     1      33.532  -7.964  36.022  1.00  0.00     0.123 A 
HETATM   14  C11 UNK     1      33.180  -7.483  37.279  1.00  0.00     0.002 A 
HETATM   15  C16 UNK     1      34.528  -7.358  35.258  1.00  0.00     0.103 A 
HETATM   16  C9  UNK     1      32.131  -8.163  38.023  1.00  0.00     0.037 A 
HETATM   17  C15 UNK     1      33.845  -6.363  37.783  1.00  0.00     0.014 A 
HETATM   18  C18 UNK     1      34.846  -5.746  37.029  1.00  0.00     0.004 A 
HETATM   19  C17 UNK     1      35.187  -6.242  35.769  1.00  0.00     0.040 A 
BRANCH  15  20
HETATM   20  O4  UNK     1      34.863  -7.838  34.030  1.00  0.00    -0.349 OA
BRANCH  20  21
HETATM   21  C21 UNK     1      36.120  -7.428  33.492  1.00  0.00     0.171 C 
HETATM   22  C25 UNK     1      35.883  -6.690  32.192  1.00  0.00     0.034 C 
ENDBRANCH  20  21
ENDBRANCH  15  20
ENDBRANCH   8   9
BRANCH   2  23
HETATM   23  C5  UNK     1      25.627  -7.171  38.905  1.00  0.00     0.300 C 
BRANCH  23  24
HETATM   24  C8  UNK     1      24.215  -7.630  38.687  1.00  0.00     0.004 C 
HETATM   25  C12 UNK     1      23.164  -7.115  39.344  1.00  0.00     0.009 C 
BRANCH  25  26
HETATM   26  C14 UNK     1      21.761  -7.520  39.153  1.00  0.00    -0.036 A 
HETATM   27  C19 UNK     1      20.843  -6.592  38.690  1.00  0.00     0.011 A 
HETATM   28  C22 UNK     1      19.515  -6.976  38.508  1.00  0.00     0.001 A 
HETATM   29  C24 UNK     1      19.122  -8.284  38.792  1.00  0.00     0.000 A 
HETATM   30  C23 UNK     1      20.057  -9.207  39.258  1.00  0.00     0.001 A 
HETATM   31  C20 UNK     1      21.385  -8.823  39.440  1.00  0.00     0.011 A 
ENDBRANCH  25  26
ENDBRANCH  23  24
ENDBRANCH   2  23
TORSDOF 6
ENDMDL
MODEL 4
REMARK VINA RESULT:      -8.7     22.605     24.731
REMARK  6 active torsions:
REMARK  status: ('A' for Active; 'I' for Inactive)
REMARK    1  A    between atoms: C16_22  and  O4_4 
REMARK    2  A    between atoms: C21_27  and  O4_4 
REMARK    3  A    between atoms: C5_11  and  N1_5 
REMARK       I    between atoms: C6_12  and  N2_6 
REMARK    4  A    between atoms: C5_11  and  C8_14 
REMARK    5  A    between atoms: C6_12  and  C7_13 
REMARK    6  A    between atoms: C12_18  and  C14_20 
ROOT
HETATM    1  O1  UNK     1      16.391   6.736  35.404  1.00  0.00    -0.267 OA
HETATM    2  N1  UNK     1      18.677   5.169  31.240  1.00  0.00     0.095 N 
HETATM    3  N2  UNK     1      17.480   6.710  33.348  1.00  0.00    -0.344 N 
HETATM    4  C1  UNK     1      18.128   4.503  32.429  1.00  0.00     0.292 C 
HETATM    5  C2  UNK     1      17.893   6.370  30.925  1.00  0.00     0.292 C 
HETATM    6  C3  UNK     1      18.158   5.444  33.630  1.00  0.00     0.156 C 
HETATM    7  C4  UNK     1      17.892   7.357  32.096  1.00  0.00     0.156 C 
HETATM    8  C6  UNK     1      16.627   7.249  34.309  1.00  0.00     0.260 C 
ENDROOT
BRANCH   8   9
HETATM    9  C7  UNK     1      15.965   8.531  33.997  1.00  0.00     0.108 A 
HETATM   10  C10 UNK     1      14.659   8.593  33.303  1.00  0.00     0.304 A 
HETATM   11  O2  UNK     1      14.136   9.861  33.066  1.00  0.00    -0.271 OA
HETATM   12  O3  UNK     1      14.062   7.580  32.952  1.00  0.00    -0.259 OA
HETATM   13  C13 UNK     1      14.813  11.030  33.463  1.00  0.00     0.123 A 
HETATM   14  C11 UNK     1      16.040  10.950  34.114  1.00  0.00     0.002 A 
HETATM   15  C16 UNK     1      14.210  12.255  33.182  1.00  0.00     0.103 A 
HETATM   16  C9  UNK     1      16.612   9.639  34.377  1.00  0.00     0.037 A 
HETATM   17  C15 UNK     1      16.680  12.132  34.492  1.00  0.00     0.014 A 
HETATM   18  C18 UNK     1      16.089  13.368  34.215  1.00  0.00     0.004 A 
HETATM   19  C17 UNK     1      14.856  13.428  33.562  1.00  0.00     0.040 A 
BRANCH  15  20
HETATM   20  O4  UNK     1      13.010  12.318  32.545  1.00  0.00    -0.349 OA
BRANCH  20  21
HETATM   21  C21 UNK     1      12.180  13.443  32.833  1.00  0.00     0.171 C 
HETATM   22  C25 UNK     1      10.827  12.951  33.298  1.00  0.00     0.034 C 
ENDBRANCH  20  21
ENDBRANCH  15  20
ENDBRANCH   8   9
BRANCH   2  23
HETATM   23  C5  UNK     1      18.696   4.253  30.100  1.00  0.00     0.300 C 
BRANCH  23  24
HETATM   24  C8  UNK     1      19.026   2.852  30.523  1.00  0.00     0.004 C 
HETATM   25  C12 UNK     1      19.218   1.847  29.655  1.00  0.00     0.009 C 
BRANCH  25  26
HETATM   26  C14 UNK     1      19.560   0.462  30.021  1.00  0.00    -0.036 A 
HETATM   27  C19 UNK     1      20.094  -0.382  29.061  1.00  0.00     0.011 A 
HETATM   28  C22 UNK     1      20.418  -1.694  29.408  1.00  0.00     0.001 A 
HETATM   29  C24 UNK     1      20.205  -2.143  30.712  1.00  0.00     0.000 A 
HETATM   30  C23 UNK     1      19.666  -1.282  31.667  1.00  0.00     0.001 A 
HETATM   31  C20 UNK     1      19.342   0.029  31.320  1.00  0.00     0.011 A 
ENDBRANCH  25  26
ENDBRANCH  23  24
ENDBRANCH   2  23
TORSDOF 6
ENDMDL
MODEL 5
REMARK VINA RESULT:      -8.6     27.063     29.021
REMARK  6 active torsions:
REMARK  status: ('A' for Active; 'I' for Inactive)
REMARK    1  A    between atoms: C16_22  and  O4_4 
REMARK    2  A    between atoms: C21_27  and  O4_4 
REMARK    3  A    between atoms: C5_11  and  N1_5 
REMARK       I    between atoms: C6_12  and  N2_6 
REMARK    4  A    between atoms: C5_11  and  C8_14 
REMARK    5  A    between atoms: C6_12  and  C7_13 
REMARK    6  A    between atoms: C12_18  and  C14_20 
ROOT
HETATM    1  O1  UNK     1      16.742  -1.408  35.262  1.00  0.00    -0.267 OA
HETATM    2  N1  UNK     1      20.825  -3.239  37.500  1.00  0.00     0.095 N 
HETATM    3  N2  UNK     1      18.946  -1.729  35.937  1.00  0.00    -0.344 N 
HETATM    4  C1  UNK     1      19.393  -3.565  37.539  1.00  0.00     0.292 C 
HETATM    5  C2  UNK     1      21.196  -2.749  36.166  1.00  0.00     0.292 C 
HETATM    6  C3  UNK     1      18.555  -2.331  37.212  1.00  0.00     0.156 C 
HETATM    7  C4  UNK     1      20.389  -1.505  35.785  1.00  0.00     0.156 C 
HETATM    8  C6  UNK     1      17.953  -1.311  35.054  1.00  0.00     0.260 C 
ENDROOT
BRANCH   8   9
HETATM    9  C7  UNK     1      18.380  -0.700  33.779  1.00  0.00     0.108 A 
HETATM   10  C10 UNK     1      18.163   0.735  33.484  1.00  0.00     0.304 A 
HETATM   11  O2  UNK     1      18.612   1.193  32.248  1.00  0.00    -0.271 OA
HETATM   12  O3  UNK     1      17.617   1.486  34.284  1.00  0.00    -0.259 OA
HETATM   13  C13 UNK     1      19.240   0.339  31.322  1.00  0.00     0.123 A 
HETATM   14  C11 UNK     1      19.434  -1.007  31.619  1.00  0.00     0.002 A 
HETATM   15  C16 UNK     1      19.654   0.889  30.110  1.00  0.00     0.103 A 
HETATM   16  C9  UNK     1      18.977  -1.516  32.903  1.00  0.00     0.037 A 
HETATM   17  C15 UNK     1      20.060  -1.822  30.674  1.00  0.00     0.014 A 
HETATM   18  C18 UNK     1      20.480  -1.284  29.454  1.00  0.00     0.004 A 
HETATM   19  C17 UNK     1      20.278   0.069  29.173  1.00  0.00     0.040 A 
BRANCH  15  20
HETATM   20  O4  UNK     1      19.459   2.206  29.833  1.00  0.00    -0.349 OA
BRANCH  20  21
HETATM   21  C21 UNK     1      18.154   2.593  29.402  1.00  0.00     0.171 C 
HETATM   22  C25 UNK     1      17.698   1.654  28.306  1.00  0.00     0.034 C 
ENDBRANCH  20  21
ENDBRANCH  15  20
ENDBRANCH   8   9
BRANCH   2  23
HETATM   23  C5  UNK     1      21.628  -4.406  37.861  1.00  0.00     0.300 C 
BRANCH  23  24
HETATM   24  C8  UNK     1      20.877  -5.684  37.631  1.00  0.00     0.004 C 
HETATM   25  C12 UNK     1      21.390  -6.897  37.891  1.00  0.00     0.009 C 
BRANCH  25  26
HETATM   26  C14 UNK     1      20.687  -8.176  37.698  1.00  0.00    -0.036 A 
HETATM   27  C19 UNK     1      19.571  -8.461  38.468  1.00  0.00     0.011 A 
HETATM   28  C22 UNK     1      18.905  -9.672  38.285  1.00  0.00     0.001 A 
HETATM   29  C24 UNK     1      19.363 -10.584  37.333  1.00  0.00     0.000 A 
HETATM   30  C23 UNK     1      20.488 -10.283  36.566  1.00  0.00     0.001 A 
HETATM   31  C20 UNK     1      21.154  -9.072  36.749  1.00  0.00     0.011 A 
ENDBRANCH  25  26
ENDBRANCH  23  24
ENDBRANCH   2  23
TORSDOF 6
ENDMDL
MODEL 6
REMARK VINA RESULT:      -8.6      3.136     10.500
REMARK  6 active torsions:
REMARK  status: ('A' for Active; 'I' for Inactive)
REMARK    1  A    between atoms: C16_22  and  O4_4 
REMARK    2  A    between atoms: C21_27  and  O4_4 
REMARK    3  A    between atoms: C5_11  and  N1_5 
REMARK       I    between atoms: C6_12  and  N2_6 
REMARK    4  A    between atoms: C5_11  and  C8_14 
REMARK    5  A    between atoms: C6_12  and  C7_13 
REMARK    6  A    between atoms: C12_18  and  C14_20 
ROOT
HETATM    1  O1  UNK     1      15.469  11.423  11.149  1.00  0.00    -0.267 OA
HETATM    2  N1  UNK     1      15.427   6.464  10.492  1.00  0.00     0.095 N 
HETATM    3  N2  UNK     1      16.132   9.242  10.681  1.00  0.00    -0.344 N 
HETATM    4  C1  UNK     1      14.434   7.456  10.926  1.00  0.00     0.292 C 
HETATM    5  C2  UNK     1      16.346   7.062   9.515  1.00  0.00     0.292 C 
HETATM    6  C3  UNK     1      15.124   8.658  11.566  1.00  0.00     0.156 C 
HETATM    7  C4  UNK     1      17.074   8.274  10.105  1.00  0.00     0.156 C 
HETATM    8  C6  UNK     1      16.203  10.628  10.559  1.00  0.00     0.260 C 
ENDROOT
BRANCH   8   9
HETATM    9  C7  UNK     1      17.237  11.187   9.665  1.00  0.00     0.108 A 
HETATM   10  C10 UNK     1      16.962  11.501   8.245  1.00  0.00     0.304 A 
HETATM   11  O2  UNK     1      18.018  12.025   7.504  1.00  0.00    -0.271 OA
HETATM   12  O3  UNK     1      15.860  11.313   7.741  1.00  0.00    -0.259 OA
HETATM   13  C13 UNK     1      19.288  12.244   8.073  1.00  0.00     0.123 A 
HETATM   14  C11 UNK     1      19.526  11.941   9.410  1.00  0.00     0.002 A 
HETATM   15  C16 UNK     1      20.283  12.771   7.252  1.00  0.00     0.103 A 
HETATM   16  C9  UNK     1      18.441  11.394  10.211  1.00  0.00     0.037 A 
HETATM   17  C15 UNK     1      20.798  12.172   9.937  1.00  0.00     0.014 A 
HETATM   18  C18 UNK     1      21.807  12.699   9.125  1.00  0.00     0.004 A 
HETATM   19  C17 UNK     1      21.549  12.998   7.786  1.00  0.00     0.040 A 
BRANCH  15  20
HETATM   20  O4  UNK     1      20.037  13.063   5.946  1.00  0.00    -0.349 OA
BRANCH  20  21
HETATM   21  C21 UNK     1      20.909  13.999   5.314  1.00  0.00     0.171 C 
HETATM   22  C25 UNK     1      20.912  13.741   3.823  1.00  0.00     0.034 C 
ENDBRANCH  20  21
ENDBRANCH  15  20
ENDBRANCH   8   9
BRANCH   2  23
HETATM   23  C5  UNK     1      14.766   5.290   9.923  1.00  0.00     0.300 C 
BRANCH  23  24
HETATM   24  C8  UNK     1      13.394   5.622   9.416  1.00  0.00     0.004 C 
HETATM   25  C12 UNK     1      13.040   5.514   8.126  1.00  0.00     0.009 C 
BRANCH  25  26
HETATM   26  C14 UNK     1      11.703   5.811   7.585  1.00  0.00    -0.036 A 
HETATM   27  C19 UNK     1      11.566   6.108   6.238  1.00  0.00     0.011 A 
HETATM   28  C22 UNK     1      10.300   6.389   5.725  1.00  0.00     0.001 A 
HETATM   29  C24 UNK     1       9.186   6.367   6.566  1.00  0.00     0.000 A 
HETATM   30  C23 UNK     1       9.340   6.067   7.918  1.00  0.00     0.001 A 
HETATM   31  C20 UNK     1      10.606   5.786   8.431  1.00  0.00     0.011 A 
ENDBRANCH  25  26
ENDBRANCH  23  24
ENDBRANCH   2  23
TORSDOF 6
ENDMDL
MODEL 7
REMARK VINA RESULT:      -8.5      3.605      4.805
REMARK  6 active torsions:
REMARK  status: ('A' for Active; 'I' for Inactive)
REMARK    1  A    between atoms: C16_22  and  O4_4 
REMARK    2  A    between atoms: C21_27  and  O4_4 
REMARK    3  A    between atoms: C5_11  and  N1_5 
REMARK       I    between atoms: C6_12  and  N2_6 
REMARK    4  A    between atoms: C5_11  and  C8_14 
REMARK    5  A    between atoms: C6_12  and  C7_13 
REMARK    6  A    between atoms: C12_18  and  C14_20 
ROOT
HETATM    1  O1  UNK     1      15.959   6.973   9.629  1.00  0.00    -0.267 OA
HETATM    2  N1  UNK     1      16.636  11.838   8.682  1.00  0.00     0.095 N 
HETATM    3  N2  UNK     1      15.583   9.254   9.364  1.00  0.00    -0.344 N 
HETATM    4  C1  UNK     1      17.508  10.656   8.684  1.00  0.00     0.292 C 
HETATM    5  C2  UNK     1      15.275  11.462   8.275  1.00  0.00     0.292 C 
HETATM    6  C3  UNK     1      16.976   9.601   9.650  1.00  0.00     0.156 C 
HETATM    7  C4  UNK     1      14.685  10.406   9.214  1.00  0.00     0.156 C 
HETATM    8  C6  UNK     1      15.202   7.914   9.384  1.00  0.00     0.260 C 
ENDROOT
BRANCH   8   9
HETATM    9  C7  UNK     1      13.788   7.598   9.100  1.00  0.00     0.108 A 
HETATM   10  C10 UNK     1      12.733   7.719  10.132  1.00  0.00     0.304 A 
HETATM   11  O2  UNK     1      11.437   7.394   9.742  1.00  0.00    -0.271 OA
HETATM   12  O3  UNK     1      12.982   8.089  11.274  1.00  0.00    -0.259 OA
HETATM   13  C13 UNK     1      11.139   6.968   8.433  1.00  0.00     0.123 A 
HETATM   14  C11 UNK     1      12.146   6.860   7.479  1.00  0.00     0.002 A 
HETATM   15  C16 UNK     1       9.812   6.663   8.137  1.00  0.00     0.103 A 
HETATM   16  C9  UNK     1      13.511   7.194   7.855  1.00  0.00     0.037 A 
HETATM   17  C15 UNK     1      11.811   6.434   6.192  1.00  0.00     0.014 A 
HETATM   18  C18 UNK     1      10.484   6.124   5.880  1.00  0.00     0.004 A 
HETATM   19  C17 UNK     1       9.487   6.239   6.851  1.00  0.00     0.040 A 
BRANCH  15  20
HETATM   20  O4  UNK     1       8.838   6.774   9.080  1.00  0.00    -0.349 OA
BRANCH  20  21
HETATM   21  C21 UNK     1       7.949   5.666   9.229  1.00  0.00     0.171 C 
HETATM   22  C25 UNK     1       8.595   4.635  10.129  1.00  0.00     0.034 C 
ENDBRANCH  20  21
ENDBRANCH  15  20
ENDBRANCH   8   9
BRANCH   2  23
HETATM   23  C5  UNK     1      17.170  12.870   7.795  1.00  0.00     0.300 C 
BRANCH  23  24
HETATM   24  C8  UNK     1      16.122  13.879   7.429  1.00  0.00     0.004 C 
HETATM   25  C12 UNK     1      16.033  15.089   8.003  1.00  0.00     0.009 C 
BRANCH  25  26
HETATM   26  C14 UNK     1      15.034  16.118   7.667  1.00  0.00    -0.036 A 
HETATM   27  C19 UNK     1      15.283  17.440   7.996  1.00  0.00     0.011 A 
HETATM   28  C22 UNK     1      14.338  18.414   7.677  1.00  0.00     0.001 A 
HETATM   29  C24 UNK     1      13.155  18.053   7.032  1.00  0.00     0.000 A 
HETATM   30  C23 UNK     1      12.918  16.718   6.707  1.00  0.00     0.001 A 
HETATM   31  C20 UNK     1      13.863  15.744   7.026  1.00  0.00     0.011 A 
ENDBRANCH  25  26
ENDBRANCH  23  24
ENDBRANCH   2  23
TORSDOF 6
ENDMDL
MODEL 8
REMARK VINA RESULT:      -8.4     27.191     28.857
REMARK  6 active torsions:
REMARK  status: ('A' for Active; 'I' for Inactive)
REMARK    1  A    between atoms: C16_22  and  O4_4 
REMARK    2  A    between atoms: C21_27  and  O4_4 
REMARK    3  A    between atoms: C5_11  and  N1_5 
REMARK       I    between atoms: C6_12  and  N2_6 
REMARK    4  A    between atoms: C5_11  and  C8_14 
REMARK    5  A    between atoms: C6_12  and  C7_13 
REMARK    6  A    between atoms: C12_18  and  C14_20 
ROOT
HETATM    1  O1  UNK     1      18.689  -1.303  38.374  1.00  0.00    -0.267 OA
HETATM    2  N1  UNK     1      17.779   1.219  34.150  1.00  0.00     0.095 N 
HETATM    3  N2  UNK     1      18.105  -0.787  36.181  1.00  0.00    -0.344 N 
HETATM    4  C1  UNK     1      18.198   1.595  35.507  1.00  0.00     0.292 C 
HETATM    5  C2  UNK     1      18.314  -0.105  33.804  1.00  0.00     0.292 C 
HETATM    6  C3  UNK     1      17.693   0.575  36.524  1.00  0.00     0.156 C 
HETATM    7  C4  UNK     1      17.835  -1.174  34.791  1.00  0.00     0.156 C 
HETATM    8  C6  UNK     1      18.582  -1.623  37.188  1.00  0.00     0.260 C 
ENDROOT
BRANCH   8   9
HETATM    9  C7  UNK     1      18.981  -2.993  36.810  1.00  0.00     0.108 A 
HETATM   10  C10 UNK     1      20.363  -3.323  36.394  1.00  0.00     0.304 A 
HETATM   11  O2  UNK     1      20.617  -4.651  36.063  1.00  0.00    -0.271 OA
HETATM   12  O3  UNK     1      21.245  -2.473  36.342  1.00  0.00    -0.259 OA
HETATM   13  C13 UNK     1      19.611  -5.635  36.118  1.00  0.00     0.123 A 
HETATM   14  C11 UNK     1      18.318  -5.305  36.512  1.00  0.00     0.002 A 
HETATM   15  C16 UNK     1      19.960  -6.938  35.767  1.00  0.00     0.103 A 
HETATM   16  C9  UNK     1      18.022  -3.925  36.865  1.00  0.00     0.037 A 
HETATM   17  C15 UNK     1      17.349  -6.308  36.553  1.00  0.00     0.014 A 
HETATM   18  C18 UNK     1      17.684  -7.620  36.203  1.00  0.00     0.004 A 
HETATM   19  C17 UNK     1      18.987  -7.934  35.811  1.00  0.00     0.040 A 
BRANCH  15  20
HETATM   20  O4  UNK     1      21.228  -7.248  35.384  1.00  0.00    -0.349 OA
BRANCH  20  21
HETATM   21  C21 UNK     1      21.692  -8.566  35.676  1.00  0.00     0.171 C 
HETATM   22  C25 UNK     1      22.466  -8.539  36.976  1.00  0.00     0.034 C 
ENDBRANCH  20  21
ENDBRANCH  15  20
ENDBRANCH   8   9
BRANCH   2  23
HETATM   23  C5  UNK     1      18.219   2.220  33.179  1.00  0.00     0.300 C 
BRANCH  23  24
HETATM   24  C8  UNK     1      18.258   3.593  33.784  1.00  0.00     0.004 C 
HETATM   25  C12 UNK     1      18.463   4.708  33.065  1.00  0.00     0.009 C 
BRANCH  25  26
HETATM   26  C14 UNK     1      18.493   6.076  33.609  1.00  0.00    -0.036 A 
HETATM   27  C19 UNK     1      17.355   6.596  34.203  1.00  0.00     0.011 A 
HETATM   28  C22 UNK     1      17.383   7.891  34.719  1.00  0.00     0.001 A 
HETATM   29  C24 UNK     1      18.551   8.650  34.634  1.00  0.00     0.000 A 
HETATM   30  C23 UNK     1      19.689   8.113  34.033  1.00  0.00     0.001 A 
HETATM   31  C20 UNK     1      19.660   6.818  33.517  1.00  0.00     0.011 A 
ENDBRANCH  25  26
ENDBRANCH  23  24
ENDBRANCH   2  23
TORSDOF 6
ENDMDL
MODEL 9
REMARK VINA RESULT:      -8.4      2.337      2.779
REMARK  6 active torsions:
REMARK  status: ('A' for Active; 'I' for Inactive)
REMARK    1  A    between atoms: C16_22  and  O4_4 
REMARK    2  A    between atoms: C21_27  and  O4_4 
REMARK    3  A    between atoms: C5_11  and  N1_5 
REMARK       I    between atoms: C6_12  and  N2_6 
REMARK    4  A    between atoms: C5_11  and  C8_14 
REMARK    5  A    between atoms: C6_12  and  C7_13 
REMARK    6  A    between atoms: C12_18  and  C14_20 
ROOT
HETATM    1  O1  UNK     1      16.087   7.232   9.943  1.00  0.00    -0.267 OA
HETATM    2  N1  UNK     1      16.833  11.811   8.072  1.00  0.00     0.095 N 
HETATM    3  N2  UNK     1      15.738   9.416   9.220  1.00  0.00    -0.344 N 
HETATM    4  C1  UNK     1      17.695  10.651   8.335  1.00  0.00     0.292 C 
HETATM    5  C2  UNK     1      15.483  11.366   7.705  1.00  0.00     0.292 C 
HETATM    6  C3  UNK     1      17.125   9.810   9.474  1.00  0.00     0.156 C 
HETATM    7  C4  UNK     1      14.856  10.518   8.816  1.00  0.00     0.156 C 
HETATM    8  C6  UNK     1      15.346   8.108   9.493  1.00  0.00     0.260 C 
ENDROOT
BRANCH   8   9
HETATM    9  C7  UNK     1      13.938   7.745   9.233  1.00  0.00     0.108 A 
HETATM   10  C10 UNK     1      12.893   7.856  10.275  1.00  0.00     0.304 A 
HETATM   11  O2  UNK     1      11.602   7.485   9.908  1.00  0.00    -0.271 OA
HETATM   12  O3  UNK     1      13.145   8.255  11.406  1.00  0.00    -0.259 OA
HETATM   13  C13 UNK     1      11.302   7.025   8.611  1.00  0.00     0.123 A 
HETATM   14  C11 UNK     1      12.299   6.927   7.647  1.00  0.00     0.002 A 
HETATM   15  C16 UNK     1       9.981   6.675   8.338  1.00  0.00     0.103 A 
HETATM   16  C9  UNK     1      13.658   7.309   7.999  1.00  0.00     0.037 A 
HETATM   17  C15 UNK     1      11.962   6.466   6.373  1.00  0.00     0.014 A 
HETATM   18  C18 UNK     1      10.641   6.111   6.084  1.00  0.00     0.004 A 
HETATM   19  C17 UNK     1       9.653   6.216   7.065  1.00  0.00     0.040 A 
BRANCH  15  20
HETATM   20  O4  UNK     1       9.015   6.776   9.291  1.00  0.00    -0.349 OA
BRANCH  20  21
HETATM   21  C21 UNK     1       8.006   5.766   9.302  1.00  0.00     0.171 C 
HETATM   22  C25 UNK     1       8.450   4.636  10.205  1.00  0.00     0.034 C 
ENDBRANCH  20  21
ENDBRANCH  15  20
ENDBRANCH   8   9
BRANCH   2  23
HETATM   23  C5  UNK     1      17.403  12.646   7.015  1.00  0.00     0.300 C 
BRANCH  23  24
HETATM   24  C8  UNK     1      18.689  13.284   7.450  1.00  0.00     0.004 C 
HETATM   25  C12 UNK     1      19.678  13.600   6.600  1.00  0.00     0.009 C 
BRANCH  25  26
HETATM   26  C14 UNK     1      20.949  14.242   6.976  1.00  0.00    -0.036 A 
HETATM   27  C19 UNK     1      21.586  15.072   6.068  1.00  0.00     0.011 A 
HETATM   28  C22 UNK     1      22.790  15.680   6.425  1.00  0.00     0.001 A 
HETATM   29  C24 UNK     1      23.340  15.450   7.686  1.00  0.00     0.000 A 
HETATM   30  C23 UNK     1      22.688  14.612   8.589  1.00  0.00     0.001 A 
HETATM   31  C20 UNK     1      21.484  14.004   8.232  1.00  0.00     0.011 A 
ENDBRANCH  25  26
ENDBRANCH  23  24
ENDBRANCH   2  23
TORSDOF 6
ENDMDL
MODEL 10
REMARK VINA RESULT:      -8.4      2.422     10.245
REMARK  6 active torsions:
REMARK  status: ('A' for Active; 'I' for Inactive)
REMARK    1  A    between atoms: C16_22  and  O4_4 
REMARK    2  A    between atoms: C21_27  and  O4_4 
REMARK    3  A    between atoms: C5_11  and  N1_5 
REMARK       I    between atoms: C6_12  and  N2_6 
REMARK    4  A    between atoms: C5_11  and  C8_14 
REMARK    5  A    between atoms: C6_12  and  C7_13 
REMARK    6  A    between atoms: C12_18  and  C14_20 
ROOT
HETATM    1  O1  UNK     1      14.876   5.210  10.664  1.00  0.00    -0.267 OA
HETATM    2  N1  UNK     1      11.360   6.000   7.194  1.00  0.00     0.095 N 
HETATM    3  N2  UNK     1      13.747   6.008   8.791  1.00  0.00    -0.344 N 
HETATM    4  C1  UNK     1      11.461   5.146   8.385  1.00  0.00     0.292 C 
HETATM    5  C2  UNK     1      12.108   7.247   7.401  1.00  0.00     0.292 C 
HETATM    6  C3  UNK     1      12.920   4.806   8.676  1.00  0.00     0.156 C 
HETATM    7  C4  UNK     1      13.585   6.968   7.693  1.00  0.00     0.156 C 
HETATM    8  C6  UNK     1      14.682   6.089   9.821  1.00  0.00     0.260 C 
ENDROOT
BRANCH   8   9
HETATM    9  C7  UNK     1      15.507   7.311   9.905  1.00  0.00     0.108 A 
HETATM   10  C10 UNK     1      16.946   7.314   9.559  1.00  0.00     0.304 A 
HETATM   11  O2  UNK     1      17.615   8.528   9.677  1.00  0.00    -0.271 OA
HETATM   12  O3  UNK     1      17.524   6.299   9.185  1.00  0.00    -0.259 OA
HETATM   13  C13 UNK     1      16.961   9.699  10.106  1.00  0.00     0.123 A 
HETATM   14  C11 UNK     1      15.607   9.675  10.427  1.00  0.00     0.002 A 
HETATM   15  C16 UNK     1      17.714  10.868  10.194  1.00  0.00     0.103 A 
HETATM   16  C9  UNK     1      14.879   8.421  10.313  1.00  0.00     0.037 A 
HETATM   17  C15 UNK     1      14.993  10.856  10.849  1.00  0.00     0.014 A 
HETATM   18  C18 UNK     1      15.737  12.036  10.943  1.00  0.00     0.004 A 
HETATM   19  C17 UNK     1      17.095  12.041  10.616  1.00  0.00     0.040 A 
BRANCH  15  20
HETATM   20  O4  UNK     1      19.037  10.877   9.877  1.00  0.00    -0.349 OA
BRANCH  20  21
HETATM   21  C21 UNK     1      19.478  11.875   8.956  1.00  0.00     0.171 C 
HETATM   22  C25 UNK     1      19.170  11.416   7.547  1.00  0.00     0.034 C 
ENDBRANCH  20  21
ENDBRANCH  15  20
ENDBRANCH   8   9
BRANCH   2  23
HETATM   23  C5  UNK     1       9.959   6.287   6.884  1.00  0.00     0.300 C 
BRANCH  23  24
HETATM   24  C8  UNK     1       9.076   6.073   8.078  1.00  0.00     0.004 C 
HETATM   25  C12 UNK     1       8.207   6.994   8.524  1.00  0.00     0.009 C 
BRANCH  25  26
HETATM   26  C14 UNK     1       7.309   6.825   9.679  1.00  0.00    -0.036 A 
HETATM   27  C19 UNK     1       7.472   5.730  10.512  1.00  0.00     0.011 A 
HETATM   28  C22 UNK     1       6.622   5.570  11.606  1.00  0.00     0.001 A 
HETATM   29  C24 UNK     1       5.619   6.509  11.853  1.00  0.00     0.000 A 
HETATM   30  C23 UNK     1       5.467   7.605  11.006  1.00  0.00     0.001 A 
HETATM   31  C20 UNK     1       6.318   7.765   9.912  1.00  0.00     0.011 A 
ENDBRANCH  25  26
ENDBRANCH  23  24
ENDBRANCH   2  23
TORSDOF 6
ENDMDL
