MODEL 1
REMARK VINA RESULT:      -7.4      0.000      0.000
REMARK  2 active torsions:
REMARK  status: ('A' for Active; 'I' for Inactive)
REMARK    1  A    between atoms: C7_11  and  O2_2 
REMARK    2  A    between atoms: C11_15  and  C4_8 
ROOT
HETATM    1  O1  UNK     1      17.060   8.979  34.630  1.00  0.00    -0.274 OA
HETATM    2  O4  UNK     1      15.282  10.077  35.557  1.00  0.00    -0.260 OA
HETATM    3  C1  UNK     1      16.673   7.420  32.790  1.00  0.00     0.006 A 
HETATM    4  C2  UNK     1      17.541   8.062  33.675  1.00  0.00     0.099 A 
HETATM    5  C3  UNK     1      18.919   7.835  33.665  1.00  0.00     0.007 A 
HETATM    6  C4  UNK     1      18.610   6.284  31.847  1.00  0.00     0.044 A 
HETATM    7  C5  UNK     1      15.237   7.719  32.870  1.00  0.00    -0.043 A 
HETATM    8  C6  UNK     1      17.232   6.522  31.869  1.00  0.00     0.032 A 
HETATM    9  C7  UNK     1      19.453   6.939  32.744  1.00  0.00     0.088 A 
HETATM   10  C8  UNK     1      19.813   8.542  34.631  1.00  0.00     0.054 C 
HETATM   11  C9  UNK     1      14.808   8.595  33.789  1.00  0.00     0.090 A 
HETATM   12  C10 UNK     1      14.279   7.046  31.933  1.00  0.00     0.049 C 
HETATM   13  C12 UNK     1      15.710   9.281  34.730  1.00  0.00     0.288 A 
ENDROOT
BRANCH   6  14
HETATM   14  C11 UNK     1      19.146   5.342  30.873  1.00  0.00     0.158 C 
HETATM   15  O3  UNK     1      19.982   5.698  30.020  1.00  0.00    -0.293 OA
HETATM   16  C13 UNK     1      18.690   3.889  30.881  1.00  0.00     0.097 C 
ENDBRANCH   6  14
BRANCH   9  17
HETATM   17  O2  UNK     1      20.796   6.705  32.719  1.00  0.00    -0.359 OA
HETATM   18  H12 UNK     1      21.297   7.534  32.704  1.00  0.00     0.217 HD
ENDBRANCH   9  17
TORSDOF 2
ENDMDL
MODEL 2
REMARK VINA RESULT:      -7.3      3.236      5.369
REMARK  2 active torsions:
REMARK  status: ('A' for Active; 'I' for Inactive)
REMARK    1  A    between atoms: C7_11  and  O2_2 
REMARK    2  A    between atoms: C11_15  and  C4_8 
ROOT
HETATM    1  O1  UNK     1      17.955   4.111  33.466  1.00  0.00    -0.274 OA
HETATM    2  O4  UNK     1      17.642   6.212  34.312  1.00  0.00    -0.260 OA
HETATM    3  C1  UNK     1      18.663   3.851  31.143  1.00  0.00     0.006 A 
HETATM    4  C2  UNK     1      18.307   3.294  32.373  1.00  0.00     0.099 A 
HETATM    5  C3  UNK     1      18.280   1.915  32.588  1.00  0.00     0.007 A 
HETATM    6  C4  UNK     1      18.979   1.586  30.306  1.00  0.00     0.044 A 
HETATM    7  C5  UNK     1      18.666   5.313  31.006  1.00  0.00    -0.043 A 
HETATM    8  C6  UNK     1      19.002   2.970  30.105  1.00  0.00     0.032 A 
HETATM    9  C7  UNK     1      18.618   1.059  31.545  1.00  0.00     0.088 A 
HETATM   10  C8  UNK     1      17.892   1.361  33.920  1.00  0.00     0.054 C 
HETATM   11  C9  UNK     1      18.325   6.064  32.063  1.00  0.00     0.090 A 
HETATM   12  C10 UNK     1      19.044   5.942  29.697  1.00  0.00     0.049 C 
HETATM   13  C12 UNK     1      17.947   5.493  33.366  1.00  0.00     0.288 A 
ENDROOT
BRANCH   6  14
HETATM   14  C11 UNK     1      19.338   0.709  29.199  1.00  0.00     0.158 C 
HETATM   15  O3  UNK     1      18.660   0.672  28.155  1.00  0.00    -0.293 OA
HETATM   16  C13 UNK     1      20.565  -0.189  29.300  1.00  0.00     0.097 C 
ENDBRANCH   6  14
BRANCH   9  17
HETATM   17  O2  UNK     1      18.598  -0.291  31.736  1.00  0.00    -0.359 OA
HETATM   18  H12 UNK     1      17.717  -0.657  31.569  1.00  0.00     0.217 HD
ENDBRANCH   9  17
TORSDOF 2
ENDMDL
MODEL 3
REMARK VINA RESULT:      -7.1      5.970      8.709
REMARK  2 active torsions:
REMARK  status: ('A' for Active; 'I' for Inactive)
REMARK    1  A    between atoms: C7_11  and  O2_2 
REMARK    2  A    between atoms: C11_15  and  C4_8 
ROOT
HETATM    1  O1  UNK     1      19.501  -1.210  33.907  1.00  0.00    -0.274 OA
HETATM    2  O4  UNK     1      20.372  -3.199  34.624  1.00  0.00    -0.260 OA
HETATM    3  C1  UNK     1      19.697  -0.601  31.550  1.00  0.00     0.006 A 
HETATM    4  C2  UNK     1      19.267  -0.312  32.846  1.00  0.00     0.099 A 
HETATM    5  C3  UNK     1      18.590   0.866  33.162  1.00  0.00     0.007 A 
HETATM    6  C4  UNK     1      18.747   1.529  30.852  1.00  0.00     0.044 A 
HETATM    7  C5  UNK     1      20.402  -1.866  31.306  1.00  0.00    -0.043 A 
HETATM    8  C6  UNK     1      19.424   0.344  30.550  1.00  0.00     0.032 A 
HETATM    9  C7  UNK     1      18.330   1.791  32.156  1.00  0.00     0.088 A 
HETATM   10  C8  UNK     1      18.147   1.137  34.564  1.00  0.00     0.054 C 
HETATM   11  C9  UNK     1      20.611  -2.700  32.335  1.00  0.00     0.090 A 
HETATM   12  C10 UNK     1      20.876  -2.206  29.924  1.00  0.00     0.049 C 
HETATM   13  C12 UNK     1      20.164  -2.411  33.708  1.00  0.00     0.288 A 
ENDROOT
BRANCH   6  14
HETATM   14  C11 UNK     1      18.485   2.483  29.781  1.00  0.00     0.158 C 
HETATM   15  O3  UNK     1      18.803   3.682  29.889  1.00  0.00    -0.293 OA
HETATM   16  C13 UNK     1      17.811   2.023  28.494  1.00  0.00     0.097 C 
ENDBRANCH   6  14
BRANCH   9  17
HETATM   17  O2  UNK     1      17.669   2.948  32.446  1.00  0.00    -0.359 OA
HETATM   18  H12 UNK     1      17.472   3.014  33.392  1.00  0.00     0.217 HD
ENDBRANCH   9  17
TORSDOF 2
ENDMDL
MODEL 4
REMARK VINA RESULT:      -7.0      6.348      8.900
REMARK  2 active torsions:
REMARK  status: ('A' for Active; 'I' for Inactive)
REMARK    1  A    between atoms: C7_11  and  O2_2 
REMARK    2  A    between atoms: C11_15  and  C4_8 
ROOT
HETATM    1  O1  UNK     1      20.137  -2.214  32.647  1.00  0.00    -0.274 OA
HETATM    2  O4  UNK     1      20.204  -3.236  34.691  1.00  0.00    -0.260 OA
HETATM    3  C1  UNK     1      19.029  -0.048  32.429  1.00  0.00     0.006 A 
HETATM    4  C2  UNK     1      19.733  -1.114  31.865  1.00  0.00     0.099 A 
HETATM    5  C3  UNK     1      20.071  -1.150  30.511  1.00  0.00     0.007 A 
HETATM    6  C4  UNK     1      18.995   0.986  30.225  1.00  0.00     0.044 A 
HETATM    7  C5  UNK     1      18.716  -0.092  33.864  1.00  0.00    -0.043 A 
HETATM    8  C6  UNK     1      18.663   1.009  31.584  1.00  0.00     0.032 A 
HETATM    9  C7  UNK     1      19.698  -0.092  29.689  1.00  0.00     0.088 A 
HETATM   10  C8  UNK     1      20.824  -2.311  29.947  1.00  0.00     0.054 C 
HETATM   11  C9  UNK     1      19.113  -1.152  34.582  1.00  0.00     0.090 A 
HETATM   12  C10 UNK     1      17.962   1.038  34.501  1.00  0.00     0.049 C 
HETATM   13  C12 UNK     1      19.856  -2.283  34.002  1.00  0.00     0.288 A 
ENDROOT
BRANCH   6  14
HETATM   14  C11 UNK     1      18.595   2.107  29.384  1.00  0.00     0.158 C 
HETATM   15  O3  UNK     1      18.129   1.926  28.243  1.00  0.00    -0.293 OA
HETATM   16  C13 UNK     1      18.739   3.536  29.892  1.00  0.00     0.097 C 
ENDBRANCH   6  14
BRANCH   9  17
HETATM   17  O2  UNK     1      20.020  -0.110  28.364  1.00  0.00    -0.359 OA
HETATM   18  H12 UNK     1      19.678   0.674  27.909  1.00  0.00     0.217 HD
ENDBRANCH   9  17
TORSDOF 2
ENDMDL
MODEL 5
REMARK VINA RESULT:      -6.9      1.379      4.915
REMARK  2 active torsions:
REMARK  status: ('A' for Active; 'I' for Inactive)
REMARK    1  A    between atoms: C7_11  and  O2_2 
REMARK    2  A    between atoms: C11_15  and  C4_8 
ROOT
HETATM    1  O1  UNK     1      20.694   6.731  33.201  1.00  0.00    -0.274 OA
HETATM    2  O4  UNK     1      22.629   5.780  32.441  1.00  0.00    -0.260 OA
HETATM    3  C1  UNK     1      18.727   6.757  31.753  1.00  0.00     0.006 A 
HETATM    4  C2  UNK     1      19.346   7.069  32.965  1.00  0.00     0.099 A 
HETATM    5  C3  UNK     1      18.676   7.724  33.998  1.00  0.00     0.007 A 
HETATM    6  C4  UNK     1      16.698   7.784  32.624  1.00  0.00     0.044 A 
HETATM    7  C5  UNK     1      19.508   6.065  30.719  1.00  0.00    -0.043 A 
HETATM    8  C6  UNK     1      17.383   7.127  31.597  1.00  0.00     0.032 A 
HETATM    9  C7  UNK     1      17.344   8.083  33.823  1.00  0.00     0.088 A 
HETATM   10  C8  UNK     1      19.377   8.040  35.280  1.00  0.00     0.054 C 
HETATM   11  C9  UNK     1      20.788   5.757  30.972  1.00  0.00     0.090 A 
HETATM   12  C10 UNK     1      18.871   5.716  29.407  1.00  0.00     0.049 C 
HETATM   13  C12 UNK     1      21.456   6.078  32.245  1.00  0.00     0.288 A 
ENDROOT
BRANCH   6  14
HETATM   14  C11 UNK     1      15.303   8.150  32.417  1.00  0.00     0.158 C 
HETATM   15  O3  UNK     1      14.916   9.327  32.542  1.00  0.00    -0.293 OA
HETATM   16  C13 UNK     1      14.280   7.085  32.040  1.00  0.00     0.097 C 
ENDBRANCH   6  14
BRANCH   9  17
HETATM   17  O2  UNK     1      16.671   8.724  34.822  1.00  0.00    -0.359 OA
HETATM   18  H12 UNK     1      16.208   8.094  35.394  1.00  0.00     0.217 HD
ENDBRANCH   9  17
TORSDOF 2
ENDMDL
MODEL 6
REMARK VINA RESULT:      -6.9      4.876      7.808
REMARK  2 active torsions:
REMARK  status: ('A' for Active; 'I' for Inactive)
REMARK    1  A    between atoms: C7_11  and  O2_2 
REMARK    2  A    between atoms: C11_15  and  C4_8 
ROOT
HETATM    1  O1  UNK     1      18.906   0.624  30.775  1.00  0.00    -0.274 OA
HETATM    2  O4  UNK     1      19.104   1.501  28.673  1.00  0.00    -0.260 OA
HETATM    3  C1  UNK     1      18.320   2.097  32.634  1.00  0.00     0.006 A 
HETATM    4  C2  UNK     1      18.635   0.828  32.143  1.00  0.00     0.099 A 
HETATM    5  C3  UNK     1      18.700  -0.296  32.968  1.00  0.00     0.007 A 
HETATM    6  C4  UNK     1      18.125   1.099  34.846  1.00  0.00     0.044 A 
HETATM    7  C5  UNK     1      18.274   3.224  31.694  1.00  0.00    -0.043 A 
HETATM    8  C6  UNK     1      18.064   2.216  34.007  1.00  0.00     0.032 A 
HETATM    9  C7  UNK     1      18.443  -0.156  34.327  1.00  0.00     0.088 A 
HETATM   10  C8  UNK     1      19.042  -1.636  32.401  1.00  0.00     0.054 C 
HETATM   11  C9  UNK     1      18.537   3.000  30.398  1.00  0.00     0.090 A 
HETATM   12  C10 UNK     1      17.938   4.600  32.190  1.00  0.00     0.049 C 
HETATM   13  C12 UNK     1      18.871   1.669  29.865  1.00  0.00     0.288 A 
ENDROOT
BRANCH   6  14
HETATM   14  C11 UNK     1      17.850   1.270  36.267  1.00  0.00     0.158 C 
HETATM   15  O3  UNK     1      18.708   1.736  37.041  1.00  0.00    -0.293 OA
HETATM   16  C13 UNK     1      16.493   0.878  36.838  1.00  0.00     0.097 C 
ENDBRANCH   6  14
BRANCH   9  17
HETATM   17  O2  UNK     1      18.500  -1.243  35.149  1.00  0.00    -0.359 OA
HETATM   18  H12 UNK     1      17.948  -1.965  34.816  1.00  0.00     0.217 HD
ENDBRANCH   9  17
TORSDOF 2
ENDMDL
MODEL 7
REMARK VINA RESULT:      -6.8     17.728     20.134
REMARK  2 active torsions:
REMARK  status: ('A' for Active; 'I' for Inactive)
REMARK    1  A    between atoms: C7_11  and  O2_2 
REMARK    2  A    between atoms: C11_15  and  C4_8 
ROOT
HETATM    1  O1  UNK     1      31.796  -5.690  38.284  1.00  0.00    -0.274 OA
HETATM    2  O4  UNK     1      34.028  -5.950  37.862  1.00  0.00    -0.260 OA
HETATM    3  C1  UNK     1      30.330  -7.643  38.205  1.00  0.00     0.006 A 
HETATM    4  C2  UNK     1      30.519  -6.274  38.403  1.00  0.00     0.099 A 
HETATM    5  C3  UNK     1      29.466  -5.415  38.725  1.00  0.00     0.007 A 
HETATM    6  C4  UNK     1      27.964  -7.297  38.665  1.00  0.00     0.044 A 
HETATM    7  C5  UNK     1      31.494  -8.473  37.870  1.00  0.00    -0.043 A 
HETATM    8  C6  UNK     1      29.028  -8.145  38.342  1.00  0.00     0.032 A 
HETATM    9  C7  UNK     1      28.182  -5.933  38.855  1.00  0.00     0.088 A 
HETATM   10  C8  UNK     1      29.712  -3.954  38.927  1.00  0.00     0.054 C 
HETATM   11  C9  UNK     1      32.697  -7.891  37.763  1.00  0.00     0.090 A 
HETATM   12  C10 UNK     1      31.325  -9.948  37.652  1.00  0.00     0.049 C 
HETATM   13  C12 UNK     1      32.913  -6.448  37.968  1.00  0.00     0.288 A 
ENDROOT
BRANCH   6  14
HETATM   14  C11 UNK     1      26.628  -7.863  38.797  1.00  0.00     0.158 C 
HETATM   15  O3  UNK     1      25.624  -7.260  38.372  1.00  0.00    -0.293 OA
HETATM   16  C13 UNK     1      26.433  -9.218  39.466  1.00  0.00     0.097 C 
ENDBRANCH   6  14
BRANCH   9  17
HETATM   17  O2  UNK     1      27.142  -5.109  39.170  1.00  0.00    -0.359 OA
HETATM   18  H12 UNK     1      26.294  -5.574  39.107  1.00  0.00     0.217 HD
ENDBRANCH   9  17
TORSDOF 2
ENDMDL
MODEL 8
REMARK VINA RESULT:      -6.8      3.634      6.594
REMARK  2 active torsions:
REMARK  status: ('A' for Active; 'I' for Inactive)
REMARK    1  A    between atoms: C7_11  and  O2_2 
REMARK    2  A    between atoms: C11_15  and  C4_8 
ROOT
HETATM    1  O1  UNK     1      18.453   0.909  31.884  1.00  0.00    -0.274 OA
HETATM    2  O4  UNK     1      18.438  -1.298  32.482  1.00  0.00    -0.260 OA
HETATM    3  C1  UNK     1      18.274   2.619  33.619  1.00  0.00     0.006 A 
HETATM    4  C2  UNK     1      18.396   2.262  32.275  1.00  0.00     0.099 A 
HETATM    5  C3  UNK     1      18.469   3.212  31.255  1.00  0.00     0.007 A 
HETATM    6  C4  UNK     1      18.297   4.949  32.914  1.00  0.00     0.044 A 
HETATM    7  C5  UNK     1      18.205   1.553  34.628  1.00  0.00    -0.043 A 
HETATM    8  C6  UNK     1      18.225   3.986  33.926  1.00  0.00     0.032 A 
HETATM    9  C7  UNK     1      18.418   4.563  31.580  1.00  0.00     0.088 A 
HETATM   10  C8  UNK     1      18.598   2.786  29.828  1.00  0.00     0.054 C 
HETATM   11  C9  UNK     1      18.261   0.275  34.226  1.00  0.00     0.090 A 
HETATM   12  C10 UNK     1      18.075   1.904  36.081  1.00  0.00     0.049 C 
HETATM   13  C12 UNK     1      18.389  -0.118  32.812  1.00  0.00     0.288 A 
ENDROOT
BRANCH   6  14
HETATM   14  C11 UNK     1      18.243   6.359  33.280  1.00  0.00     0.158 C 
HETATM   15  O3  UNK     1      17.317   7.095  32.887  1.00  0.00    -0.293 OA
HETATM   16  C13 UNK     1      19.330   6.965  34.159  1.00  0.00     0.097 C 
ENDBRANCH   6  14
BRANCH   9  17
HETATM   17  O2  UNK     1      18.487   5.505  30.597  1.00  0.00    -0.359 OA
HETATM   18  H12 UNK     1      19.331   5.981  30.626  1.00  0.00     0.217 HD
ENDBRANCH   9  17
TORSDOF 2
ENDMDL
MODEL 9
REMARK VINA RESULT:      -6.8      3.655      6.196
REMARK  2 active torsions:
REMARK  status: ('A' for Active; 'I' for Inactive)
REMARK    1  A    between atoms: C7_11  and  O2_2 
REMARK    2  A    between atoms: C11_15  and  C4_8 
ROOT
HETATM    1  O1  UNK     1      19.003   4.135  30.102  1.00  0.00    -0.274 OA
HETATM    2  O4  UNK     1      19.163   6.283  29.335  1.00  0.00    -0.260 OA
HETATM    3  C1  UNK     1      18.414   3.742  32.439  1.00  0.00     0.006 A 
HETATM    4  C2  UNK     1      18.745   3.256  31.173  1.00  0.00     0.099 A 
HETATM    5  C3  UNK     1      18.837   1.891  30.898  1.00  0.00     0.007 A 
HETATM    6  C4  UNK     1      18.260   1.431  33.191  1.00  0.00     0.044 A 
HETATM    7  C5  UNK     1      18.339   5.195  32.639  1.00  0.00    -0.043 A 
HETATM    8  C6  UNK     1      18.171   2.802  33.452  1.00  0.00     0.032 A 
HETATM    9  C7  UNK     1      18.593   0.975  31.916  1.00  0.00     0.088 A 
HETATM   10  C8  UNK     1      19.194   1.414  29.528  1.00  0.00     0.054 C 
HETATM   11  C9  UNK     1      18.591   6.006  31.602  1.00  0.00     0.090 A 
HETATM   12  C10 UNK     1      17.986   5.748  33.989  1.00  0.00     0.049 C 
HETATM   13  C12 UNK     1      18.940   5.511  30.260  1.00  0.00     0.288 A 
ENDROOT
BRANCH   6  14
HETATM   14  C11 UNK     1      17.999   0.491  34.273  1.00  0.00     0.158 C 
HETATM   15  O3  UNK     1      18.901  -0.237  34.732  1.00  0.00    -0.293 OA
HETATM   16  C13 UNK     1      16.602   0.380  34.872  1.00  0.00     0.097 C 
ENDBRANCH   6  14
BRANCH   9  17
HETATM   17  O2  UNK     1      18.678  -0.363  31.667  1.00  0.00    -0.359 OA
HETATM   18  H12 UNK     1      19.370  -0.777  32.203  1.00  0.00     0.217 HD
ENDBRANCH   9  17
TORSDOF 2
ENDMDL
MODEL 10
REMARK VINA RESULT:      -6.8      1.776      5.792
REMARK  2 active torsions:
REMARK  status: ('A' for Active; 'I' for Inactive)
REMARK    1  A    between atoms: C7_11  and  O2_2 
REMARK    2  A    between atoms: C11_15  and  C4_8 
ROOT
HETATM    1  O1  UNK     1      16.521   5.813  32.319  1.00  0.00    -0.274 OA
HETATM    2  O4  UNK     1      17.783   4.019  31.674  1.00  0.00    -0.260 OA
HETATM    3  C1  UNK     1      17.608   7.707  33.414  1.00  0.00     0.006 A 
HETATM    4  C2  UNK     1      16.459   7.086  32.920  1.00  0.00     0.099 A 
HETATM    5  C3  UNK     1      15.200   7.684  32.992  1.00  0.00     0.007 A 
HETATM    6  C4  UNK     1      16.206   9.584  34.076  1.00  0.00     0.044 A 
HETATM    7  C5  UNK     1      18.894   7.006  33.296  1.00  0.00    -0.043 A 
HETATM    8  C6  UNK     1      17.462   8.974  33.997  1.00  0.00     0.032 A 
HETATM    9  C7  UNK     1      15.076   8.940  33.575  1.00  0.00     0.088 A 
HETATM   10  C8  UNK     1      13.995   6.984  32.452  1.00  0.00     0.054 C 
HETATM   11  C9  UNK     1      18.921   5.795  32.721  1.00  0.00     0.090 A 
HETATM   12  C10 UNK     1      20.146   7.646  33.817  1.00  0.00     0.049 C 
HETATM   13  C12 UNK     1      17.719   5.127  32.195  1.00  0.00     0.288 A 
ENDROOT
BRANCH   6  14
HETATM   14  C11 UNK     1      16.102  10.902  34.690  1.00  0.00     0.158 C 
HETATM   15  O3  UNK     1      15.343  11.109  35.656  1.00  0.00    -0.293 OA
HETATM   16  C13 UNK     1      16.929  12.064  34.155  1.00  0.00     0.097 C 
ENDBRANCH   6  14
BRANCH   9  17
HETATM   17  O2  UNK     1      13.854   9.540  33.653  1.00  0.00    -0.359 OA
HETATM   18  H12 UNK     1      13.744  10.206  32.959  1.00  0.00     0.217 HD
ENDBRANCH   9  17
TORSDOF 2
ENDMDL
