MODEL 1
REMARK VINA RESULT:      -8.3      0.000      0.000
REMARK  5 active torsions:
REMARK  status: ('A' for Active; 'I' for Inactive)
REMARK    1  A    between atoms: C13_22  and  O3_6 
REMARK    2  A    between atoms: C7_16  and  N1_9 
REMARK    3  A    between atoms: C1_10  and  C3_12 
REMARK    4  A    between atoms: C13_22  and  C4_13 
REMARK    5  A    between atoms: C12_21  and  C19_28 
ROOT
HETATM    1  O1  UNK     1      30.411  -5.528  34.273  1.00  0.00    -0.292 OA
HETATM    2  O2  UNK     1      28.423  -9.023  33.109  1.00  0.00    -0.274 OA
HETATM    3  O4  UNK     1      29.040 -10.027  35.061  1.00  0.00    -0.259 OA
HETATM    4  C1  UNK     1      30.364  -7.710  36.141  1.00  0.00     0.104 C 
HETATM    5  C2  UNK     1      29.712  -7.765  34.772  1.00  0.00     0.066 A 
HETATM    6  C4  UNK     1      31.232  -6.473  36.300  1.00  0.00     0.081 C 
HETATM    7  C5  UNK     1      29.760  -6.707  33.949  1.00  0.00     0.104 A 
HETATM    8  C6  UNK     1      29.109  -6.735  32.643  1.00  0.00     0.033 A 
HETATM    9  C7  UNK     1      31.223  -5.460  35.407  1.00  0.00     0.155 C 
HETATM   10  C8  UNK     1      29.047  -9.026  34.353  1.00  0.00     0.298 A 
HETATM   11  C10 UNK     1      28.449  -7.900  32.261  1.00  0.00     0.092 A 
HETATM   12  C14 UNK     1      29.106  -5.654  31.753  1.00  0.00     0.017 A 
HETATM   13  C17 UNK     1      27.795  -8.014  31.034  1.00  0.00     0.038 A 
HETATM   14  C18 UNK     1      28.455  -5.752  30.519  1.00  0.00     0.001 A 
HETATM   15  C20 UNK     1      27.800  -6.931  30.160  1.00  0.00     0.003 A 
ENDROOT
BRANCH   4  16
HETATM   16  C3  UNK     1      29.320  -7.753  37.219  1.00  0.00    -0.044 A 
HETATM   17  C11 UNK     1      28.470  -6.667  37.398  1.00  0.00     0.008 A 
HETATM   18  C15 UNK     1      27.501  -6.707  38.399  1.00  0.00     0.001 A 
HETATM   19  C16 UNK     1      27.389  -7.832  39.217  1.00  0.00     0.016 A 
HETATM   20  C12 UNK     1      28.245  -8.917  39.031  1.00  0.00     0.048 A 
HETATM   21  C9  UNK     1      29.214  -8.877  38.029  1.00  0.00     0.024 A 
BRANCH  20  22
HETATM   22  C19 UNK     1      28.124 -10.121  39.904  1.00  0.00     0.417 C 
HETATM   23  F1  UNK     1      29.287 -10.828  40.024  1.00  0.00    -0.166 F 
HETATM   24  F2  UNK     1      27.749  -9.832  41.185  1.00  0.00    -0.166 F 
HETATM   25  F3  UNK     1      27.200 -11.012  39.444  1.00  0.00    -0.166 F 
ENDBRANCH  20  22
ENDBRANCH   4  16
BRANCH   6  26
HETATM   26  C13 UNK     1      32.120  -6.442  37.477  1.00  0.00     0.294 C 
HETATM   27  O5  UNK     1      32.062  -5.581  38.333  1.00  0.00    -0.259 OA
BRANCH  26  28
HETATM   28  O3  UNK     1      32.957  -7.506  37.406  1.00  0.00    -0.323 OA
HETATM   29  C21 UNK     1      34.213  -7.246  36.770  1.00  0.00     0.213 C 
ENDBRANCH  26  28
ENDBRANCH   6  26
BRANCH   9  30
HETATM   30  N1  UNK     1      31.955  -4.310  35.478  1.00  0.00    -0.379 N 
HETATM   31  H8  UNK     1      32.738  -4.265  36.117  1.00  0.00     0.158 HD
HETATM   32  H9  UNK     1      31.718  -3.510  34.904  1.00  0.00     0.158 HD
ENDBRANCH   9  30
TORSDOF 5
ENDMDL
MODEL 2
REMARK VINA RESULT:      -8.3      3.012      4.547
REMARK  5 active torsions:
REMARK  status: ('A' for Active; 'I' for Inactive)
REMARK    1  A    between atoms: C13_22  and  O3_6 
REMARK    2  A    between atoms: C7_16  and  N1_9 
REMARK    3  A    between atoms: C1_10  and  C3_12 
REMARK    4  A    between atoms: C13_22  and  C4_13 
REMARK    5  A    between atoms: C12_21  and  C19_28 
ROOT
HETATM    1  O1  UNK     1      31.887  -4.460  36.254  1.00  0.00    -0.292 OA
HETATM    2  O2  UNK     1      33.635  -8.241  36.665  1.00  0.00    -0.274 OA
HETATM    3  O4  UNK     1      32.156  -8.748  38.324  1.00  0.00    -0.259 OA
HETATM    4  C1  UNK     1      30.705  -6.267  38.148  1.00  0.00     0.104 C 
HETATM    5  C2  UNK     1      31.916  -6.614  37.303  1.00  0.00     0.066 A 
HETATM    6  C4  UNK     1      30.352  -4.792  38.046  1.00  0.00     0.081 C 
HETATM    7  C5  UNK     1      32.415  -5.729  36.427  1.00  0.00     0.104 A 
HETATM    8  C6  UNK     1      33.559  -6.062  35.584  1.00  0.00     0.033 A 
HETATM    9  C7  UNK     1      30.921  -3.971  37.136  1.00  0.00     0.155 C 
HETATM   10  C8  UNK     1      32.554  -7.943  37.489  1.00  0.00     0.298 A 
HETATM   11  C10 UNK     1      34.136  -7.321  35.725  1.00  0.00     0.092 A 
HETATM   12  C14 UNK     1      34.107  -5.188  34.637  1.00  0.00     0.017 A 
HETATM   13  C17 UNK     1      35.228  -7.727  34.957  1.00  0.00     0.038 A 
HETATM   14  C18 UNK     1      35.202  -5.579  33.860  1.00  0.00     0.001 A 
HETATM   15  C20 UNK     1      35.761  -6.847  34.020  1.00  0.00     0.003 A 
ENDROOT
BRANCH   4  16
HETATM   16  C3  UNK     1      29.529  -7.110  37.749  1.00  0.00    -0.044 A 
HETATM   17  C11 UNK     1      29.036  -7.032  36.451  1.00  0.00     0.008 A 
HETATM   18  C15 UNK     1      27.944  -7.816  36.080  1.00  0.00     0.001 A 
HETATM   19  C16 UNK     1      27.351  -8.671  37.010  1.00  0.00     0.016 A 
HETATM   20  C12 UNK     1      27.852  -8.743  38.309  1.00  0.00     0.048 A 
HETATM   21  C9  UNK     1      28.944  -7.960  38.680  1.00  0.00     0.024 A 
BRANCH  20  22
HETATM   22  C19 UNK     1      27.219  -9.659  39.303  1.00  0.00     0.417 C 
HETATM   23  F1  UNK     1      26.050  -9.178  39.822  1.00  0.00    -0.166 F 
HETATM   24  F2  UNK     1      26.905 -10.886  38.793  1.00  0.00    -0.166 F 
HETATM   25  F3  UNK     1      28.023  -9.903  40.378  1.00  0.00    -0.166 F 
ENDBRANCH  20  22
ENDBRANCH   4  16
BRANCH   6  26
HETATM   26  C13 UNK     1      29.368  -4.284  39.018  1.00  0.00     0.294 C 
HETATM   27  O5  UNK     1      29.619  -4.121  40.197  1.00  0.00    -0.259 OA
BRANCH  26  28
HETATM   28  O3  UNK     1      28.204  -4.053  38.365  1.00  0.00    -0.323 OA
HETATM   29  C21 UNK     1      27.113  -4.892  38.758  1.00  0.00     0.213 C 
ENDBRANCH  26  28
ENDBRANCH   6  26
BRANCH   9  30
HETATM   30  N1  UNK     1      30.654  -2.644  36.963  1.00  0.00    -0.379 N 
HETATM   31  H8  UNK     1      31.397  -2.030  36.654  1.00  0.00     0.158 HD
HETATM   32  H9  UNK     1      29.729  -2.275  37.143  1.00  0.00     0.158 HD
ENDBRANCH   9  30
TORSDOF 5
ENDMDL
MODEL 3
REMARK VINA RESULT:      -8.1      1.658      2.342
REMARK  5 active torsions:
REMARK  status: ('A' for Active; 'I' for Inactive)
REMARK    1  A    between atoms: C13_22  and  O3_6 
REMARK    2  A    between atoms: C7_16  and  N1_9 
REMARK    3  A    between atoms: C1_10  and  C3_12 
REMARK    4  A    between atoms: C13_22  and  C4_13 
REMARK    5  A    between atoms: C12_21  and  C19_28 
ROOT
HETATM    1  O1  UNK     1      30.387  -5.819  33.599  1.00  0.00    -0.292 OA
HETATM    2  O2  UNK     1      29.153  -9.641  32.421  1.00  0.00    -0.274 OA
HETATM    3  O4  UNK     1      30.562 -10.572  33.953  1.00  0.00    -0.259 OA
HETATM    4  C1  UNK     1      31.476  -8.061  35.026  1.00  0.00     0.104 C 
HETATM    5  C2  UNK     1      30.490  -8.197  33.881  1.00  0.00     0.066 A 
HETATM    6  C4  UNK     1      31.990  -6.637  35.160  1.00  0.00     0.081 C 
HETATM    7  C5  UNK     1      30.009  -7.108  33.262  1.00  0.00     0.104 A 
HETATM    8  C6  UNK     1      29.034  -7.223  32.181  1.00  0.00     0.033 A 
HETATM    9  C7  UNK     1      31.448  -5.603  34.481  1.00  0.00     0.155 C 
HETATM   10  C8  UNK     1      30.092  -9.560  33.444  1.00  0.00     0.298 A 
HETATM   11  C10 UNK     1      28.628  -8.496  31.793  1.00  0.00     0.092 A 
HETATM   12  C14 UNK     1      28.482  -6.123  31.514  1.00  0.00     0.017 A 
HETATM   13  C17 UNK     1      27.697  -8.700  30.774  1.00  0.00     0.038 A 
HETATM   14  C18 UNK     1      27.547  -6.310  30.490  1.00  0.00     0.001 A 
HETATM   15  C20 UNK     1      27.155  -7.597  30.121  1.00  0.00     0.003 A 
ENDROOT
BRANCH   4  16
HETATM   16  C3  UNK     1      30.848  -8.508  36.314  1.00  0.00    -0.044 A 
HETATM   17  C11 UNK     1      31.418  -9.555  37.030  1.00  0.00     0.008 A 
HETATM   18  C15 UNK     1      30.834  -9.971  38.226  1.00  0.00     0.001 A 
HETATM   19  C16 UNK     1      29.684  -9.338  38.698  1.00  0.00     0.016 A 
HETATM   20  C12 UNK     1      29.118  -8.290  37.974  1.00  0.00     0.048 A 
HETATM   21  C9  UNK     1      29.702  -7.873  36.778  1.00  0.00     0.024 A 
BRANCH  20  22
HETATM   22  C19 UNK     1      27.888  -7.612  38.479  1.00  0.00     0.417 C 
HETATM   23  F1  UNK     1      27.422  -6.635  37.646  1.00  0.00    -0.166 F 
HETATM   24  F2  UNK     1      26.833  -8.459  38.661  1.00  0.00    -0.166 F 
HETATM   25  F3  UNK     1      28.083  -7.003  39.685  1.00  0.00    -0.166 F 
ENDBRANCH  20  22
ENDBRANCH   4  16
BRANCH   6  26
HETATM   26  C13 UNK     1      33.143  -6.437  36.057  1.00  0.00     0.294 C 
HETATM   27  O5  UNK     1      34.157  -7.105  35.997  1.00  0.00    -0.259 OA
BRANCH  26  28
HETATM   28  O3  UNK     1      32.852  -5.421  36.904  1.00  0.00    -0.323 OA
HETATM   29  C21 UNK     1      32.474  -5.824  38.225  1.00  0.00     0.213 C 
ENDBRANCH  26  28
ENDBRANCH   6  26
BRANCH   9  30
HETATM   30  N1  UNK     1      31.833  -4.295  34.551  1.00  0.00    -0.379 N 
HETATM   31  H8  UNK     1      31.443  -3.707  35.275  1.00  0.00     0.158 HD
HETATM   32  H9  UNK     1      32.497  -3.916  33.888  1.00  0.00     0.158 HD
ENDBRANCH   9  30
TORSDOF 5
ENDMDL
MODEL 4
REMARK VINA RESULT:      -8.0      4.067      6.539
REMARK  5 active torsions:
REMARK  status: ('A' for Active; 'I' for Inactive)
REMARK    1  A    between atoms: C13_22  and  O3_6 
REMARK    2  A    between atoms: C7_16  and  N1_9 
REMARK    3  A    between atoms: C1_10  and  C3_12 
REMARK    4  A    between atoms: C13_22  and  C4_13 
REMARK    5  A    between atoms: C12_21  and  C19_28 
ROOT
HETATM    1  O1  UNK     1      30.989  -7.459  37.972  1.00  0.00    -0.292 OA
HETATM    2  O2  UNK     1      27.143  -7.971  36.403  1.00  0.00    -0.274 OA
HETATM    3  O4  UNK     1      27.565  -6.368  34.837  1.00  0.00    -0.259 OA
HETATM    4  C1  UNK     1      30.291  -5.922  35.648  1.00  0.00     0.104 C 
HETATM    5  C2  UNK     1      29.344  -6.895  36.324  1.00  0.00     0.066 A 
HETATM    6  C4  UNK     1      31.542  -5.686  36.479  1.00  0.00     0.081 C 
HETATM    7  C5  UNK     1      29.735  -7.592  37.401  1.00  0.00     0.104 A 
HETATM    8  C6  UNK     1      28.844  -8.557  38.041  1.00  0.00     0.033 A 
HETATM    9  C7  UNK     1      31.845  -6.434  37.562  1.00  0.00     0.155 C 
HETATM   10  C8  UNK     1      27.967  -7.037  35.784  1.00  0.00     0.298 A 
HETATM   11  C10 UNK     1      27.566  -8.723  37.515  1.00  0.00     0.092 A 
HETATM   12  C14 UNK     1      29.205  -9.328  39.152  1.00  0.00     0.017 A 
HETATM   13  C17 UNK     1      26.652  -9.626  38.058  1.00  0.00     0.038 A 
HETATM   14  C18 UNK     1      28.300 -10.238  39.709  1.00  0.00     0.001 A 
HETATM   15  C20 UNK     1      27.025 -10.386  39.162  1.00  0.00     0.003 A 
ENDROOT
BRANCH   4  16
HETATM   16  C3  UNK     1      30.663  -6.417  34.281  1.00  0.00    -0.044 A 
HETATM   17  C11 UNK     1      31.429  -7.570  34.152  1.00  0.00     0.008 A 
HETATM   18  C15 UNK     1      31.775  -8.031  32.882  1.00  0.00     0.001 A 
HETATM   19  C16 UNK     1      31.353  -7.334  31.749  1.00  0.00     0.016 A 
HETATM   20  C12 UNK     1      30.585  -6.178  31.887  1.00  0.00     0.048 A 
HETATM   21  C9  UNK     1      30.239  -5.719  33.157  1.00  0.00     0.024 A 
BRANCH  20  22
HETATM   22  C19 UNK     1      30.133  -5.434  30.676  1.00  0.00     0.417 C 
HETATM   23  F1  UNK     1      31.010  -5.505  29.631  1.00  0.00    -0.166 F 
HETATM   24  F2  UNK     1      28.944  -5.879  30.173  1.00  0.00    -0.166 F 
HETATM   25  F3  UNK     1      29.955  -4.102  30.913  1.00  0.00    -0.166 F 
ENDBRANCH  20  22
ENDBRANCH   4  16
BRANCH   6  26
HETATM   26  C13 UNK     1      32.407  -4.568  36.060  1.00  0.00     0.294 C 
HETATM   27  O5  UNK     1      32.057  -3.404  36.098  1.00  0.00    -0.259 OA
BRANCH  26  28
HETATM   28  O3  UNK     1      33.593  -5.078  35.652  1.00  0.00    -0.323 OA
HETATM   29  C21 UNK     1      34.348  -4.230  34.781  1.00  0.00     0.213 C 
ENDBRANCH  26  28
ENDBRANCH   6  26
BRANCH   9  30
HETATM   30  N1  UNK     1      32.949  -6.304  38.354  1.00  0.00    -0.379 N 
HETATM   31  H8  UNK     1      33.412  -5.406  38.407  1.00  0.00     0.158 HD
HETATM   32  H9  UNK     1      33.304  -7.093  38.880  1.00  0.00     0.158 HD
ENDBRANCH   9  30
TORSDOF 5
ENDMDL
MODEL 5
REMARK VINA RESULT:      -8.0      3.407      4.695
REMARK  5 active torsions:
REMARK  status: ('A' for Active; 'I' for Inactive)
REMARK    1  A    between atoms: C13_22  and  O3_6 
REMARK    2  A    between atoms: C7_16  and  N1_9 
REMARK    3  A    between atoms: C1_10  and  C3_12 
REMARK    4  A    between atoms: C13_22  and  C4_13 
REMARK    5  A    between atoms: C12_21  and  C19_28 
ROOT
HETATM    1  O1  UNK     1      30.793 -10.450  33.450  1.00  0.00    -0.292 OA
HETATM    2  O2  UNK     1      28.094  -7.816  31.635  1.00  0.00    -0.274 OA
HETATM    3  O4  UNK     1      27.808  -6.735  33.622  1.00  0.00    -0.259 OA
HETATM    4  C1  UNK     1      29.720  -8.332  35.066  1.00  0.00     0.104 C 
HETATM    5  C2  UNK     1      29.358  -8.538  33.607  1.00  0.00     0.066 A 
HETATM    6  C4  UNK     1      30.514  -9.504  35.619  1.00  0.00     0.081 C 
HETATM    7  C5  UNK     1      29.903  -9.541  32.903  1.00  0.00     0.104 A 
HETATM    8  C6  UNK     1      29.589  -9.730  31.490  1.00  0.00     0.033 A 
HETATM    9  C7  UNK     1      31.014 -10.479  34.829  1.00  0.00     0.155 C 
HETATM   10  C8  UNK     1      28.365  -7.623  32.985  1.00  0.00     0.298 A 
HETATM   11  C10 UNK     1      28.691  -8.851  30.891  1.00  0.00     0.092 A 
HETATM   12  C14 UNK     1      30.145 -10.744  30.700  1.00  0.00     0.017 A 
HETATM   13  C17 UNK     1      28.338  -8.953  29.546  1.00  0.00     0.038 A 
HETATM   14  C18 UNK     1      29.801 -10.861  29.349  1.00  0.00     0.001 A 
HETATM   15  C20 UNK     1      28.899  -9.966  28.773  1.00  0.00     0.003 A 
ENDROOT
BRANCH   4  16
HETATM   16  C3  UNK     1      30.490  -7.056  35.239  1.00  0.00    -0.044 A 
HETATM   17  C11 UNK     1      31.531  -6.757  34.368  1.00  0.00     0.008 A 
HETATM   18  C15 UNK     1      32.246  -5.571  34.528  1.00  0.00     0.001 A 
HETATM   19  C16 UNK     1      31.917  -4.692  35.560  1.00  0.00     0.016 A 
HETATM   20  C12 UNK     1      30.871  -4.999  36.430  1.00  0.00     0.048 A 
HETATM   21  C9  UNK     1      30.155  -6.184  36.269  1.00  0.00     0.024 A 
BRANCH  20  22
HETATM   22  C19 UNK     1      30.517  -4.058  37.533  1.00  0.00     0.417 C 
HETATM   23  F1  UNK     1      29.190  -4.070  37.857  1.00  0.00    -0.166 F 
HETATM   24  F2  UNK     1      31.172  -4.315  38.703  1.00  0.00    -0.166 F 
HETATM   25  F3  UNK     1      30.807  -2.760  37.228  1.00  0.00    -0.166 F 
ENDBRANCH  20  22
ENDBRANCH   4  16
BRANCH   6  26
HETATM   26  C13 UNK     1      30.693  -9.543  37.081  1.00  0.00     0.294 C 
HETATM   27  O5  UNK     1      29.781  -9.746  37.859  1.00  0.00    -0.259 OA
BRANCH  26  28
HETATM   28  O3  UNK     1      32.001  -9.321  37.356  1.00  0.00    -0.323 OA
HETATM   29  C21 UNK     1      32.253  -8.255  38.277  1.00  0.00     0.213 C 
ENDBRANCH  26  28
ENDBRANCH   6  26
BRANCH   9  30
HETATM   30  N1  UNK     1      31.749 -11.555  35.235  1.00  0.00    -0.379 N 
HETATM   31  H8  UNK     1      31.716 -11.832  36.207  1.00  0.00     0.158 HD
HETATM   32  H9  UNK     1      32.322 -12.068  34.577  1.00  0.00     0.158 HD
ENDBRANCH   9  30
TORSDOF 5
ENDMDL
MODEL 6
REMARK VINA RESULT:      -7.9      4.459      6.282
REMARK  5 active torsions:
REMARK  status: ('A' for Active; 'I' for Inactive)
REMARK    1  A    between atoms: C13_22  and  O3_6 
REMARK    2  A    between atoms: C7_16  and  N1_9 
REMARK    3  A    between atoms: C1_10  and  C3_12 
REMARK    4  A    between atoms: C13_22  and  C4_13 
REMARK    5  A    between atoms: C12_21  and  C19_28 
ROOT
HETATM    1  O1  UNK     1      34.418  -5.921  34.371  1.00  0.00    -0.292 OA
HETATM    2  O2  UNK     1      33.173  -9.913  34.198  1.00  0.00    -0.274 OA
HETATM    3  O4  UNK     1      31.263  -9.370  35.318  1.00  0.00    -0.259 OA
HETATM    4  C1  UNK     1      31.833  -6.551  35.455  1.00  0.00     0.104 C 
HETATM    5  C2  UNK     1      32.754  -7.584  34.833  1.00  0.00     0.066 A 
HETATM    6  C4  UNK     1      32.534  -5.216  35.649  1.00  0.00     0.081 C 
HETATM    7  C5  UNK     1      33.946  -7.223  34.334  1.00  0.00     0.104 A 
HETATM    8  C6  UNK     1      34.828  -8.200  33.703  1.00  0.00     0.033 A 
HETATM    9  C7  UNK     1      33.746  -4.949  35.117  1.00  0.00     0.155 C 
HETATM   10  C8  UNK     1      32.320  -9.005  34.816  1.00  0.00     0.298 A 
HETATM   11  C10 UNK     1      34.409  -9.527  33.647  1.00  0.00     0.092 A 
HETATM   12  C14 UNK     1      36.071  -7.878  33.145  1.00  0.00     0.017 A 
HETATM   13  C17 UNK     1      35.184 -10.526  33.058  1.00  0.00     0.038 A 
HETATM   14  C18 UNK     1      36.861  -8.868  32.551  1.00  0.00     0.001 A 
HETATM   15  C20 UNK     1      36.417 -10.191  32.507  1.00  0.00     0.003 A 
ENDROOT
BRANCH   4  16
HETATM   16  C3  UNK     1      30.603  -6.374  34.614  1.00  0.00    -0.044 A 
HETATM   17  C11 UNK     1      29.362  -6.737  35.125  1.00  0.00     0.008 A 
HETATM   18  C15 UNK     1      28.219  -6.572  34.344  1.00  0.00     0.001 A 
HETATM   19  C16 UNK     1      28.324  -6.046  33.057  1.00  0.00     0.016 A 
HETATM   20  C12 UNK     1      29.572  -5.684  32.551  1.00  0.00     0.048 A 
HETATM   21  C9  UNK     1      30.715  -5.848  33.332  1.00  0.00     0.024 A 
BRANCH  20  22
HETATM   22  C19 UNK     1      29.684  -5.119  31.174  1.00  0.00     0.417 C 
HETATM   23  F1  UNK     1      29.867  -3.765  31.152  1.00  0.00    -0.166 F 
HETATM   24  F2  UNK     1      30.726  -5.632  30.456  1.00  0.00    -0.166 F 
HETATM   25  F3  UNK     1      28.570  -5.349  30.421  1.00  0.00    -0.166 F 
ENDBRANCH  20  22
ENDBRANCH   4  16
BRANCH   6  26
HETATM   26  C13 UNK     1      31.832  -4.222  36.480  1.00  0.00     0.294 C 
HETATM   27  O5  UNK     1      31.836  -3.030  36.240  1.00  0.00    -0.259 OA
BRANCH  26  28
HETATM   28  O3  UNK     1      31.222  -4.874  37.499  1.00  0.00    -0.323 OA
HETATM   29  C21 UNK     1      29.984  -4.300  37.930  1.00  0.00     0.213 C 
ENDBRANCH  26  28
ENDBRANCH   6  26
BRANCH   9  30
HETATM   30  N1  UNK     1      34.440  -3.779  35.226  1.00  0.00    -0.379 N 
HETATM   31  H8  UNK     1      33.932  -2.904  35.202  1.00  0.00     0.158 HD
HETATM   32  H9  UNK     1      35.447  -3.782  35.326  1.00  0.00     0.158 HD
ENDBRANCH   9  30
TORSDOF 5
ENDMDL
MODEL 7
REMARK VINA RESULT:      -7.8      3.994      6.701
REMARK  5 active torsions:
REMARK  status: ('A' for Active; 'I' for Inactive)
REMARK    1  A    between atoms: C13_22  and  O3_6 
REMARK    2  A    between atoms: C7_16  and  N1_9 
REMARK    3  A    between atoms: C1_10  and  C3_12 
REMARK    4  A    between atoms: C13_22  and  C4_13 
REMARK    5  A    between atoms: C12_21  and  C19_28 
ROOT
HETATM    1  O1  UNK     1      31.042  -8.817  37.028  1.00  0.00    -0.292 OA
HETATM    2  O2  UNK     1      26.987  -7.782  36.956  1.00  0.00    -0.274 OA
HETATM    3  O4  UNK     1      27.336  -6.533  35.081  1.00  0.00    -0.259 OA
HETATM    4  C1  UNK     1      30.127  -7.199  34.839  1.00  0.00     0.104 C 
HETATM    5  C2  UNK     1      29.222  -7.687  35.954  1.00  0.00     0.066 A 
HETATM    6  C4  UNK     1      31.592  -7.463  35.147  1.00  0.00     0.081 C 
HETATM    7  C5  UNK     1      29.709  -8.451  36.944  1.00  0.00     0.104 A 
HETATM    8  C6  UNK     1      28.843  -8.956  38.006  1.00  0.00     0.033 A 
HETATM    9  C7  UNK     1      31.988  -8.237  36.180  1.00  0.00     0.155 C 
HETATM   10  C8  UNK     1      27.794  -7.278  35.941  1.00  0.00     0.298 A 
HETATM   11  C10 UNK     1      27.495  -8.608  37.977  1.00  0.00     0.092 A 
HETATM   12  C14 UNK     1      29.291  -9.773  39.050  1.00  0.00     0.017 A 
HETATM   13  C17 UNK     1      26.594  -9.050  38.946  1.00  0.00     0.038 A 
HETATM   14  C18 UNK     1      28.400 -10.224  40.030  1.00  0.00     0.001 A 
HETATM   15  C20 UNK     1      27.053  -9.863  39.977  1.00  0.00     0.003 A 
ENDROOT
BRANCH   4  16
HETATM   16  C3  UNK     1      29.747  -7.842  33.537  1.00  0.00    -0.044 A 
HETATM   17  C11 UNK     1      29.752  -9.228  33.427  1.00  0.00     0.008 A 
HETATM   18  C15 UNK     1      29.399  -9.826  32.218  1.00  0.00     0.001 A 
HETATM   19  C16 UNK     1      29.045  -9.034  31.126  1.00  0.00     0.016 A 
HETATM   20  C12 UNK     1      29.042  -7.644  31.244  1.00  0.00     0.048 A 
HETATM   21  C9  UNK     1      29.394  -7.047  32.453  1.00  0.00     0.024 A 
BRANCH  20  22
HETATM   22  C19 UNK     1      28.661  -6.797  30.076  1.00  0.00     0.417 C 
HETATM   23  F1  UNK     1      29.241  -7.190  28.904  1.00  0.00    -0.166 F 
HETATM   24  F2  UNK     1      27.319  -6.785  29.824  1.00  0.00    -0.166 F 
HETATM   25  F3  UNK     1      29.015  -5.489  30.239  1.00  0.00    -0.166 F 
ENDBRANCH  20  22
ENDBRANCH   4  16
BRANCH   6  26
HETATM   26  C13 UNK     1      32.575  -6.801  34.271  1.00  0.00     0.294 C 
HETATM   27  O5  UNK     1      33.455  -7.401  33.684  1.00  0.00    -0.259 OA
BRANCH  26  28
HETATM   28  O3  UNK     1      32.309  -5.473  34.259  1.00  0.00    -0.323 OA
HETATM   29  C21 UNK     1      33.200  -4.670  35.039  1.00  0.00     0.213 C 
ENDBRANCH  26  28
ENDBRANCH   6  26
BRANCH   9  30
HETATM   30  N1  UNK     1      33.275  -8.540  36.520  1.00  0.00    -0.379 N 
HETATM   31  H8  UNK     1      34.031  -8.024  36.087  1.00  0.00     0.158 HD
HETATM   32  H9  UNK     1      33.474  -9.270  37.191  1.00  0.00     0.158 HD
ENDBRANCH   9  30
TORSDOF 5
ENDMDL
MODEL 8
REMARK VINA RESULT:      -7.7      3.800      6.593
REMARK  5 active torsions:
REMARK  status: ('A' for Active; 'I' for Inactive)
REMARK    1  A    between atoms: C13_22  and  O3_6 
REMARK    2  A    between atoms: C7_16  and  N1_9 
REMARK    3  A    between atoms: C1_10  and  C3_12 
REMARK    4  A    between atoms: C13_22  and  C4_13 
REMARK    5  A    between atoms: C12_21  and  C19_28 
ROOT
HETATM    1  O1  UNK     1      27.989  -7.017  35.443  1.00  0.00    -0.292 OA
HETATM    2  O2  UNK     1      30.090  -9.708  37.865  1.00  0.00    -0.274 OA
HETATM    3  O4  UNK     1      31.849  -9.643  36.416  1.00  0.00    -0.259 OA
HETATM    4  C1  UNK     1      30.667  -7.695  34.656  1.00  0.00     0.104 C 
HETATM    5  C2  UNK     1      29.989  -8.260  35.890  1.00  0.00     0.066 A 
HETATM    6  C4  UNK     1      29.690  -6.933  33.776  1.00  0.00     0.081 C 
HETATM    7  C5  UNK     1      28.738  -7.894  36.210  1.00  0.00     0.104 A 
HETATM    8  C6  UNK     1      28.086  -8.404  37.412  1.00  0.00     0.033 A 
HETATM    9  C7  UNK     1      28.440  -6.621  34.181  1.00  0.00     0.155 C 
HETATM   10  C8  UNK     1      30.729  -9.247  36.718  1.00  0.00     0.298 A 
HETATM   11  C10 UNK     1      28.789  -9.299  38.214  1.00  0.00     0.092 A 
HETATM   12  C14 UNK     1      26.793  -8.041  37.807  1.00  0.00     0.017 A 
HETATM   13  C17 UNK     1      28.247  -9.831  39.383  1.00  0.00     0.038 A 
HETATM   14  C18 UNK     1      26.234  -8.566  38.977  1.00  0.00     0.001 A 
HETATM   15  C20 UNK     1      26.960  -9.460  39.764  1.00  0.00     0.003 A 
ENDROOT
BRANCH   4  16
HETATM   16  C3  UNK     1      31.813  -6.808  35.048  1.00  0.00    -0.044 A 
HETATM   17  C11 UNK     1      31.568  -5.655  35.787  1.00  0.00     0.008 A 
HETATM   18  C15 UNK     1      32.632  -4.831  36.152  1.00  0.00     0.001 A 
HETATM   19  C16 UNK     1      33.933  -5.164  35.774  1.00  0.00     0.016 A 
HETATM   20  C12 UNK     1      34.170  -6.321  35.033  1.00  0.00     0.048 A 
HETATM   21  C9  UNK     1      33.106  -7.146  34.670  1.00  0.00     0.024 A 
BRANCH  20  22
HETATM   22  C19 UNK     1      35.562  -6.678  34.631  1.00  0.00     0.417 C 
HETATM   23  F1  UNK     1      36.502  -6.350  35.566  1.00  0.00    -0.166 F 
HETATM   24  F2  UNK     1      35.740  -8.012  34.400  1.00  0.00    -0.166 F 
HETATM   25  F3  UNK     1      35.953  -6.051  33.484  1.00  0.00    -0.166 F 
ENDBRANCH  20  22
ENDBRANCH   4  16
BRANCH   6  26
HETATM   26  C13 UNK     1      30.167  -6.568  32.430  1.00  0.00     0.294 C 
HETATM   27  O5  UNK     1      30.544  -7.385  31.612  1.00  0.00    -0.259 OA
BRANCH  26  28
HETATM   28  O3  UNK     1      30.099  -5.221  32.305  1.00  0.00    -0.323 OA
HETATM   29  C21 UNK     1      29.860  -4.748  30.975  1.00  0.00     0.213 C 
ENDBRANCH  26  28
ENDBRANCH   6  26
BRANCH   9  30
HETATM   30  N1  UNK     1      27.505  -5.929  33.467  1.00  0.00    -0.379 N 
HETATM   31  H8  UNK     1      26.711  -6.427  33.086  1.00  0.00     0.158 HD
HETATM   32  H9  UNK     1      27.603  -4.933  33.317  1.00  0.00     0.158 HD
ENDBRANCH   9  30
TORSDOF 5
ENDMDL
MODEL 9
REMARK VINA RESULT:      -7.7      4.142      5.392
REMARK  5 active torsions:
REMARK  status: ('A' for Active; 'I' for Inactive)
REMARK    1  A    between atoms: C13_22  and  O3_6 
REMARK    2  A    between atoms: C7_16  and  N1_9 
REMARK    3  A    between atoms: C1_10  and  C3_12 
REMARK    4  A    between atoms: C13_22  and  C4_13 
REMARK    5  A    between atoms: C12_21  and  C19_28 
ROOT
HETATM    1  O1  UNK     1      31.807  -9.476  33.217  1.00  0.00    -0.292 OA
HETATM    2  O2  UNK     1      29.693  -6.497  31.174  1.00  0.00    -0.274 OA
HETATM    3  O4  UNK     1      28.863  -5.725  33.152  1.00  0.00    -0.259 OA
HETATM    4  C1  UNK     1      30.314  -7.594  34.792  1.00  0.00     0.104 C 
HETATM    5  C2  UNK     1      30.370  -7.559  33.277  1.00  0.00     0.066 A 
HETATM    6  C4  UNK     1      30.935  -8.866  35.349  1.00  0.00     0.081 C 
HETATM    7  C5  UNK     1      31.096  -8.462  32.599  1.00  0.00     0.104 A 
HETATM    8  C6  UNK     1      31.185  -8.420  31.142  1.00  0.00     0.033 A 
HETATM    9  C7  UNK     1      31.639  -9.725  34.581  1.00  0.00     0.155 C 
HETATM   10  C8  UNK     1      29.581  -6.524  32.560  1.00  0.00     0.298 A 
HETATM   11  C10 UNK     1      30.479  -7.427  30.467  1.00  0.00     0.092 A 
HETATM   12  C14 UNK     1      31.943  -9.319  30.384  1.00  0.00     0.017 A 
HETATM   13  C17 UNK     1      30.512  -7.307  29.078  1.00  0.00     0.038 A 
HETATM   14  C18 UNK     1      31.986  -9.214  28.990  1.00  0.00     0.001 A 
HETATM   15  C20 UNK     1      31.271  -8.208  28.338  1.00  0.00     0.003 A 
ENDROOT
BRANCH   4  16
HETATM   16  C3  UNK     1      30.997  -6.389  35.369  1.00  0.00    -0.044 A 
HETATM   17  C11 UNK     1      30.338  -5.611  36.314  1.00  0.00     0.008 A 
HETATM   18  C15 UNK     1      30.973  -4.491  36.850  1.00  0.00     0.001 A 
HETATM   19  C16 UNK     1      32.262  -4.155  36.436  1.00  0.00     0.016 A 
HETATM   20  C12 UNK     1      32.916  -4.940  35.487  1.00  0.00     0.048 A 
HETATM   21  C9  UNK     1      32.282  -6.060  34.952  1.00  0.00     0.024 A 
BRANCH  20  22
HETATM   22  C19 UNK     1      34.296  -4.581  35.046  1.00  0.00     0.417 C 
HETATM   23  F1  UNK     1      35.251  -4.813  35.995  1.00  0.00    -0.166 F 
HETATM   24  F2  UNK     1      34.714  -5.271  33.944  1.00  0.00    -0.166 F 
HETATM   25  F3  UNK     1      34.416  -3.262  34.720  1.00  0.00    -0.166 F 
ENDBRANCH  20  22
ENDBRANCH   4  16
BRANCH   6  26
HETATM   26  C13 UNK     1      30.704  -9.136  36.779  1.00  0.00     0.294 C 
HETATM   27  O5  UNK     1      29.596  -9.267  37.262  1.00  0.00    -0.259 OA
BRANCH  26  28
HETATM   28  O3  UNK     1      31.907  -9.203  37.399  1.00  0.00    -0.323 OA
HETATM   29  C21 UNK     1      32.178  -8.133  38.311  1.00  0.00     0.213 C 
ENDBRANCH  26  28
ENDBRANCH   6  26
BRANCH   9  30
HETATM   30  N1  UNK     1      32.242 -10.877  34.998  1.00  0.00    -0.379 N 
HETATM   31  H8  UNK     1      31.686 -11.580  35.466  1.00  0.00     0.158 HD
HETATM   32  H9  UNK     1      33.231 -11.027  34.845  1.00  0.00     0.158 HD
ENDBRANCH   9  30
TORSDOF 5
ENDMDL
MODEL 10
REMARK VINA RESULT:      -7.7      3.987      5.849
REMARK  5 active torsions:
REMARK  status: ('A' for Active; 'I' for Inactive)
REMARK    1  A    between atoms: C13_22  and  O3_6 
REMARK    2  A    between atoms: C7_16  and  N1_9 
REMARK    3  A    between atoms: C1_10  and  C3_12 
REMARK    4  A    between atoms: C13_22  and  C4_13 
REMARK    5  A    between atoms: C12_21  and  C19_28 
ROOT
HETATM    1  O1  UNK     1      30.038  -8.662  33.859  1.00  0.00    -0.292 OA
HETATM    2  O2  UNK     1      30.012  -5.900  30.714  1.00  0.00    -0.274 OA
HETATM    3  O4  UNK     1      30.424  -4.211  32.189  1.00  0.00    -0.259 OA
HETATM    4  C1  UNK     1      30.618  -5.922  34.497  1.00  0.00     0.104 C 
HETATM    5  C2  UNK     1      30.306  -6.407  33.094  1.00  0.00     0.066 A 
HETATM    6  C4  UNK     1      30.352  -6.999  35.536  1.00  0.00     0.081 C 
HETATM    7  C5  UNK     1      30.054  -7.704  32.860  1.00  0.00     0.104 A 
HETATM    8  C6  UNK     1      29.786  -8.189  31.509  1.00  0.00     0.033 A 
HETATM    9  C7  UNK     1      30.092  -8.281  35.202  1.00  0.00     0.155 C 
HETATM   10  C8  UNK     1      30.257  -5.410  31.993  1.00  0.00     0.298 A 
HETATM   11  C10 UNK     1      29.778  -7.266  30.467  1.00  0.00     0.092 A 
HETATM   12  C14 UNK     1      29.539  -9.532  31.202  1.00  0.00     0.017 A 
HETATM   13  C17 UNK     1      29.536  -7.642  29.145  1.00  0.00     0.038 A 
HETATM   14  C18 UNK     1      29.295  -9.925  29.882  1.00  0.00     0.001 A 
HETATM   15  C20 UNK     1      29.294  -8.981  28.855  1.00  0.00     0.003 A 
ENDROOT
BRANCH   4  16
HETATM   16  C3  UNK     1      32.042  -5.457  34.586  1.00  0.00    -0.044 A 
HETATM   17  C11 UNK     1      32.328  -4.223  35.159  1.00  0.00     0.008 A 
HETATM   18  C15 UNK     1      33.652  -3.790  35.242  1.00  0.00     0.001 A 
HETATM   19  C16 UNK     1      34.680  -4.594  34.749  1.00  0.00     0.016 A 
HETATM   20  C12 UNK     1      34.385  -5.830  34.175  1.00  0.00     0.048 A 
HETATM   21  C9  UNK     1      33.062  -6.263  34.093  1.00  0.00     0.024 A 
BRANCH  20  22
HETATM   22  C19 UNK     1      35.485  -6.690  33.649  1.00  0.00     0.417 C 
HETATM   23  F1  UNK     1      35.141  -8.008  33.535  1.00  0.00    -0.166 F 
HETATM   24  F2  UNK     1      35.918  -6.326  32.406  1.00  0.00    -0.166 F 
HETATM   25  F3  UNK     1      36.593  -6.669  34.445  1.00  0.00    -0.166 F 
ENDBRANCH  20  22
ENDBRANCH   4  16
BRANCH   6  26
HETATM   26  C13 UNK     1      30.363  -6.567  36.946  1.00  0.00     0.294 C 
HETATM   27  O5  UNK     1      31.104  -7.044  37.784  1.00  0.00    -0.259 OA
BRANCH  26  28
HETATM   28  O3  UNK     1      29.436  -5.591  37.099  1.00  0.00    -0.323 OA
HETATM   29  C21 UNK     1      29.848  -4.489  37.914  1.00  0.00     0.213 C 
ENDBRANCH  26  28
ENDBRANCH   6  26
BRANCH   9  30
HETATM   30  N1  UNK     1      29.858  -9.313  36.065  1.00  0.00    -0.379 N 
HETATM   31  H8  UNK     1      30.187 -10.238  35.824  1.00  0.00     0.158 HD
HETATM   32  H9  UNK     1      29.361  -9.158  36.933  1.00  0.00     0.158 HD
ENDBRANCH   9  30
TORSDOF 5
ENDMDL
