MODEL 1
REMARK VINA RESULT:      -9.5      0.000      0.000
REMARK  5 active torsions:
REMARK  status: ('A' for Active; 'I' for Inactive)
REMARK    1  A    between atoms: C5_13  and  O2_2 
REMARK    2  A    between atoms: C9_17  and  O2_2 
REMARK    3  A    between atoms: C6_14  and  O3_3 
REMARK    4  A    between atoms: C20_28  and  O5_5 
REMARK    5  A    between atoms: C8_16  and  O5_5 
ROOT
HETATM    1  O1  UNK     1      18.877   0.408  31.785  1.00  0.00    -0.272 OA
HETATM    2  O6  UNK     1      18.888   1.624  29.849  1.00  0.00    -0.257 OA
HETATM    3  C1  UNK     1      18.295   1.497  33.879  1.00  0.00     0.004 A 
HETATM    4  C2  UNK     1      18.673   0.357  33.178  1.00  0.00     0.092 A 
HETATM    5  C3  UNK     1      18.114   2.741  33.150  1.00  0.00     0.058 A 
HETATM    6  C4  UNK     1      18.103   1.407  35.259  1.00  0.00     0.054 A 
HETATM    7  C5  UNK     1      18.308   2.790  31.826  1.00  0.00     0.152 A 
HETATM    8  C6  UNK     1      18.290   0.185  35.913  1.00  0.00     0.103 A 
HETATM    9  C7  UNK     1      18.864  -0.868  33.816  1.00  0.00     0.078 A 
HETATM   10  C8  UNK     1      18.670  -0.949  35.192  1.00  0.00     0.115 A 
HETATM   11  C12 UNK     1      18.711   1.586  31.063  1.00  0.00     0.322 A 
ENDROOT
BRANCH   7  12
HETATM   12  O2  UNK     1      18.145   3.951  31.101  1.00  0.00    -0.304 OA
BRANCH  12  13
HETATM   13  C9  UNK     1      18.276   5.128  31.781  1.00  0.00     0.079 A 
HETATM   14  C13 UNK     1      17.144   5.787  32.250  1.00  0.00     0.075 A 
HETATM   15  C11 UNK     1      17.303   6.986  32.942  1.00  0.00     0.092 A 
HETATM   16  C10 UNK     1      18.561   7.538  33.172  1.00  0.00    -0.002 A 
HETATM   17  O4  UNK     1      16.140   7.633  33.406  1.00  0.00    -0.275 OA
HETATM   18  C15 UNK     1      19.690   6.867  32.696  1.00  0.00     0.017 A 
HETATM   19  C16 UNK     1      18.653   8.791  33.900  1.00  0.00     0.020 A 
HETATM   20  C14 UNK     1      19.546   5.663  32.001  1.00  0.00     0.038 A 
HETATM   21  C17 UNK     1      17.547   9.398  34.338  1.00  0.00     0.083 A 
HETATM   22  C18 UNK     1      16.204   8.834  34.105  1.00  0.00     0.288 A 
HETATM   23  O7  UNK     1      15.197   9.402  34.513  1.00  0.00    -0.260 OA
ENDBRANCH  12  13
ENDBRANCH   7  12
BRANCH   8  24
HETATM   24  O3  UNK     1      18.098   0.115  37.262  1.00  0.00    -0.353 OA
HETATM   25  C19 UNK     1      17.464   1.229  37.885  1.00  0.00     0.210 C 
ENDBRANCH   8  24
BRANCH  10  26
HETATM   26  O5  UNK     1      18.855  -2.141  35.826  1.00  0.00    -0.276 OA
BRANCH  26  27
HETATM   27  C20 UNK     1      20.191  -2.405  36.170  1.00  0.00     0.260 C 
HETATM   28  O8  UNK     1      21.174  -1.845  35.703  1.00  0.00    -0.265 OA
HETATM   29  C21 UNK     1      20.249  -3.490  37.204  1.00  0.00     0.126 C 
ENDBRANCH  26  27
ENDBRANCH  10  26
TORSDOF 5
ENDMDL
MODEL 2
REMARK VINA RESULT:      -8.9     24.659     26.658
REMARK  5 active torsions:
REMARK  status: ('A' for Active; 'I' for Inactive)
REMARK    1  A    between atoms: C5_13  and  O2_2 
REMARK    2  A    between atoms: C9_17  and  O2_2 
REMARK    3  A    between atoms: C6_14  and  O3_3 
REMARK    4  A    between atoms: C20_28  and  O5_5 
REMARK    5  A    between atoms: C8_16  and  O5_5 
ROOT
HETATM    1  O1  UNK     1      16.525   6.705   9.893  1.00  0.00    -0.272 OA
HETATM    2  O6  UNK     1      15.925   4.518   9.607  1.00  0.00    -0.257 OA
HETATM    3  C1  UNK     1      15.062   8.465   9.072  1.00  0.00     0.004 A 
HETATM    4  C2  UNK     1      16.233   8.071   9.712  1.00  0.00     0.092 A 
HETATM    5  C3  UNK     1      14.146   7.442   8.595  1.00  0.00     0.058 A 
HETATM    6  C4  UNK     1      14.807   9.828   8.911  1.00  0.00     0.054 A 
HETATM    7  C5  UNK     1      14.424   6.144   8.767  1.00  0.00     0.152 A 
HETATM    8  C6  UNK     1      15.721  10.772   9.390  1.00  0.00     0.103 A 
HETATM    9  C7  UNK     1      17.154   9.000  10.194  1.00  0.00     0.078 A 
HETATM   10  C8  UNK     1      16.892  10.358  10.029  1.00  0.00     0.115 A 
HETATM   11  C12 UNK     1      15.666   5.706   9.444  1.00  0.00     0.322 A 
ENDROOT
BRANCH   7  12
HETATM   12  O2  UNK     1      13.579   5.146   8.328  1.00  0.00    -0.304 OA
BRANCH  12  13
HETATM   13  C9  UNK     1      12.292   5.506   8.048  1.00  0.00     0.079 A 
HETATM   14  C13 UNK     1      11.355   5.581   9.074  1.00  0.00     0.075 A 
HETATM   15  C11 UNK     1      10.048   5.950   8.764  1.00  0.00     0.092 A 
HETATM   16  C10 UNK     1       9.659   6.243   7.460  1.00  0.00    -0.002 A 
HETATM   17  O4  UNK     1       9.119   6.019   9.822  1.00  0.00    -0.275 OA
HETATM   18  C15 UNK     1      10.608   6.163   6.438  1.00  0.00     0.017 A 
HETATM   19  C16 UNK     1       8.279   6.621   7.208  1.00  0.00     0.020 A 
HETATM   20  C14 UNK     1      11.923   5.795   6.734  1.00  0.00     0.038 A 
HETATM   21  C17 UNK     1       7.405   6.684   8.216  1.00  0.00     0.083 A 
HETATM   22  C18 UNK     1       7.793   6.379   9.605  1.00  0.00     0.288 A 
HETATM   23  O7  UNK     1       6.980   6.442  10.521  1.00  0.00    -0.260 OA
ENDBRANCH  12  13
ENDBRANCH   7  12
BRANCH   8  24
HETATM   24  O3  UNK     1      15.457  12.099   9.224  1.00  0.00    -0.353 OA
HETATM   25  C19 UNK     1      15.690  12.649   7.929  1.00  0.00     0.210 C 
ENDBRANCH   8  24
BRANCH  10  26
HETATM   26  O5  UNK     1      17.786  11.274  10.495  1.00  0.00    -0.276 OA
BRANCH  26  27
HETATM   27  C20 UNK     1      18.948  11.389   9.714  1.00  0.00     0.260 C 
HETATM   28  O8  UNK     1      19.025  11.179   8.511  1.00  0.00    -0.265 OA
HETATM   29  C21 UNK     1      20.103  11.808  10.574  1.00  0.00     0.126 C 
ENDBRANCH  26  27
ENDBRANCH  10  26
TORSDOF 5
ENDMDL
MODEL 3
REMARK VINA RESULT:      -8.8     24.866     28.099
REMARK  5 active torsions:
REMARK  status: ('A' for Active; 'I' for Inactive)
REMARK    1  A    between atoms: C5_13  and  O2_2 
REMARK    2  A    between atoms: C9_17  and  O2_2 
REMARK    3  A    between atoms: C6_14  and  O3_3 
REMARK    4  A    between atoms: C20_28  and  O5_5 
REMARK    5  A    between atoms: C8_16  and  O5_5 
ROOT
HETATM    1  O1  UNK     1      17.487   9.396   9.420  1.00  0.00    -0.272 OA
HETATM    2  O6  UNK     1      16.833   7.459  10.442  1.00  0.00    -0.257 OA
HETATM    3  C1  UNK     1      15.814  10.835   8.399  1.00  0.00     0.004 A 
HETATM    4  C2  UNK     1      17.142  10.565   8.714  1.00  0.00     0.092 A 
HETATM    5  C3  UNK     1      14.791   9.889   8.811  1.00  0.00     0.058 A 
HETATM    6  C4  UNK     1      15.512  12.004   7.698  1.00  0.00     0.054 A 
HETATM    7  C5  UNK     1      15.118   8.778   9.481  1.00  0.00     0.152 A 
HETATM    8  C6  UNK     1      16.536  12.880   7.325  1.00  0.00     0.103 A 
HETATM    9  C7  UNK     1      18.174  11.429   8.349  1.00  0.00     0.078 A 
HETATM   10  C8  UNK     1      17.863  12.593   7.650  1.00  0.00     0.115 A 
HETATM   11  C12 UNK     1      16.526   8.474   9.825  1.00  0.00     0.322 A 
ENDROOT
BRANCH   7  12
HETATM   12  O2  UNK     1      14.174   7.859   9.889  1.00  0.00    -0.304 OA
BRANCH  12  13
HETATM   13  C9  UNK     1      13.275   7.439   8.950  1.00  0.00     0.079 A 
HETATM   14  C13 UNK     1      11.911   7.540   9.204  1.00  0.00     0.075 A 
HETATM   15  C11 UNK     1      11.012   7.105   8.232  1.00  0.00     0.092 A 
HETATM   16  C10 UNK     1      11.446   6.575   7.020  1.00  0.00    -0.002 A 
HETATM   17  O4  UNK     1       9.636   7.219   8.515  1.00  0.00    -0.275 OA
HETATM   18  C15 UNK     1      12.817   6.479   6.776  1.00  0.00     0.017 A 
HETATM   19  C16 UNK     1      10.454   6.141   6.051  1.00  0.00     0.020 A 
HETATM   20  C14 UNK     1      13.730   6.911   7.742  1.00  0.00     0.038 A 
HETATM   21  C17 UNK     1       9.151   6.252   6.326  1.00  0.00     0.083 A 
HETATM   22  C18 UNK     1       8.669   6.810   7.603  1.00  0.00     0.288 A 
HETATM   23  O7  UNK     1       7.470   6.906   7.842  1.00  0.00    -0.260 OA
ENDBRANCH  12  13
ENDBRANCH   7  12
BRANCH   8  24
HETATM   24  O3  UNK     1      16.223  14.017   6.640  1.00  0.00    -0.353 OA
HETATM   25  C19 UNK     1      14.842  14.361   6.552  1.00  0.00     0.210 C 
ENDBRANCH   8  24
BRANCH  10  26
HETATM   26  O5  UNK     1      18.863  13.444   7.288  1.00  0.00    -0.276 OA
BRANCH  26  27
HETATM   27  C20 UNK     1      19.498  13.101   6.082  1.00  0.00     0.260 C 
HETATM   28  O8  UNK     1      19.024  12.399   5.198  1.00  0.00    -0.265 OA
HETATM   29  C21 UNK     1      20.862  13.722   6.026  1.00  0.00     0.126 C 
ENDBRANCH  26  27
ENDBRANCH  10  26
TORSDOF 5
ENDMDL
MODEL 4
REMARK VINA RESULT:      -8.7     23.605     26.097
REMARK  5 active torsions:
REMARK  status: ('A' for Active; 'I' for Inactive)
REMARK    1  A    between atoms: C5_13  and  O2_2 
REMARK    2  A    between atoms: C9_17  and  O2_2 
REMARK    3  A    between atoms: C6_14  and  O3_3 
REMARK    4  A    between atoms: C20_28  and  O5_5 
REMARK    5  A    between atoms: C8_16  and  O5_5 
ROOT
HETATM    1  O1  UNK     1       6.840   6.987  11.199  1.00  0.00    -0.272 OA
HETATM    2  O6  UNK     1       7.982   8.750  10.299  1.00  0.00    -0.257 OA
HETATM    3  C1  UNK     1       6.889   4.831  10.076  1.00  0.00     0.004 A 
HETATM    4  C2  UNK     1       6.458   5.632  11.128  1.00  0.00     0.092 A 
HETATM    5  C3  UNK     1       7.738   5.415   9.052  1.00  0.00     0.058 A 
HETATM    6  C4  UNK     1       6.489   3.493  10.041  1.00  0.00     0.054 A 
HETATM    7  C5  UNK     1       8.100   6.702   9.118  1.00  0.00     0.152 A 
HETATM    8  C6  UNK     1       5.672   2.981  11.052  1.00  0.00     0.103 A 
HETATM    9  C7  UNK     1       5.642   5.136  12.143  1.00  0.00     0.078 A 
HETATM   10  C8  UNK     1       5.249   3.801  12.101  1.00  0.00     0.115 A 
HETATM   11  C12 UNK     1       7.651   7.571  10.231  1.00  0.00     0.322 A 
ENDROOT
BRANCH   7  12
HETATM   12  O2  UNK     1       8.905   7.291   8.166  1.00  0.00    -0.304 OA
BRANCH  12  13
HETATM   13  C9  UNK     1      10.210   6.888   8.126  1.00  0.00     0.079 A 
HETATM   14  C13 UNK     1      11.057   7.178   9.192  1.00  0.00     0.075 A 
HETATM   15  C11 UNK     1      12.384   6.757   9.129  1.00  0.00     0.092 A 
HETATM   16  C10 UNK     1      12.879   6.058   8.031  1.00  0.00    -0.002 A 
HETATM   17  O4  UNK     1      13.220   7.063  10.222  1.00  0.00    -0.275 OA
HETATM   18  C15 UNK     1      12.020   5.773   6.968  1.00  0.00     0.017 A 
HETATM   19  C16 UNK     1      14.273   5.650   8.032  1.00  0.00     0.020 A 
HETATM   20  C14 UNK     1      10.686   6.189   7.017  1.00  0.00     0.038 A 
HETATM   21  C17 UNK     1      15.060   5.943   9.071  1.00  0.00     0.083 A 
HETATM   22  C18 UNK     1      14.557   6.682  10.244  1.00  0.00     0.288 A 
HETATM   23  O7  UNK     1      15.291   6.945  11.192  1.00  0.00    -0.260 OA
ENDBRANCH  12  13
ENDBRANCH   7  12
BRANCH   8  24
HETATM   24  O3  UNK     1       5.290   1.672  11.002  1.00  0.00    -0.353 OA
HETATM   25  C19 UNK     1       5.103   1.101   9.709  1.00  0.00     0.210 C 
ENDBRANCH   8  24
BRANCH  10  26
HETATM   26  O5  UNK     1       4.451   3.305  13.087  1.00  0.00    -0.276 OA
BRANCH  26  27
HETATM   27  C20 UNK     1       5.023   3.361  14.369  1.00  0.00     0.260 C 
HETATM   28  O8  UNK     1       6.086   2.853  14.701  1.00  0.00    -0.265 OA
HETATM   29  C21 UNK     1       4.135   4.141  15.292  1.00  0.00     0.126 C 
ENDBRANCH  26  27
ENDBRANCH  10  26
TORSDOF 5
ENDMDL
MODEL 5
REMARK VINA RESULT:      -8.6     10.664     14.860
REMARK  5 active torsions:
REMARK  status: ('A' for Active; 'I' for Inactive)
REMARK    1  A    between atoms: C5_13  and  O2_2 
REMARK    2  A    between atoms: C9_17  and  O2_2 
REMARK    3  A    between atoms: C6_14  and  O3_3 
REMARK    4  A    between atoms: C20_28  and  O5_5 
REMARK    5  A    between atoms: C8_16  and  O5_5 
ROOT
HETATM    1  O1  UNK     1      22.485 -11.109  35.638  1.00  0.00    -0.272 OA
HETATM    2  O6  UNK     1      24.270 -12.475  35.222  1.00  0.00    -0.257 OA
HETATM    3  C1  UNK     1      22.817  -9.056  36.898  1.00  0.00     0.004 A 
HETATM    4  C2  UNK     1      21.976  -9.929  36.215  1.00  0.00     0.092 A 
HETATM    5  C3  UNK     1      24.229  -9.384  37.006  1.00  0.00     0.058 A 
HETATM    6  C4  UNK     1      22.275  -7.896  37.456  1.00  0.00     0.054 A 
HETATM    7  C5  UNK     1      24.712 -10.505  36.458  1.00  0.00     0.152 A 
HETATM    8  C6  UNK     1      20.910  -7.628  37.323  1.00  0.00     0.103 A 
HETATM    9  C7  UNK     1      20.613  -9.675  36.074  1.00  0.00     0.078 A 
HETATM   10  C8  UNK     1      20.081  -8.516  36.634  1.00  0.00     0.115 A 
HETATM   11  C12 UNK     1      23.832 -11.446  35.728  1.00  0.00     0.322 A 
ENDROOT
BRANCH   7  12
HETATM   12  O2  UNK     1      26.045 -10.849  36.539  1.00  0.00    -0.304 OA
BRANCH  12  13
HETATM   13  C9  UNK     1      26.891  -9.920  37.077  1.00  0.00     0.079 A 
HETATM   14  C13 UNK     1      27.578  -9.044  36.243  1.00  0.00     0.075 A 
HETATM   15  C11 UNK     1      28.435  -8.105  36.814  1.00  0.00     0.092 A 
HETATM   16  C10 UNK     1      28.619  -8.025  38.192  1.00  0.00    -0.002 A 
HETATM   17  O4  UNK     1      29.118  -7.230  35.946  1.00  0.00    -0.275 OA
HETATM   18  C15 UNK     1      27.924  -8.909  39.019  1.00  0.00     0.017 A 
HETATM   19  C16 UNK     1      29.527  -7.022  38.719  1.00  0.00     0.020 A 
HETATM   20  C14 UNK     1      27.061  -9.856  38.460  1.00  0.00     0.038 A 
HETATM   21  C17 UNK     1      30.171  -6.195  37.891  1.00  0.00     0.083 A 
HETATM   22  C18 UNK     1      29.993  -6.262  36.429  1.00  0.00     0.288 A 
HETATM   23  O7  UNK     1      30.590  -5.496  35.680  1.00  0.00    -0.260 OA
ENDBRANCH  12  13
ENDBRANCH   7  12
BRANCH   8  24
HETATM   24  O3  UNK     1      20.397  -6.491  37.874  1.00  0.00    -0.353 OA
HETATM   25  C19 UNK     1      21.132  -5.286  37.675  1.00  0.00     0.210 C 
ENDBRANCH   8  24
BRANCH  10  26
HETATM   26  O5  UNK     1      18.749  -8.259  36.503  1.00  0.00    -0.276 OA
BRANCH  26  27
HETATM   27  C20 UNK     1      18.415  -7.544  35.341  1.00  0.00     0.260 C 
HETATM   28  O8  UNK     1      19.209  -7.032  34.563  1.00  0.00    -0.265 OA
HETATM   29  C21 UNK     1      16.925  -7.492  35.182  1.00  0.00     0.126 C 
ENDBRANCH  26  27
ENDBRANCH  10  26
TORSDOF 5
ENDMDL
MODEL 6
REMARK VINA RESULT:      -8.6     14.266     17.111
REMARK  5 active torsions:
REMARK  status: ('A' for Active; 'I' for Inactive)
REMARK    1  A    between atoms: C5_13  and  O2_2 
REMARK    2  A    between atoms: C9_17  and  O2_2 
REMARK    3  A    between atoms: C6_14  and  O3_3 
REMARK    4  A    between atoms: C20_28  and  O5_5 
REMARK    5  A    between atoms: C8_16  and  O5_5 
ROOT
HETATM    1  O1  UNK     1      32.792  -7.165  32.522  1.00  0.00    -0.272 OA
HETATM    2  O6  UNK     1      34.074  -7.042  34.411  1.00  0.00    -0.257 OA
HETATM    3  C1  UNK     1      30.510  -6.329  32.569  1.00  0.00     0.004 A 
HETATM    4  C2  UNK     1      31.562  -6.921  31.879  1.00  0.00     0.092 A 
HETATM    5  C3  UNK     1      30.700  -5.967  33.963  1.00  0.00     0.058 A 
HETATM    6  C4  UNK     1      29.306  -6.103  31.897  1.00  0.00     0.054 A 
HETATM    7  C5  UNK     1      31.868  -6.199  34.574  1.00  0.00     0.152 A 
HETATM    8  C6  UNK     1      29.175  -6.470  30.555  1.00  0.00     0.103 A 
HETATM    9  C7  UNK     1      31.447  -7.293  30.541  1.00  0.00     0.078 A 
HETATM   10  C8  UNK     1      30.243  -7.064  29.878  1.00  0.00     0.115 A 
HETATM   11  C12 UNK     1      33.000  -6.829  33.857  1.00  0.00     0.322 A 
ENDROOT
BRANCH   7  12
HETATM   12  O2  UNK     1      32.087  -5.868  35.895  1.00  0.00    -0.304 OA
BRANCH  12  13
HETATM   13  C9  UNK     1      31.078  -6.141  36.775  1.00  0.00     0.079 A 
HETATM   14  C13 UNK     1      30.756  -7.462  37.071  1.00  0.00     0.075 A 
HETATM   15  C11 UNK     1      29.723  -7.716  37.971  1.00  0.00     0.092 A 
HETATM   16  C10 UNK     1      29.010  -6.686  38.577  1.00  0.00    -0.002 A 
HETATM   17  O4  UNK     1      29.418  -9.063  38.253  1.00  0.00    -0.275 OA
HETATM   18  C15 UNK     1      29.342  -5.364  38.272  1.00  0.00     0.017 A 
HETATM   19  C16 UNK     1      27.945  -7.023  39.506  1.00  0.00     0.020 A 
HETATM   20  C14 UNK     1      30.376  -5.094  37.371  1.00  0.00     0.038 A 
HETATM   21  C17 UNK     1      27.661  -8.301  39.769  1.00  0.00     0.083 A 
HETATM   22  C18 UNK     1      28.403  -9.409  39.139  1.00  0.00     0.288 A 
HETATM   23  O7  UNK     1      28.132 -10.579  39.390  1.00  0.00    -0.260 OA
ENDBRANCH  12  13
ENDBRANCH   7  12
BRANCH   8  24
HETATM   24  O3  UNK     1      27.993  -6.243  29.914  1.00  0.00    -0.353 OA
HETATM   25  C19 UNK     1      26.827  -6.843  30.474  1.00  0.00     0.210 C 
ENDBRANCH   8  24
BRANCH  10  26
HETATM   26  O5  UNK     1      30.119  -7.425  28.571  1.00  0.00    -0.276 OA
BRANCH  26  27
HETATM   27  C20 UNK     1      30.344  -8.790  28.330  1.00  0.00     0.260 C 
HETATM   28  O8  UNK     1      31.332  -9.268  27.788  1.00  0.00    -0.265 OA
HETATM   29  C21 UNK     1      29.185  -9.597  28.834  1.00  0.00     0.126 C 
ENDBRANCH  26  27
ENDBRANCH  10  26
TORSDOF 5
ENDMDL
MODEL 7
REMARK VINA RESULT:      -8.6     10.965     14.297
REMARK  5 active torsions:
REMARK  status: ('A' for Active; 'I' for Inactive)
REMARK    1  A    between atoms: C5_13  and  O2_2 
REMARK    2  A    between atoms: C9_17  and  O2_2 
REMARK    3  A    between atoms: C6_14  and  O3_3 
REMARK    4  A    between atoms: C20_28  and  O5_5 
REMARK    5  A    between atoms: C8_16  and  O5_5 
ROOT
HETATM    1  O1  UNK     1      26.037  -5.652  38.700  1.00  0.00    -0.272 OA
HETATM    2  O6  UNK     1      23.794  -5.441  39.084  1.00  0.00    -0.257 OA
HETATM    3  C1  UNK     1      27.039  -7.867  38.644  1.00  0.00     0.004 A 
HETATM    4  C2  UNK     1      27.163  -6.484  38.547  1.00  0.00     0.092 A 
HETATM    5  C3  UNK     1      25.728  -8.436  38.908  1.00  0.00     0.058 A 
HETATM    6  C4  UNK     1      28.178  -8.659  38.487  1.00  0.00     0.054 A 
HETATM    7  C5  UNK     1      24.658  -7.645  39.054  1.00  0.00     0.152 A 
HETATM    8  C6  UNK     1      29.416  -8.060  38.235  1.00  0.00     0.103 A 
HETATM    9  C7  UNK     1      28.391  -5.873  38.296  1.00  0.00     0.078 A 
HETATM   10  C8  UNK     1      29.522  -6.671  38.140  1.00  0.00     0.115 A 
HETATM   11  C12 UNK     1      24.771  -6.172  38.954  1.00  0.00     0.322 A 
ENDROOT
BRANCH   7  12
HETATM   12  O2  UNK     1      23.399  -8.148  39.303  1.00  0.00    -0.304 OA
BRANCH  12  13
HETATM   13  C9  UNK     1      22.491  -8.074  38.285  1.00  0.00     0.079 A 
HETATM   14  C13 UNK     1      21.264  -7.453  38.496  1.00  0.00     0.075 A 
HETATM   15  C11 UNK     1      20.354  -7.388  37.443  1.00  0.00     0.092 A 
HETATM   16  C10 UNK     1      20.642  -7.928  36.193  1.00  0.00    -0.002 A 
HETATM   17  O4  UNK     1      19.118  -6.754  37.684  1.00  0.00    -0.275 OA
HETATM   18  C15 UNK     1      21.877  -8.549  35.993  1.00  0.00     0.017 A 
HETATM   19  C16 UNK     1      19.646  -7.826  35.139  1.00  0.00     0.020 A 
HETATM   20  C14 UNK     1      22.800  -8.621  37.040  1.00  0.00     0.038 A 
HETATM   21  C17 UNK     1      18.478  -7.223  35.375  1.00  0.00     0.083 A 
HETATM   22  C18 UNK     1      18.151  -6.644  36.691  1.00  0.00     0.288 A 
HETATM   23  O7  UNK     1      17.074  -6.093  36.893  1.00  0.00    -0.260 OA
ENDBRANCH  12  13
ENDBRANCH   7  12
BRANCH   8  24
HETATM   24  O3  UNK     1      30.519  -8.848  38.084  1.00  0.00    -0.353 OA
HETATM   25  C19 UNK     1      30.709  -9.460  36.810  1.00  0.00     0.210 C 
ENDBRANCH   8  24
BRANCH  10  26
HETATM   26  O5  UNK     1      30.727  -6.084  37.896  1.00  0.00    -0.276 OA
BRANCH  26  27
HETATM   27  C20 UNK     1      30.804  -5.430  36.655  1.00  0.00     0.260 C 
HETATM   28  O8  UNK     1      30.437  -5.887  35.581  1.00  0.00    -0.265 OA
HETATM   29  C21 UNK     1      31.412  -4.070  36.830  1.00  0.00     0.126 C 
ENDBRANCH  26  27
ENDBRANCH  10  26
TORSDOF 5
ENDMDL
MODEL 8
REMARK VINA RESULT:      -8.6     23.235     25.867
REMARK  5 active torsions:
REMARK  status: ('A' for Active; 'I' for Inactive)
REMARK    1  A    between atoms: C5_13  and  O2_2 
REMARK    2  A    between atoms: C9_17  and  O2_2 
REMARK    3  A    between atoms: C6_14  and  O3_3 
REMARK    4  A    between atoms: C20_28  and  O5_5 
REMARK    5  A    between atoms: C8_16  and  O5_5 
ROOT
HETATM    1  O1  UNK     1       6.623   4.537   9.864  1.00  0.00    -0.272 OA
HETATM    2  O6  UNK     1       7.659   4.542   7.827  1.00  0.00    -0.257 OA
HETATM    3  C1  UNK     1       6.639   6.554  11.221  1.00  0.00     0.004 A 
HETATM    4  C2  UNK     1       6.266   5.226  11.040  1.00  0.00     0.092 A 
HETATM    5  C3  UNK     1       7.402   7.217  10.177  1.00  0.00     0.058 A 
HETATM    6  C4  UNK     1       6.267   7.204  12.400  1.00  0.00     0.054 A 
HETATM    7  C5  UNK     1       7.740   6.561   9.060  1.00  0.00     0.152 A 
HETATM    8  C6  UNK     1       5.533   6.520  13.374  1.00  0.00     0.103 A 
HETATM    9  C7  UNK     1       5.535   4.531  12.002  1.00  0.00     0.078 A 
HETATM   10  C8  UNK     1       5.168   5.187  13.175  1.00  0.00     0.115 A 
HETATM   11  C12 UNK     1       7.353   5.147   8.850  1.00  0.00     0.322 A 
ENDROOT
BRANCH   7  12
HETATM   12  O2  UNK     1       8.462   7.157   8.047  1.00  0.00    -0.304 OA
BRANCH  12  13
HETATM   13  C9  UNK     1       9.783   6.820   7.949  1.00  0.00     0.079 A 
HETATM   14  C13 UNK     1      10.612   6.942   9.060  1.00  0.00     0.075 A 
HETATM   15  C11 UNK     1      11.955   6.593   8.937  1.00  0.00     0.092 A 
HETATM   16  C10 UNK     1      12.484   6.128   7.735  1.00  0.00    -0.002 A 
HETATM   17  O4  UNK     1      12.774   6.726  10.077  1.00  0.00    -0.275 OA
HETATM   18  C15 UNK     1      11.641   6.010   6.627  1.00  0.00     0.017 A 
HETATM   19  C16 UNK     1      13.893   5.782   7.677  1.00  0.00     0.020 A 
HETATM   20  C14 UNK     1      10.292   6.356   6.736  1.00  0.00     0.038 A 
HETATM   21  C17 UNK     1      14.663   5.910   8.762  1.00  0.00     0.083 A 
HETATM   22  C18 UNK     1      14.125   6.401  10.045  1.00  0.00     0.288 A 
HETATM   23  O7  UNK     1      14.843   6.513  11.033  1.00  0.00    -0.260 OA
ENDBRANCH  12  13
ENDBRANCH   7  12
BRANCH   8  24
HETATM   24  O3  UNK     1       5.179   7.169  14.520  1.00  0.00    -0.353 OA
HETATM   25  C19 UNK     1       6.111   8.110  15.045  1.00  0.00     0.210 C 
ENDBRANCH   8  24
BRANCH  10  26
HETATM   26  O5  UNK     1       4.454   4.517  14.122  1.00  0.00    -0.276 OA
BRANCH  26  27
HETATM   27  C20 UNK     1       5.159   3.467  14.735  1.00  0.00     0.260 C 
HETATM   28  O8  UNK     1       6.259   3.557  15.264  1.00  0.00    -0.265 OA
HETATM   29  C21 UNK     1       4.365   2.198  14.647  1.00  0.00     0.126 C 
ENDBRANCH  26  27
ENDBRANCH  10  26
TORSDOF 5
ENDMDL
MODEL 9
REMARK VINA RESULT:      -8.5     23.456     26.160
REMARK  5 active torsions:
REMARK  status: ('A' for Active; 'I' for Inactive)
REMARK    1  A    between atoms: C5_13  and  O2_2 
REMARK    2  A    between atoms: C9_17  and  O2_2 
REMARK    3  A    between atoms: C6_14  and  O3_3 
REMARK    4  A    between atoms: C20_28  and  O5_5 
REMARK    5  A    between atoms: C8_16  and  O5_5 
ROOT
HETATM    1  O1  UNK     1       9.868   5.372   7.862  1.00  0.00    -0.272 OA
HETATM    2  O6  UNK     1       7.625   4.967   7.691  1.00  0.00    -0.257 OA
HETATM    3  C1  UNK     1      10.636   7.436   8.892  1.00  0.00     0.004 A 
HETATM    4  C2  UNK     1      10.914   6.220   8.275  1.00  0.00     0.092 A 
HETATM    5  C3  UNK     1       9.249   7.814   9.104  1.00  0.00     0.058 A 
HETATM    6  C4  UNK     1      11.700   8.249   9.288  1.00  0.00     0.054 A 
HETATM    7  C5  UNK     1       8.255   7.008   8.711  1.00  0.00     0.152 A 
HETATM    8  C6  UNK     1      13.017   7.838   9.061  1.00  0.00     0.103 A 
HETATM    9  C7  UNK     1      12.221   5.797   8.042  1.00  0.00     0.078 A 
HETATM   10  C8  UNK     1      13.276   6.615   8.439  1.00  0.00     0.115 A 
HETATM   11  C12 UNK     1       8.531   5.711   8.051  1.00  0.00     0.322 A 
ENDROOT
BRANCH   7  12
HETATM   12  O2  UNK     1       6.928   7.332   8.895  1.00  0.00    -0.304 OA
BRANCH  12  13
HETATM   13  C9  UNK     1       6.439   7.233  10.167  1.00  0.00     0.079 A 
HETATM   14  C13 UNK     1       6.668   6.079  10.909  1.00  0.00     0.075 A 
HETATM   15  C11 UNK     1       6.160   6.001  12.204  1.00  0.00     0.092 A 
HETATM   16  C10 UNK     1       5.431   7.044  12.769  1.00  0.00    -0.002 A 
HETATM   17  O4  UNK     1       6.407   4.820  12.934  1.00  0.00    -0.275 OA
HETATM   18  C15 UNK     1       5.207   8.198  12.015  1.00  0.00     0.017 A 
HETATM   19  C16 UNK     1       4.931   6.895  14.125  1.00  0.00     0.020 A 
HETATM   20  C14 UNK     1       5.711   8.290  10.714  1.00  0.00     0.038 A 
HETATM   21  C17 UNK     1       5.169   5.774  14.810  1.00  0.00     0.083 A 
HETATM   22  C18 UNK     1       5.938   4.656  14.233  1.00  0.00     0.288 A 
HETATM   23  O7  UNK     1       6.150   3.632  14.874  1.00  0.00    -0.260 OA
ENDBRANCH  12  13
ENDBRANCH   7  12
BRANCH   8  24
HETATM   24  O3  UNK     1      14.044   8.645   9.452  1.00  0.00    -0.353 OA
HETATM   25  C19 UNK     1      14.532   9.582   8.495  1.00  0.00     0.210 C 
ENDBRANCH   8  24
BRANCH  10  26
HETATM   26  O5  UNK     1      14.558   6.211   8.215  1.00  0.00    -0.276 OA
BRANCH  26  27
HETATM   27  C20 UNK     1      15.145   5.540   9.301  1.00  0.00     0.260 C 
HETATM   28  O8  UNK     1      14.696   4.545   9.854  1.00  0.00    -0.265 OA
HETATM   29  C21 UNK     1      16.420   6.223   9.697  1.00  0.00     0.126 C 
ENDBRANCH  26  27
ENDBRANCH  10  26
TORSDOF 5
ENDMDL
MODEL 10
REMARK VINA RESULT:      -8.5     10.488     14.203
REMARK  5 active torsions:
REMARK  status: ('A' for Active; 'I' for Inactive)
REMARK    1  A    between atoms: C5_13  and  O2_2 
REMARK    2  A    between atoms: C9_17  and  O2_2 
REMARK    3  A    between atoms: C6_14  and  O3_3 
REMARK    4  A    between atoms: C20_28  and  O5_5 
REMARK    5  A    between atoms: C8_16  and  O5_5 
ROOT
HETATM    1  O1  UNK     1      23.483 -10.424  36.173  1.00  0.00    -0.272 OA
HETATM    2  O6  UNK     1      25.524 -11.442  36.023  1.00  0.00    -0.257 OA
HETATM    3  C1  UNK     1      23.234  -8.438  37.553  1.00  0.00     0.004 A 
HETATM    4  C2  UNK     1      22.685  -9.389  36.698  1.00  0.00     0.092 A 
HETATM    5  C3  UNK     1      24.643  -8.533  37.894  1.00  0.00     0.058 A 
HETATM    6  C4  UNK     1      22.411  -7.426  38.053  1.00  0.00     0.054 A 
HETATM    7  C5  UNK     1      25.401  -9.517  37.395  1.00  0.00     0.152 A 
HETATM    8  C6  UNK     1      21.061  -7.381  37.693  1.00  0.00     0.103 A 
HETATM    9  C7  UNK     1      21.340  -9.357  36.331  1.00  0.00     0.078 A 
HETATM   10  C8  UNK     1      20.527  -8.344  36.834  1.00  0.00     0.115 A 
HETATM   11  C12 UNK     1      24.834 -10.538  36.485  1.00  0.00     0.322 A 
ENDROOT
BRANCH   7  12
HETATM   12  O2  UNK     1      26.741  -9.638  37.695  1.00  0.00    -0.304 OA
BRANCH  12  13
HETATM   13  C9  UNK     1      27.520  -8.533  37.499  1.00  0.00     0.079 A 
HETATM   14  C13 UNK     1      27.674  -7.604  38.524  1.00  0.00     0.075 A 
HETATM   15  C11 UNK     1      28.474  -6.485  38.301  1.00  0.00     0.092 A 
HETATM   16  C10 UNK     1      29.118  -6.276  37.085  1.00  0.00    -0.002 A 
HETATM   17  O4  UNK     1      28.613  -5.560  39.356  1.00  0.00    -0.275 OA
HETATM   18  C15 UNK     1      28.956  -7.215  36.064  1.00  0.00     0.017 A 
HETATM   19  C16 UNK     1      29.936  -5.087  36.921  1.00  0.00     0.020 A 
HETATM   20  C14 UNK     1      28.157  -8.343  36.273  1.00  0.00     0.038 A 
HETATM   21  C17 UNK     1      30.064  -4.215  37.925  1.00  0.00     0.083 A 
HETATM   22  C18 UNK     1      29.391  -4.415  39.222  1.00  0.00     0.288 A 
HETATM   23  O7  UNK     1      29.517  -3.606  40.135  1.00  0.00    -0.260 OA
ENDBRANCH  12  13
ENDBRANCH   7  12
BRANCH   8  24
HETATM   24  O3  UNK     1      20.272  -6.386  38.191  1.00  0.00    -0.353 OA
HETATM   25  C19 UNK     1      20.638  -5.047  37.870  1.00  0.00     0.210 C 
ENDBRANCH   8  24
BRANCH  10  26
HETATM   26  O5  UNK     1      19.212  -8.304  36.482  1.00  0.00    -0.276 OA
BRANCH  26  27
HETATM   27  C20 UNK     1      18.937  -7.465  35.390  1.00  0.00     0.260 C 
HETATM   28  O8  UNK     1      19.769  -6.886  34.704  1.00  0.00    -0.265 OA
HETATM   29  C21 UNK     1      17.455  -7.372  35.176  1.00  0.00     0.126 C 
ENDBRANCH  26  27
ENDBRANCH  10  26
TORSDOF 5
ENDMDL
