MODEL 1
REMARK VINA RESULT:      -8.9      0.000      0.000
REMARK  6 active torsions:
REMARK  status: ('A' for Active; 'I' for Inactive)
REMARK    1  A    between atoms: C2_11  and  N1_6 
REMARK    2  A    between atoms: C3_12  and  N2_7 
REMARK       I    between atoms: C6_15  and  N2_7 
REMARK    3  A    between atoms: C14_23  and  N4_9 
REMARK    4  A    between atoms: C1_10  and  C2_11 
REMARK    5  A    between atoms: C1_10  and  C3_12 
REMARK    6  A    between atoms: C4_13  and  C6_15 
ROOT
HETATM    1  O1  UNK     1      20.769  -2.677  30.810  1.00  0.00    -0.274 OA
HETATM    2  O3  UNK     1      21.368  -4.066  32.521  1.00  0.00    -0.259 OA
HETATM    3  C4  UNK     1      20.333  -2.021  33.125  1.00  0.00     0.108 A 
HETATM    4  C5  UNK     1      19.698  -0.551  31.306  1.00  0.00     0.001 A 
HETATM    5  C7  UNK     1      19.784  -0.869  32.724  1.00  0.00     0.037 A 
HETATM    6  C8  UNK     1      20.193  -1.465  30.382  1.00  0.00     0.089 A 
HETATM    7  C11 UNK     1      19.135   0.640  30.843  1.00  0.00     0.050 A 
HETATM    8  C12 UNK     1      20.866  -3.008  32.159  1.00  0.00     0.304 A 
HETATM    9  C13 UNK     1      20.140  -1.221  29.010  1.00  0.00     0.041 A 
HETATM   10  C14 UNK     1      19.075   0.898  29.470  1.00  0.00     0.103 A 
HETATM   11  C15 UNK     1      19.576  -0.031  28.557  1.00  0.00     0.039 A 
ENDROOT
BRANCH   3  12
HETATM   12  C6  UNK     1      20.373  -2.251  34.574  1.00  0.00     0.257 C 
HETATM   13  O2  UNK     1      21.444  -2.330  35.171  1.00  0.00    -0.267 OA
HETATM   14  N2  UNK     1      19.114  -2.363  35.137  1.00  0.00    -0.357 N 
HETATM   15  H7  UNK     1      18.285  -2.257  34.560  1.00  0.00     0.162 HD
BRANCH  14  16
HETATM   16  C3  UNK     1      18.899  -2.593  36.547  1.00  0.00     0.124 C 
BRANCH  16  17
HETATM   17  C1  UNK     1      17.708  -1.809  37.087  1.00  0.00     0.040 C 
BRANCH  17  18
HETATM   18  C2  UNK     1      18.023  -0.324  37.271  1.00  0.00     0.131 C 
BRANCH  18  19
HETATM   19  N1  UNK     1      17.846   0.432  36.034  1.00  0.00    -0.350 N 
HETATM   20  C10 UNK     1      16.825   0.278  35.154  1.00  0.00     0.209 A 
HETATM   21  N3  UNK     1      16.945   1.103  34.138  1.00  0.00    -0.255 NA
HETATM   22  C16 UNK     1      18.095   1.807  34.392  1.00  0.00     0.135 A 
HETATM   23  C9  UNK     1      18.673   1.402  35.574  1.00  0.00     0.111 A 
ENDBRANCH  18  19
ENDBRANCH  17  18
ENDBRANCH  16  17
ENDBRANCH  14  16
ENDBRANCH   3  12
BRANCH  10  24
HETATM   24  N4  UNK     1      18.501   2.110  29.004  1.00  0.00    -0.116 N 
HETATM   25  O4  UNK     1      18.660   3.156  29.677  1.00  0.00    -0.532 OA
HETATM   26  O5  UNK     1      17.849   2.100  27.932  1.00  0.00    -0.532 OA
ENDBRANCH  10  24
TORSDOF 6
ENDMDL
MODEL 2
REMARK VINA RESULT:      -8.7      3.761      6.605
REMARK  6 active torsions:
REMARK  status: ('A' for Active; 'I' for Inactive)
REMARK    1  A    between atoms: C2_11  and  N1_6 
REMARK    2  A    between atoms: C3_12  and  N2_7 
REMARK       I    between atoms: C6_15  and  N2_7 
REMARK    3  A    between atoms: C14_23  and  N4_9 
REMARK    4  A    between atoms: C1_10  and  C2_11 
REMARK    5  A    between atoms: C1_10  and  C3_12 
REMARK    6  A    between atoms: C4_13  and  C6_15 
ROOT
HETATM    1  O1  UNK     1      19.025   0.634  28.683  1.00  0.00    -0.274 OA
HETATM    2  O3  UNK     1      18.119   2.681  28.223  1.00  0.00    -0.259 OA
HETATM    3  C4  UNK     1      18.739   2.274  30.475  1.00  0.00     0.108 A 
HETATM    4  C5  UNK     1      19.699   0.103  30.957  1.00  0.00     0.001 A 
HETATM    5  C7  UNK     1      19.259   1.426  31.370  1.00  0.00     0.037 A 
HETATM    6  C8  UNK     1      19.572  -0.262  29.621  1.00  0.00     0.089 A 
HETATM    7  C11 UNK     1      20.246  -0.814  31.858  1.00  0.00     0.050 A 
HETATM    8  C12 UNK     1      18.593   1.907  29.048  1.00  0.00     0.304 A 
HETATM    9  C13 UNK     1      19.976  -1.515  29.161  1.00  0.00     0.041 A 
HETATM   10  C14 UNK     1      20.655  -2.075  31.410  1.00  0.00     0.103 A 
HETATM   11  C15 UNK     1      20.521  -2.423  30.065  1.00  0.00     0.039 A 
ENDROOT
BRANCH   3  12
HETATM   12  C6  UNK     1      18.324   3.585  30.988  1.00  0.00     0.257 C 
HETATM   13  O2  UNK     1      17.367   3.690  31.751  1.00  0.00    -0.267 OA
HETATM   14  N2  UNK     1      19.111   4.621  30.516  1.00  0.00    -0.357 N 
HETATM   15  H7  UNK     1      19.898   4.427  29.905  1.00  0.00     0.162 HD
BRANCH  14  16
HETATM   16  C3  UNK     1      18.895   6.003  30.879  1.00  0.00     0.124 C 
BRANCH  16  17
HETATM   17  C1  UNK     1      19.842   6.467  31.980  1.00  0.00     0.040 C 
BRANCH  17  18
HETATM   18  C2  UNK     1      19.291   6.189  33.379  1.00  0.00     0.131 C 
BRANCH  18  19
HETATM   19  N1  UNK     1      18.278   7.165  33.773  1.00  0.00    -0.350 N 
HETATM   20  C10 UNK     1      18.397   8.512  33.671  1.00  0.00     0.209 A 
HETATM   21  N3  UNK     1      17.317   9.119  34.108  1.00  0.00    -0.255 NA
HETATM   22  C16 UNK     1      16.481   8.105  34.502  1.00  0.00     0.135 A 
HETATM   23  C9  UNK     1      17.064   6.875  34.300  1.00  0.00     0.111 A 
ENDBRANCH  18  19
ENDBRANCH  17  18
ENDBRANCH  16  17
ENDBRANCH  14  16
ENDBRANCH   3  12
BRANCH  10  24
HETATM   24  N4  UNK     1      21.212  -3.003  32.329  1.00  0.00    -0.116 N 
HETATM   25  O4  UNK     1      21.413  -4.184  31.953  1.00  0.00    -0.532 OA
HETATM   26  O5  UNK     1      21.488  -2.619  33.491  1.00  0.00    -0.532 OA
ENDBRANCH  10  24
TORSDOF 6
ENDMDL
MODEL 3
REMARK VINA RESULT:      -8.5     13.848     17.306
REMARK  6 active torsions:
REMARK  status: ('A' for Active; 'I' for Inactive)
REMARK    1  A    between atoms: C2_11  and  N1_6 
REMARK    2  A    between atoms: C3_12  and  N2_7 
REMARK       I    between atoms: C6_15  and  N2_7 
REMARK    3  A    between atoms: C14_23  and  N4_9 
REMARK    4  A    between atoms: C1_10  and  C2_11 
REMARK    5  A    between atoms: C1_10  and  C3_12 
REMARK    6  A    between atoms: C4_13  and  C6_15 
ROOT
HETATM    1  O1  UNK     1      19.343   0.878  14.979  1.00  0.00    -0.274 OA
HETATM    2  O3  UNK     1      19.375  -0.638  13.270  1.00  0.00    -0.259 OA
HETATM    3  C4  UNK     1      18.963  -1.493  15.442  1.00  0.00     0.108 A 
HETATM    4  C5  UNK     1      18.929   0.117  17.251  1.00  0.00     0.001 A 
HETATM    5  C7  UNK     1      18.815  -1.243  16.748  1.00  0.00     0.037 A 
HETATM    6  C8  UNK     1      19.190   1.147  16.354  1.00  0.00     0.089 A 
HETATM    7  C11 UNK     1      18.785   0.424  18.607  1.00  0.00     0.050 A 
HETATM    8  C12 UNK     1      19.241  -0.414  14.468  1.00  0.00     0.304 A 
HETATM    9  C13 UNK     1      19.310   2.472  16.771  1.00  0.00     0.041 A 
HETATM   10  C14 UNK     1      18.903   1.748  19.040  1.00  0.00     0.103 A 
HETATM   11  C15 UNK     1      19.164   2.769  18.124  1.00  0.00     0.039 A 
ENDROOT
BRANCH   3  12
HETATM   12  C6  UNK     1      18.830  -2.897  15.031  1.00  0.00     0.257 C 
HETATM   13  O2  UNK     1      17.803  -3.302  14.492  1.00  0.00    -0.267 OA
HETATM   14  N2  UNK     1      19.952  -3.652  15.324  1.00  0.00    -0.357 N 
HETATM   15  H7  UNK     1      20.764  -3.216  15.751  1.00  0.00     0.162 HD
BRANCH  14  16
HETATM   16  C3  UNK     1      20.057  -5.059  15.017  1.00  0.00     0.124 C 
BRANCH  16  17
HETATM   17  C1  UNK     1      19.115  -5.908  15.864  1.00  0.00     0.040 C 
BRANCH  17  18
HETATM   18  C2  UNK     1      18.042  -6.603  15.024  1.00  0.00     0.131 C 
BRANCH  18  19
HETATM   19  N1  UNK     1      16.727  -6.541  15.656  1.00  0.00    -0.350 N 
HETATM   20  C10 UNK     1      15.599  -7.135  15.193  1.00  0.00     0.209 A 
HETATM   21  N3  UNK     1      14.576  -6.895  15.983  1.00  0.00    -0.255 NA
HETATM   22  C16 UNK     1      15.087  -6.114  16.988  1.00  0.00     0.135 A 
HETATM   23  C9  UNK     1      16.430  -5.882  16.803  1.00  0.00     0.111 A 
ENDBRANCH  18  19
ENDBRANCH  17  18
ENDBRANCH  16  17
ENDBRANCH  14  16
ENDBRANCH   3  12
BRANCH  10  24
HETATM   24  N4  UNK     1      18.753   2.056  20.418  1.00  0.00    -0.116 N 
HETATM   25  O4  UNK     1      19.759   2.432  21.069  1.00  0.00    -0.532 OA
HETATM   26  O5  UNK     1      17.621   1.943  20.948  1.00  0.00    -0.532 OA
ENDBRANCH  10  24
TORSDOF 6
ENDMDL
MODEL 4
REMARK VINA RESULT:      -8.5      2.696      4.533
REMARK  6 active torsions:
REMARK  status: ('A' for Active; 'I' for Inactive)
REMARK    1  A    between atoms: C2_11  and  N1_6 
REMARK    2  A    between atoms: C3_12  and  N2_7 
REMARK       I    between atoms: C6_15  and  N2_7 
REMARK    3  A    between atoms: C14_23  and  N4_9 
REMARK    4  A    between atoms: C1_10  and  C2_11 
REMARK    5  A    between atoms: C1_10  and  C3_12 
REMARK    6  A    between atoms: C4_13  and  C6_15 
ROOT
HETATM    1  O1  UNK     1      20.765  -2.809  30.755  1.00  0.00    -0.274 OA
HETATM    2  O3  UNK     1      21.434  -4.228  32.416  1.00  0.00    -0.259 OA
HETATM    3  C4  UNK     1      20.545  -2.139  33.096  1.00  0.00     0.108 A 
HETATM    4  C5  UNK     1      19.836  -0.638  31.332  1.00  0.00     0.001 A 
HETATM    5  C7  UNK     1      20.020  -0.961  32.738  1.00  0.00     0.037 A 
HETATM    6  C8  UNK     1      20.213  -1.571  30.372  1.00  0.00     0.089 A 
HETATM    7  C11 UNK     1      19.294   0.579  30.913  1.00  0.00     0.050 A 
HETATM    8  C12 UNK     1      20.954  -3.147  32.093  1.00  0.00     0.304 A 
HETATM    9  C13 UNK     1      20.063  -1.323  29.008  1.00  0.00     0.041 A 
HETATM   10  C14 UNK     1      19.137   0.842  29.548  1.00  0.00     0.103 A 
HETATM   11  C15 UNK     1      19.521  -0.107  28.599  1.00  0.00     0.039 A 
ENDROOT
BRANCH   3  12
HETATM   12  C6  UNK     1      20.690  -2.373  34.539  1.00  0.00     0.257 C 
HETATM   13  O2  UNK     1      21.707  -2.026  35.135  1.00  0.00    -0.267 OA
HETATM   14  N2  UNK     1      19.591  -3.003  35.095  1.00  0.00    -0.357 N 
HETATM   15  H7  UNK     1      18.786  -3.227  34.519  1.00  0.00     0.162 HD
BRANCH  14  16
HETATM   16  C3  UNK     1      19.502  -3.340  36.496  1.00  0.00     0.124 C 
BRANCH  16  17
HETATM   17  C1  UNK     1      20.054  -4.730  36.794  1.00  0.00     0.040 C 
BRANCH  17  18
HETATM   18  C2  UNK     1      19.336  -5.824  36.002  1.00  0.00     0.131 C 
BRANCH  18  19
HETATM   19  N1  UNK     1      20.223  -6.940  35.685  1.00  0.00    -0.350 N 
HETATM   20  C10 UNK     1      20.463  -7.430  34.442  1.00  0.00     0.209 A 
HETATM   21  N3  UNK     1      21.306  -8.437  34.483  1.00  0.00    -0.255 NA
HETATM   22  C16 UNK     1      21.609  -8.587  35.813  1.00  0.00     0.135 A 
HETATM   23  C9  UNK     1      20.942  -7.660  36.580  1.00  0.00     0.111 A 
ENDBRANCH  18  19
ENDBRANCH  17  18
ENDBRANCH  16  17
ENDBRANCH  14  16
ENDBRANCH   3  12
BRANCH  10  24
HETATM   24  N4  UNK     1      18.584   2.080  29.126  1.00  0.00    -0.116 N 
HETATM   25  O4  UNK     1      17.951   2.124  28.043  1.00  0.00    -0.532 OA
HETATM   26  O5  UNK     1      18.743   3.094  29.847  1.00  0.00    -0.532 OA
ENDBRANCH  10  24
TORSDOF 6
ENDMDL
MODEL 5
REMARK VINA RESULT:      -8.2     14.007     18.361
REMARK  6 active torsions:
REMARK  status: ('A' for Active; 'I' for Inactive)
REMARK    1  A    between atoms: C2_11  and  N1_6 
REMARK    2  A    between atoms: C3_12  and  N2_7 
REMARK       I    between atoms: C6_15  and  N2_7 
REMARK    3  A    between atoms: C14_23  and  N4_9 
REMARK    4  A    between atoms: C1_10  and  C2_11 
REMARK    5  A    between atoms: C1_10  and  C3_12 
REMARK    6  A    between atoms: C4_13  and  C6_15 
ROOT
HETATM    1  O1  UNK     1      19.349   0.646  14.870  1.00  0.00    -0.274 OA
HETATM    2  O3  UNK     1      19.340  -0.936  13.223  1.00  0.00    -0.259 OA
HETATM    3  C4  UNK     1      18.879  -1.689  15.422  1.00  0.00     0.108 A 
HETATM    4  C5  UNK     1      18.888  -0.007  17.166  1.00  0.00     0.001 A 
HETATM    5  C7  UNK     1      18.729  -1.382  16.716  1.00  0.00     0.037 A 
HETATM    6  C8  UNK     1      19.194   0.976  16.231  1.00  0.00     0.089 A 
HETATM    7  C11 UNK     1      18.743   0.358  18.506  1.00  0.00     0.050 A 
HETATM    8  C12 UNK     1      19.204  -0.660  14.409  1.00  0.00     0.304 A 
HETATM    9  C13 UNK     1      19.359   2.311  16.597  1.00  0.00     0.041 A 
HETATM   10  C14 UNK     1      18.906   1.694  18.888  1.00  0.00     0.103 A 
HETATM   11  C15 UNK     1      19.212   2.667  17.935  1.00  0.00     0.039 A 
ENDROOT
BRANCH   3  12
HETATM   12  C6  UNK     1      18.698  -3.102  15.066  1.00  0.00     0.257 C 
HETATM   13  O2  UNK     1      17.838  -3.445  14.258  1.00  0.00    -0.267 OA
HETATM   14  N2  UNK     1      19.576  -3.941  15.731  1.00  0.00    -0.357 N 
HETATM   15  H7  UNK     1      20.270  -3.556  16.364  1.00  0.00     0.162 HD
BRANCH  14  16
HETATM   16  C3  UNK     1      19.588  -5.373  15.547  1.00  0.00     0.124 C 
BRANCH  16  17
HETATM   17  C1  UNK     1      20.846  -5.855  14.833  1.00  0.00     0.040 C 
BRANCH  17  18
HETATM   18  C2  UNK     1      20.528  -6.653  13.567  1.00  0.00     0.131 C 
BRANCH  18  19
HETATM   19  N1  UNK     1      19.841  -5.840  12.566  1.00  0.00    -0.350 N 
HETATM   20  C10 UNK     1      18.635  -6.122  12.012  1.00  0.00     0.209 A 
HETATM   21  N3  UNK     1      18.284  -5.200  11.144  1.00  0.00    -0.255 NA
HETATM   22  C16 UNK     1      19.318  -4.299  11.152  1.00  0.00     0.135 A 
HETATM   23  C9  UNK     1      20.301  -4.681  12.036  1.00  0.00     0.111 A 
ENDBRANCH  18  19
ENDBRANCH  17  18
ENDBRANCH  16  17
ENDBRANCH  14  16
ENDBRANCH   3  12
BRANCH  10  24
HETATM   24  N4  UNK     1      18.756   2.062  20.251  1.00  0.00    -0.116 N 
HETATM   25  O4  UNK     1      19.709   2.634  20.834  1.00  0.00    -0.532 OA
HETATM   26  O5  UNK     1      17.676   1.803  20.836  1.00  0.00    -0.532 OA
ENDBRANCH  10  24
TORSDOF 6
ENDMDL
MODEL 6
REMARK VINA RESULT:      -8.1     14.382     19.043
REMARK  6 active torsions:
REMARK  status: ('A' for Active; 'I' for Inactive)
REMARK    1  A    between atoms: C2_11  and  N1_6 
REMARK    2  A    between atoms: C3_12  and  N2_7 
REMARK       I    between atoms: C6_15  and  N2_7 
REMARK    3  A    between atoms: C14_23  and  N4_9 
REMARK    4  A    between atoms: C1_10  and  C2_11 
REMARK    5  A    between atoms: C1_10  and  C3_12 
REMARK    6  A    between atoms: C4_13  and  C6_15 
ROOT
HETATM    1  O1  UNK     1      19.293   0.770  14.982  1.00  0.00    -0.274 OA
HETATM    2  O3  UNK     1      19.261  -0.798  13.321  1.00  0.00    -0.259 OA
HETATM    3  C4  UNK     1      18.876  -1.578  15.526  1.00  0.00     0.108 A 
HETATM    4  C5  UNK     1      18.911   0.088  17.284  1.00  0.00     0.001 A 
HETATM    5  C7  UNK     1      18.761  -1.285  16.826  1.00  0.00     0.037 A 
HETATM    6  C8  UNK     1      19.174   1.084  16.350  1.00  0.00     0.089 A 
HETATM    7  C11 UNK     1      18.800   0.440  18.632  1.00  0.00     0.050 A 
HETATM    8  C12 UNK     1      19.156  -0.535  14.513  1.00  0.00     0.304 A 
HETATM    9  C13 UNK     1      19.328   2.419  16.723  1.00  0.00     0.041 A 
HETATM   10  C14 UNK     1      18.953   1.774  19.021  1.00  0.00     0.103 A 
HETATM   11  C15 UNK     1      19.215   2.761  18.069  1.00  0.00     0.039 A 
ENDROOT
BRANCH   3  12
HETATM   12  C6  UNK     1      18.708  -2.990  15.162  1.00  0.00     0.257 C 
HETATM   13  O2  UNK     1      17.732  -3.629  15.547  1.00  0.00    -0.267 OA
HETATM   14  N2  UNK     1      19.742  -3.471  14.377  1.00  0.00    -0.357 N 
HETATM   15  H7  UNK     1      20.495  -2.854  14.091  1.00  0.00     0.162 HD
BRANCH  14  16
HETATM   16  C3  UNK     1      19.799  -4.832  13.897  1.00  0.00     0.124 C 
BRANCH  16  17
HETATM   17  C1  UNK     1      20.155  -4.910  12.417  1.00  0.00     0.040 C 
BRANCH  17  18
HETATM   18  C2  UNK     1      19.407  -3.871  11.582  1.00  0.00     0.131 C 
BRANCH  18  19
HETATM   19  N1  UNK     1      20.240  -3.324  10.513  1.00  0.00    -0.350 N 
HETATM   20  C10 UNK     1      20.991  -2.198  10.595  1.00  0.00     0.209 A 
HETATM   21  N3  UNK     1      21.628  -1.968   9.468  1.00  0.00    -0.255 NA
HETATM   22  C16 UNK     1      21.258  -2.999   8.641  1.00  0.00     0.135 A 
HETATM   23  C9  UNK     1      20.391  -3.857   9.276  1.00  0.00     0.111 A 
ENDBRANCH  18  19
ENDBRANCH  17  18
ENDBRANCH  16  17
ENDBRANCH  14  16
ENDBRANCH   3  12
BRANCH  10  24
HETATM   24  N4  UNK     1      18.837   2.127  20.391  1.00  0.00    -0.116 N 
HETATM   25  O4  UNK     1      19.857   2.531  21.002  1.00  0.00    -0.532 OA
HETATM   26  O5  UNK     1      17.721   2.025  20.954  1.00  0.00    -0.532 OA
ENDBRANCH  10  24
TORSDOF 6
ENDMDL
MODEL 7
REMARK VINA RESULT:      -8.0      5.305      8.583
REMARK  6 active torsions:
REMARK  status: ('A' for Active; 'I' for Inactive)
REMARK    1  A    between atoms: C2_11  and  N1_6 
REMARK    2  A    between atoms: C3_12  and  N2_7 
REMARK       I    between atoms: C6_15  and  N2_7 
REMARK    3  A    between atoms: C14_23  and  N4_9 
REMARK    4  A    between atoms: C1_10  and  C2_11 
REMARK    5  A    between atoms: C1_10  and  C3_12 
REMARK    6  A    between atoms: C4_13  and  C6_15 
ROOT
HETATM    1  O1  UNK     1      18.624  -8.151  36.871  1.00  0.00    -0.274 OA
HETATM    2  O3  UNK     1      17.450  -6.192  36.932  1.00  0.00    -0.259 OA
HETATM    3  C4  UNK     1      19.729  -6.047  36.297  1.00  0.00     0.108 A 
HETATM    4  C5  UNK     1      20.969  -8.127  36.233  1.00  0.00     0.001 A 
HETATM    5  C7  UNK     1      20.883  -6.684  36.066  1.00  0.00     0.037 A 
HETATM    6  C8  UNK     1      19.836  -8.827  36.632  1.00  0.00     0.089 A 
HETATM    7  C11 UNK     1      22.153  -8.832  36.005  1.00  0.00     0.050 A 
HETATM    8  C12 UNK     1      18.510  -6.771  36.722  1.00  0.00     0.304 A 
HETATM    9  C13 UNK     1      19.852 -10.210  36.808  1.00  0.00     0.041 A 
HETATM   10  C14 UNK     1      22.185 -10.220  36.179  1.00  0.00     0.103 A 
HETATM   11  C15 UNK     1      21.037 -10.906  36.579  1.00  0.00     0.039 A 
ENDROOT
BRANCH   3  12
HETATM   12  C6  UNK     1      19.742  -4.592  36.101  1.00  0.00     0.257 C 
HETATM   13  O2  UNK     1      20.140  -4.100  35.048  1.00  0.00    -0.267 OA
HETATM   14  N2  UNK     1      19.275  -3.896  37.203  1.00  0.00    -0.357 N 
HETATM   15  H7  UNK     1      18.943  -4.398  38.021  1.00  0.00     0.162 HD
BRANCH  14  16
HETATM   16  C3  UNK     1      19.195  -2.455  37.249  1.00  0.00     0.124 C 
BRANCH  16  17
HETATM   17  C1  UNK     1      17.804  -1.940  36.899  1.00  0.00     0.040 C 
BRANCH  17  18
HETATM   18  C2  UNK     1      17.647  -0.445  37.181  1.00  0.00     0.131 C 
BRANCH  18  19
HETATM   19  N1  UNK     1      17.699   0.351  35.957  1.00  0.00    -0.350 N 
HETATM   20  C10 UNK     1      16.851   0.238  34.904  1.00  0.00     0.209 A 
HETATM   21  N3  UNK     1      17.157   1.093  33.954  1.00  0.00    -0.255 NA
HETATM   22  C16 UNK     1      18.247   1.774  34.433  1.00  0.00     0.135 A 
HETATM   23  C9  UNK     1      18.602   1.325  35.685  1.00  0.00     0.111 A 
ENDBRANCH  18  19
ENDBRANCH  17  18
ENDBRANCH  16  17
ENDBRANCH  14  16
ENDBRANCH   3  12
BRANCH  10  24
HETATM   24  N4  UNK     1      23.389 -10.934  35.945  1.00  0.00    -0.116 N 
HETATM   25  O4  UNK     1      24.469 -10.460  36.375  1.00  0.00    -0.532 OA
HETATM   26  O5  UNK     1      23.342 -12.017  35.315  1.00  0.00    -0.532 OA
ENDBRANCH  10  24
TORSDOF 6
ENDMDL
MODEL 8
REMARK VINA RESULT:      -8.0      4.612      7.805
REMARK  6 active torsions:
REMARK  status: ('A' for Active; 'I' for Inactive)
REMARK    1  A    between atoms: C2_11  and  N1_6 
REMARK    2  A    between atoms: C3_12  and  N2_7 
REMARK       I    between atoms: C6_15  and  N2_7 
REMARK    3  A    between atoms: C14_23  and  N4_9 
REMARK    4  A    between atoms: C1_10  and  C2_11 
REMARK    5  A    between atoms: C1_10  and  C3_12 
REMARK    6  A    between atoms: C4_13  and  C6_15 
ROOT
HETATM    1  O1  UNK     1      18.294   1.380  32.380  1.00  0.00    -0.274 OA
HETATM    2  O3  UNK     1      18.359   3.005  30.776  1.00  0.00    -0.259 OA
HETATM    3  C4  UNK     1      18.264   3.738  33.028  1.00  0.00     0.108 A 
HETATM    4  C5  UNK     1      18.196   2.012  34.726  1.00  0.00     0.001 A 
HETATM    5  C7  UNK     1      18.212   3.410  34.324  1.00  0.00     0.037 A 
HETATM    6  C8  UNK     1      18.238   1.029  33.743  1.00  0.00     0.089 A 
HETATM    7  C11 UNK     1      18.140   1.623  36.067  1.00  0.00     0.050 A 
HETATM    8  C12 UNK     1      18.309   2.709  31.965  1.00  0.00     0.304 A 
HETATM    9  C13 UNK     1      18.227  -0.329  34.062  1.00  0.00     0.041 A 
HETATM   10  C14 UNK     1      18.128   0.265  36.402  1.00  0.00     0.103 A 
HETATM   11  C15 UNK     1      18.171  -0.707  35.401  1.00  0.00     0.039 A 
ENDROOT
BRANCH   3  12
HETATM   12  C6  UNK     1      18.276   5.174  32.723  1.00  0.00     0.257 C 
HETATM   13  O2  UNK     1      17.411   5.675  32.009  1.00  0.00    -0.267 OA
HETATM   14  N2  UNK     1      19.336   5.841  33.312  1.00  0.00    -0.357 N 
HETATM   15  H7  UNK     1      19.987   5.339  33.908  1.00  0.00     0.162 HD
BRANCH  14  16
HETATM   16  C3  UNK     1      19.560   7.259  33.154  1.00  0.00     0.124 C 
BRANCH  16  17
HETATM   17  C1  UNK     1      18.871   8.079  34.240  1.00  0.00     0.040 C 
BRANCH  17  18
HETATM   18  C2  UNK     1      17.888   9.099  33.664  1.00  0.00     0.131 C 
BRANCH  18  19
HETATM   19  N1  UNK     1      16.540   8.551  33.541  1.00  0.00    -0.350 N 
HETATM   20  C10 UNK     1      15.689   8.770  32.507  1.00  0.00     0.209 A 
HETATM   21  N3  UNK     1      14.550   8.141  32.687  1.00  0.00    -0.255 NA
HETATM   22  C16 UNK     1      14.692   7.497  33.890  1.00  0.00     0.135 A 
HETATM   23  C9  UNK     1      15.930   7.741  34.440  1.00  0.00     0.111 A 
ENDBRANCH  18  19
ENDBRANCH  17  18
ENDBRANCH  16  17
ENDBRANCH  14  16
ENDBRANCH   3  12
BRANCH  10  24
HETATM   24  N4  UNK     1      18.073  -0.125  37.766  1.00  0.00    -0.116 N 
HETATM   25  O4  UNK     1      18.175  -1.342  38.054  1.00  0.00    -0.532 OA
HETATM   26  O5  UNK     1      17.922   0.757  38.645  1.00  0.00    -0.532 OA
ENDBRANCH  10  24
TORSDOF 6
ENDMDL
MODEL 9
REMARK VINA RESULT:      -7.9      5.202      8.175
REMARK  6 active torsions:
REMARK  status: ('A' for Active; 'I' for Inactive)
REMARK    1  A    between atoms: C2_11  and  N1_6 
REMARK    2  A    between atoms: C3_12  and  N2_7 
REMARK       I    between atoms: C6_15  and  N2_7 
REMARK    3  A    between atoms: C14_23  and  N4_9 
REMARK    4  A    between atoms: C1_10  and  C2_11 
REMARK    5  A    between atoms: C1_10  and  C3_12 
REMARK    6  A    between atoms: C4_13  and  C6_15 
ROOT
HETATM    1  O1  UNK     1      18.329   1.385  32.358  1.00  0.00    -0.274 OA
HETATM    2  O3  UNK     1      18.390   2.977  30.721  1.00  0.00    -0.259 OA
HETATM    3  C4  UNK     1      18.244   3.755  32.955  1.00  0.00     0.108 A 
HETATM    4  C5  UNK     1      18.181   2.064  34.688  1.00  0.00     0.001 A 
HETATM    5  C7  UNK     1      18.177   3.453  34.257  1.00  0.00     0.037 A 
HETATM    6  C8  UNK     1      18.258   1.061  33.727  1.00  0.00     0.089 A 
HETATM    7  C11 UNK     1      18.110   1.703  36.036  1.00  0.00     0.050 A 
HETATM    8  C12 UNK     1      18.326   2.706  31.915  1.00  0.00     0.304 A 
HETATM    9  C13 UNK     1      18.267  -0.289  34.075  1.00  0.00     0.041 A 
HETATM   10  C14 UNK     1      18.118   0.352  36.399  1.00  0.00     0.103 A 
HETATM   11  C15 UNK     1      18.197  -0.640  35.421  1.00  0.00     0.039 A 
ENDROOT
BRANCH   3  12
HETATM   12  C6  UNK     1      18.234   5.185  32.620  1.00  0.00     0.257 C 
HETATM   13  O2  UNK     1      19.267   5.849  32.659  1.00  0.00    -0.267 OA
HETATM   14  N2  UNK     1      16.976   5.649  32.280  1.00  0.00    -0.357 N 
HETATM   15  H7  UNK     1      16.186   5.012  32.254  1.00  0.00     0.162 HD
BRANCH  14  16
HETATM   16  C3  UNK     1      16.715   7.022  31.914  1.00  0.00     0.124 C 
BRANCH  16  17
HETATM   17  C1  UNK     1      15.689   7.680  32.830  1.00  0.00     0.040 C 
BRANCH  17  18
HETATM   18  C2  UNK     1      16.289   8.100  34.172  1.00  0.00     0.131 C 
BRANCH  18  19
HETATM   19  N1  UNK     1      16.925   9.414  34.101  1.00  0.00    -0.350 N 
HETATM   20  C10 UNK     1      18.235   9.644  33.834  1.00  0.00     0.209 A 
HETATM   21  N3  UNK     1      18.502  10.931  33.839  1.00  0.00    -0.255 NA
HETATM   22  C16 UNK     1      17.303  11.536  34.124  1.00  0.00     0.135 A 
HETATM   23  C9  UNK     1      16.305  10.604  34.290  1.00  0.00     0.111 A 
ENDBRANCH  18  19
ENDBRANCH  17  18
ENDBRANCH  16  17
ENDBRANCH  14  16
ENDBRANCH   3  12
BRANCH  10  24
HETATM   24  N4  UNK     1      18.048  -0.011  37.770  1.00  0.00    -0.116 N 
HETATM   25  O4  UNK     1      18.073  -1.227  38.079  1.00  0.00    -0.532 OA
HETATM   26  O5  UNK     1      17.961   0.894  38.635  1.00  0.00    -0.532 OA
ENDBRANCH  10  24
TORSDOF 6
ENDMDL
MODEL 10
REMARK VINA RESULT:      -7.9      4.156      7.068
REMARK  6 active torsions:
REMARK  status: ('A' for Active; 'I' for Inactive)
REMARK    1  A    between atoms: C2_11  and  N1_6 
REMARK    2  A    between atoms: C3_12  and  N2_7 
REMARK       I    between atoms: C6_15  and  N2_7 
REMARK    3  A    between atoms: C14_23  and  N4_9 
REMARK    4  A    between atoms: C1_10  and  C2_11 
REMARK    5  A    between atoms: C1_10  and  C3_12 
REMARK    6  A    between atoms: C4_13  and  C6_15 
ROOT
HETATM    1  O1  UNK     1      19.208  -0.383  32.230  1.00  0.00    -0.274 OA
HETATM    2  O3  UNK     1      19.648   0.147  30.052  1.00  0.00    -0.259 OA
HETATM    3  C4  UNK     1      18.744   1.871  31.402  1.00  0.00     0.108 A 
HETATM    4  C5  UNK     1      18.279   1.305  33.712  1.00  0.00     0.001 A 
HETATM    5  C7  UNK     1      18.296   2.250  32.605  1.00  0.00     0.037 A 
HETATM    6  C8  UNK     1      18.737   0.010  33.498  1.00  0.00     0.089 A 
HETATM    7  C11 UNK     1      17.819   1.657  34.983  1.00  0.00     0.050 A 
HETATM    8  C12 UNK     1      19.236   0.498  31.151  1.00  0.00     0.304 A 
HETATM    9  C13 UNK     1      18.749  -0.942  34.516  1.00  0.00     0.041 A 
HETATM   10  C14 UNK     1      17.824   0.712  36.015  1.00  0.00     0.103 A 
HETATM   11  C15 UNK     1      18.288  -0.583  35.781  1.00  0.00     0.039 A 
ENDROOT
BRANCH   3  12
HETATM   12  C6  UNK     1      18.721   2.895  30.350  1.00  0.00     0.257 C 
HETATM   13  O2  UNK     1      18.214   2.663  29.256  1.00  0.00    -0.267 OA
HETATM   14  N2  UNK     1      19.319   4.080  30.740  1.00  0.00    -0.357 N 
HETATM   15  H7  UNK     1      19.690   4.181  31.680  1.00  0.00     0.162 HD
BRANCH  14  16
HETATM   16  C3  UNK     1      19.421   5.233  29.875  1.00  0.00     0.124 C 
BRANCH  16  17
HETATM   17  C1  UNK     1      18.626   6.423  30.400  1.00  0.00     0.040 C 
BRANCH  17  18
HETATM   18  C2  UNK     1      18.053   6.172  31.796  1.00  0.00     0.131 C 
BRANCH  18  19
HETATM   19  N1  UNK     1      18.505   7.171  32.761  1.00  0.00    -0.350 N 
HETATM   20  C10 UNK     1      17.838   8.305  33.095  1.00  0.00     0.209 A 
HETATM   21  N3  UNK     1      18.502   9.000  33.991  1.00  0.00    -0.255 NA
HETATM   22  C16 UNK     1      19.638   8.269  34.230  1.00  0.00     0.135 A 
HETATM   23  C9  UNK     1      19.658   7.121  33.471  1.00  0.00     0.111 A 
ENDBRANCH  18  19
ENDBRANCH  17  18
ENDBRANCH  16  17
ENDBRANCH  14  16
ENDBRANCH   3  12
BRANCH  10  24
HETATM   24  N4  UNK     1      17.357   1.074  37.306  1.00  0.00    -0.116 N 
HETATM   25  O4  UNK     1      17.957   0.630  38.315  1.00  0.00    -0.532 OA
HETATM   26  O5  UNK     1      16.357   1.826  37.402  1.00  0.00    -0.532 OA
ENDBRANCH  10  24
TORSDOF 6
ENDMDL
