MODEL 1
REMARK VINA RESULT:      -9.4      0.000      0.000
REMARK  2 active torsions:
REMARK  status: ('A' for Active; 'I' for Inactive)
REMARK       I    between atoms: C6_11  and  N1_5 
REMARK    1  A    between atoms: C9_14  and  N1_5 
REMARK    2  A    between atoms: C2_7  and  C6_11 
ROOT
HETATM    1  O1  UNK     1      19.511   6.651  31.704  1.00  0.00    -0.274 OA
HETATM    2  O3  UNK     1      20.093   5.154  30.080  1.00  0.00    -0.259 OA
HETATM    3  C1  UNK     1      17.802   6.056  33.329  1.00  0.00    -0.001 A 
HETATM    4  C2  UNK     1      18.417   4.466  31.607  1.00  0.00     0.108 A 
HETATM    5  C3  UNK     1      18.723   6.970  32.828  1.00  0.00     0.089 A 
HETATM    6  C4  UNK     1      17.666   4.763  32.674  1.00  0.00     0.037 A 
HETATM    7  C5  UNK     1      17.038   6.409  34.444  1.00  0.00     0.014 A 
HETATM    8  C7  UNK     1      19.403   5.423  31.057  1.00  0.00     0.304 A 
HETATM    9  C8  UNK     1      18.900   8.225  33.407  1.00  0.00     0.038 A 
HETATM   10  C10 UNK     1      17.206   7.664  35.036  1.00  0.00     0.001 A 
HETATM   11  C11 UNK     1      18.135   8.570  34.520  1.00  0.00     0.003 A 
ENDROOT
BRANCH   4  12
HETATM   12  C6  UNK     1      18.208   3.138  31.017  1.00  0.00     0.262 C 
HETATM   13  O2  UNK     1      17.068   2.692  30.917  1.00  0.00    -0.267 OA
HETATM   14  N1  UNK     1      19.405   2.548  30.636  1.00  0.00    -0.320 N 
HETATM   15  H4  UNK     1      20.274   3.061  30.766  1.00  0.00     0.169 HD
BRANCH  14  16
HETATM   16  C9  UNK     1      19.552   1.289  30.043  1.00  0.00     0.073 A 
HETATM   17  C12 UNK     1      18.953   1.023  28.815  1.00  0.00     0.143 A 
HETATM   18  F1  UNK     1      18.233   1.964  28.187  1.00  0.00    -0.204 F 
HETATM   19  C14 UNK     1      19.101  -0.233  28.227  1.00  0.00     0.044 A 
HETATM   20  C16 UNK     1      19.847  -1.221  28.869  1.00  0.00     0.003 A 
HETATM   21  C15 UNK     1      20.447  -0.951  30.101  1.00  0.00     0.002 A 
HETATM   22  C13 UNK     1      20.298   0.305  30.688  1.00  0.00     0.033 A 
ENDBRANCH  14  16
ENDBRANCH   4  12
TORSDOF 2
ENDMDL
MODEL 2
REMARK VINA RESULT:      -9.3      2.253      7.254
REMARK  2 active torsions:
REMARK  status: ('A' for Active; 'I' for Inactive)
REMARK       I    between atoms: C6_11  and  N1_5 
REMARK    1  A    between atoms: C9_14  and  N1_5 
REMARK    2  A    between atoms: C2_7  and  C6_11 
ROOT
HETATM    1  O1  UNK     1      19.053   1.656  28.764  1.00  0.00    -0.274 OA
HETATM    2  O3  UNK     1      18.273   3.792  28.976  1.00  0.00    -0.259 OA
HETATM    3  C1  UNK     1      19.530   0.348  30.759  1.00  0.00    -0.001 A 
HETATM    4  C2  UNK     1      18.704   2.614  30.986  1.00  0.00     0.108 A 
HETATM    5  C3  UNK     1      19.488   0.461  29.372  1.00  0.00     0.089 A 
HETATM    6  C4  UNK     1      19.116   1.483  31.570  1.00  0.00     0.037 A 
HETATM    7  C5  UNK     1      19.968  -0.852  31.324  1.00  0.00     0.014 A 
HETATM    8  C7  UNK     1      18.651   2.757  29.515  1.00  0.00     0.304 A 
HETATM    9  C8  UNK     1      19.872  -0.587  28.538  1.00  0.00     0.038 A 
HETATM   10  C10 UNK     1      20.355  -1.912  30.500  1.00  0.00     0.001 A 
HETATM   11  C11 UNK     1      20.307  -1.780  29.111  1.00  0.00     0.003 A 
ENDROOT
BRANCH   4  12
HETATM   12  C6  UNK     1      18.306   3.701  31.890  1.00  0.00     0.262 C 
HETATM   13  O2  UNK     1      17.605   3.451  32.868  1.00  0.00    -0.267 OA
HETATM   14  N1  UNK     1      18.814   4.926  31.479  1.00  0.00    -0.320 N 
HETATM   15  H4  UNK     1      19.402   4.965  30.651  1.00  0.00     0.169 HD
BRANCH  14  16
HETATM   16  C9  UNK     1      18.622   6.155  32.119  1.00  0.00     0.073 A 
HETATM   17  C12 UNK     1      19.618   6.677  32.939  1.00  0.00     0.143 A 
HETATM   18  F1  UNK     1      20.768   6.014  33.125  1.00  0.00    -0.204 F 
HETATM   19  C14 UNK     1      19.423   7.903  33.576  1.00  0.00     0.044 A 
HETATM   20  C16 UNK     1      18.231   8.602  33.392  1.00  0.00     0.003 A 
HETATM   21  C15 UNK     1      17.233   8.077  32.569  1.00  0.00     0.002 A 
HETATM   22  C13 UNK     1      17.430   6.852  31.933  1.00  0.00     0.033 A 
ENDBRANCH  14  16
ENDBRANCH   4  12
TORSDOF 2
ENDMDL
MODEL 3
REMARK VINA RESULT:      -9.3      8.220      9.461
REMARK  2 active torsions:
REMARK  status: ('A' for Active; 'I' for Inactive)
REMARK       I    between atoms: C6_11  and  N1_5 
REMARK    1  A    between atoms: C9_14  and  N1_5 
REMARK    2  A    between atoms: C2_7  and  C6_11 
ROOT
HETATM    1  O1  UNK     1      19.509  -1.016  34.732  1.00  0.00    -0.274 OA
HETATM    2  O3  UNK     1      20.587  -2.941  34.142  1.00  0.00    -0.259 OA
HETATM    3  C1  UNK     1      18.476  -0.842  36.927  1.00  0.00    -0.001 A 
HETATM    4  C2  UNK     1      19.618  -2.886  36.304  1.00  0.00     0.108 A 
HETATM    5  C3  UNK     1      18.780  -0.283  35.690  1.00  0.00     0.089 A 
HETATM    6  C4  UNK     1      18.926  -2.195  37.217  1.00  0.00     0.037 A 
HETATM    7  C5  UNK     1      17.750  -0.085  37.850  1.00  0.00     0.014 A 
HETATM    8  C7  UNK     1      19.953  -2.312  34.982  1.00  0.00     0.304 A 
HETATM    9  C8  UNK     1      18.378   1.007  35.349  1.00  0.00     0.038 A 
HETATM   10  C10 UNK     1      17.341   1.211  37.522  1.00  0.00     0.001 A 
HETATM   11  C11 UNK     1      17.655   1.755  36.275  1.00  0.00     0.003 A 
ENDROOT
BRANCH   4  12
HETATM   12  C6  UNK     1      20.028  -4.242  36.691  1.00  0.00     0.262 C 
HETATM   13  O2  UNK     1      21.213  -4.476  36.916  1.00  0.00    -0.267 OA
HETATM   14  N1  UNK     1      18.947  -5.111  36.749  1.00  0.00    -0.320 N 
HETATM   15  H4  UNK     1      18.015  -4.756  36.554  1.00  0.00     0.169 HD
BRANCH  14  16
HETATM   16  C9  UNK     1      18.997  -6.468  37.087  1.00  0.00     0.073 A 
HETATM   17  C12 UNK     1      18.691  -7.435  36.133  1.00  0.00     0.143 A 
HETATM   18  F1  UNK     1      18.346  -7.081  34.886  1.00  0.00    -0.204 F 
HETATM   19  C14 UNK     1      18.741  -8.786  36.472  1.00  0.00     0.044 A 
HETATM   20  C16 UNK     1      19.097  -9.168  37.765  1.00  0.00     0.003 A 
HETATM   21  C15 UNK     1      19.405  -8.197  38.720  1.00  0.00     0.002 A 
HETATM   22  C13 UNK     1      19.354  -6.846  38.379  1.00  0.00     0.033 A 
ENDBRANCH  14  16
ENDBRANCH   4  12
TORSDOF 2
ENDMDL
MODEL 4
REMARK VINA RESULT:      -9.1      2.294      7.451
REMARK  2 active torsions:
REMARK  status: ('A' for Active; 'I' for Inactive)
REMARK       I    between atoms: C6_11  and  N1_5 
REMARK    1  A    between atoms: C9_14  and  N1_5 
REMARK    2  A    between atoms: C2_7  and  C6_11 
ROOT
HETATM    1  O1  UNK     1      18.790   0.313  32.871  1.00  0.00    -0.274 OA
HETATM    2  O3  UNK     1      17.947   1.928  34.248  1.00  0.00    -0.259 OA
HETATM    3  C1  UNK     1      19.352   0.869  30.571  1.00  0.00    -0.001 A 
HETATM    4  C2  UNK     1      18.458   2.585  32.030  1.00  0.00     0.108 A 
HETATM    5  C3  UNK     1      19.277  -0.061  31.602  1.00  0.00     0.089 A 
HETATM    6  C4  UNK     1      18.920   2.236  30.824  1.00  0.00     0.037 A 
HETATM    7  C5  UNK     1      19.840   0.460  29.327  1.00  0.00     0.014 A 
HETATM    8  C7  UNK     1      18.370   1.612  33.141  1.00  0.00     0.304 A 
HETATM    9  C8  UNK     1      19.674  -1.386  31.426  1.00  0.00     0.038 A 
HETATM   10  C10 UNK     1      20.242  -0.865  29.136  1.00  0.00     0.001 A 
HETATM   11  C11 UNK     1      20.160  -1.785  30.183  1.00  0.00     0.003 A 
ENDROOT
BRANCH   4  12
HETATM   12  C6  UNK     1      18.048   3.986  32.186  1.00  0.00     0.262 C 
HETATM   13  O2  UNK     1      17.210   4.461  31.422  1.00  0.00    -0.267 OA
HETATM   14  N1  UNK     1      18.707   4.602  33.240  1.00  0.00    -0.320 N 
HETATM   15  H4  UNK     1      19.363   4.062  33.797  1.00  0.00     0.169 HD
BRANCH  14  16
HETATM   16  C9  UNK     1      18.542   5.929  33.652  1.00  0.00     0.073 A 
HETATM   17  C12 UNK     1      19.597   6.831  33.537  1.00  0.00     0.143 A 
HETATM   18  F1  UNK     1      20.777   6.442  33.033  1.00  0.00    -0.204 F 
HETATM   19  C14 UNK     1      19.431   8.153  33.950  1.00  0.00     0.044 A 
HETATM   20  C16 UNK     1      18.209   8.570  34.478  1.00  0.00     0.003 A 
HETATM   21  C15 UNK     1      17.152   7.664  34.592  1.00  0.00     0.002 A 
HETATM   22  C13 UNK     1      17.321   6.343  34.179  1.00  0.00     0.033 A 
ENDBRANCH  14  16
ENDBRANCH   4  12
TORSDOF 2
ENDMDL
MODEL 5
REMARK VINA RESULT:      -9.1      8.633      9.917
REMARK  2 active torsions:
REMARK  status: ('A' for Active; 'I' for Inactive)
REMARK       I    between atoms: C6_11  and  N1_5 
REMARK    1  A    between atoms: C9_14  and  N1_5 
REMARK    2  A    between atoms: C2_7  and  C6_11 
ROOT
HETATM    1  O1  UNK     1      19.725  -1.075  34.822  1.00  0.00    -0.274 OA
HETATM    2  O3  UNK     1      20.778  -2.958  34.072  1.00  0.00    -0.259 OA
HETATM    3  C1  UNK     1      18.522  -1.133  36.935  1.00  0.00    -0.001 A 
HETATM    4  C2  UNK     1      19.638  -3.132  36.141  1.00  0.00     0.108 A 
HETATM    5  C3  UNK     1      18.946  -0.437  35.808  1.00  0.00     0.089 A 
HETATM    6  C4  UNK     1      18.898  -2.532  37.080  1.00  0.00     0.037 A 
HETATM    7  C5  UNK     1      17.749  -0.467  37.889  1.00  0.00     0.014 A 
HETATM    8  C7  UNK     1      20.100  -2.411  34.935  1.00  0.00     0.304 A 
HETATM    9  C8  UNK     1      18.619   0.903  35.607  1.00  0.00     0.038 A 
HETATM   10  C10 UNK     1      17.415   0.878  37.702  1.00  0.00     0.001 A 
HETATM   11  C11 UNK     1      17.849   1.561  36.564  1.00  0.00     0.003 A 
ENDROOT
BRANCH   4  12
HETATM   12  C6  UNK     1      19.966  -4.543  36.379  1.00  0.00     0.262 C 
HETATM   13  O2  UNK     1      20.132  -5.296  35.422  1.00  0.00    -0.267 OA
HETATM   14  N1  UNK     1      20.045  -4.834  37.734  1.00  0.00    -0.320 N 
HETATM   15  H4  UNK     1      19.901  -4.088  38.410  1.00  0.00     0.169 HD
BRANCH  14  16
HETATM   16  C9  UNK     1      20.340  -6.082  38.294  1.00  0.00     0.073 A 
HETATM   17  C12 UNK     1      19.365  -7.076  38.332  1.00  0.00     0.143 A 
HETATM   18  F1  UNK     1      18.140  -6.851  37.837  1.00  0.00    -0.204 F 
HETATM   19  C14 UNK     1      19.661  -8.318  38.892  1.00  0.00     0.044 A 
HETATM   20  C16 UNK     1      20.931  -8.565  39.412  1.00  0.00     0.003 A 
HETATM   21  C15 UNK     1      21.907  -7.567  39.372  1.00  0.00     0.002 A 
HETATM   22  C13 UNK     1      21.609  -6.325  38.813  1.00  0.00     0.033 A 
ENDBRANCH  14  16
ENDBRANCH   4  12
TORSDOF 2
ENDMDL
MODEL 6
REMARK VINA RESULT:      -8.9      9.184     12.418
REMARK  2 active torsions:
REMARK  status: ('A' for Active; 'I' for Inactive)
REMARK       I    between atoms: C6_11  and  N1_5 
REMARK    1  A    between atoms: C9_14  and  N1_5 
REMARK    2  A    between atoms: C2_7  and  C6_11 
ROOT
HETATM    1  O1  UNK     1      20.067  -7.639  35.720  1.00  0.00    -0.274 OA
HETATM    2  O3  UNK     1      20.196  -5.629  34.643  1.00  0.00    -0.259 OA
HETATM    3  C1  UNK     1      19.892  -7.694  38.145  1.00  0.00    -0.001 A 
HETATM    4  C2  UNK     1      20.029  -5.560  37.006  1.00  0.00     0.108 A 
HETATM    5  C3  UNK     1      19.961  -8.360  36.926  1.00  0.00     0.089 A 
HETATM    6  C4  UNK     1      19.929  -6.239  38.154  1.00  0.00     0.037 A 
HETATM    7  C5  UNK     1      19.789  -8.443  39.320  1.00  0.00     0.014 A 
HETATM    8  C7  UNK     1      20.104  -6.248  35.698  1.00  0.00     0.304 A 
HETATM    9  C8  UNK     1      19.932  -9.752  36.848  1.00  0.00     0.038 A 
HETATM   10  C10 UNK     1      19.758  -9.839  39.257  1.00  0.00     0.001 A 
HETATM   11  C11 UNK     1      19.829 -10.492  38.024  1.00  0.00     0.003 A 
ENDROOT
BRANCH   4  12
HETATM   12  C6  UNK     1      20.058  -4.096  37.119  1.00  0.00     0.262 C 
HETATM   13  O2  UNK     1      21.044  -3.545  37.604  1.00  0.00    -0.267 OA
HETATM   14  N1  UNK     1      18.896  -3.518  36.629  1.00  0.00    -0.320 N 
HETATM   15  H4  UNK     1      18.173  -4.114  36.236  1.00  0.00     0.169 HD
BRANCH  14  16
HETATM   16  C9  UNK     1      18.609  -2.149  36.590  1.00  0.00     0.073 A 
HETATM   17  C12 UNK     1      18.944  -1.398  35.466  1.00  0.00     0.143 A 
HETATM   18  F1  UNK     1      19.541  -1.973  34.413  1.00  0.00    -0.204 F 
HETATM   19  C14 UNK     1      18.658  -0.033  35.431  1.00  0.00     0.044 A 
HETATM   20  C16 UNK     1      18.038   0.578  36.520  1.00  0.00     0.003 A 
HETATM   21  C15 UNK     1      17.703  -0.177  37.646  1.00  0.00     0.002 A 
HETATM   22  C13 UNK     1      17.989  -1.541  37.680  1.00  0.00     0.033 A 
ENDBRANCH  14  16
ENDBRANCH   4  12
TORSDOF 2
ENDMDL
MODEL 7
REMARK VINA RESULT:      -8.9      1.826      2.275
REMARK  2 active torsions:
REMARK  status: ('A' for Active; 'I' for Inactive)
REMARK       I    between atoms: C6_11  and  N1_5 
REMARK    1  A    between atoms: C9_14  and  N1_5 
REMARK    2  A    between atoms: C2_7  and  C6_11 
ROOT
HETATM    1  O1  UNK     1      17.388   5.783  34.164  1.00  0.00    -0.274 OA
HETATM    2  O3  UNK     1      18.668   3.913  33.878  1.00  0.00    -0.259 OA
HETATM    3  C1  UNK     1      16.714   7.086  32.224  1.00  0.00    -0.001 A 
HETATM    4  C2  UNK     1      18.072   5.103  31.917  1.00  0.00     0.108 A 
HETATM    5  C3  UNK     1      16.710   6.882  33.600  1.00  0.00     0.089 A 
HETATM    6  C4  UNK     1      17.430   6.144  31.376  1.00  0.00     0.037 A 
HETATM    7  C5  UNK     1      16.031   8.187  31.703  1.00  0.00     0.014 A 
HETATM    8  C7  UNK     1      18.081   4.866  33.378  1.00  0.00     0.304 A 
HETATM    9  C8  UNK     1      16.045   7.746  34.468  1.00  0.00     0.038 A 
HETATM   10  C10 UNK     1      15.359   9.062  32.561  1.00  0.00     0.001 A 
HETATM   11  C11 UNK     1      15.366   8.842  33.940  1.00  0.00     0.003 A 
ENDROOT
BRANCH   4  12
HETATM   12  C6  UNK     1      18.764   4.209  30.980  1.00  0.00     0.262 C 
HETATM   13  O2  UNK     1      19.579   4.676  30.187  1.00  0.00    -0.267 OA
HETATM   14  N1  UNK     1      18.371   2.888  31.140  1.00  0.00    -0.320 N 
HETATM   15  H4  UNK     1      17.695   2.657  31.863  1.00  0.00     0.169 HD
BRANCH  14  16
HETATM   16  C9  UNK     1      18.840   1.793  30.406  1.00  0.00     0.073 A 
HETATM   17  C12 UNK     1      18.417   1.602  29.093  1.00  0.00     0.143 A 
HETATM   18  F1  UNK     1      17.561   2.459  28.519  1.00  0.00    -0.204 F 
HETATM   19  C14 UNK     1      18.886   0.509  28.364  1.00  0.00     0.044 A 
HETATM   20  C16 UNK     1      19.777  -0.390  28.949  1.00  0.00     0.003 A 
HETATM   21  C15 UNK     1      20.199  -0.196  30.266  1.00  0.00     0.002 A 
HETATM   22  C13 UNK     1      19.730   0.897  30.994  1.00  0.00     0.033 A 
ENDBRANCH  14  16
ENDBRANCH   4  12
TORSDOF 2
ENDMDL
MODEL 8
REMARK VINA RESULT:      -8.8      2.026      2.623
REMARK  2 active torsions:
REMARK  status: ('A' for Active; 'I' for Inactive)
REMARK       I    between atoms: C6_11  and  N1_5 
REMARK    1  A    between atoms: C9_14  and  N1_5 
REMARK    2  A    between atoms: C2_7  and  C6_11 
ROOT
HETATM    1  O1  UNK     1      18.050   4.442  34.190  1.00  0.00    -0.274 OA
HETATM    2  O3  UNK     1      18.390   2.192  33.989  1.00  0.00    -0.259 OA
HETATM    3  C1  UNK     1      17.771   5.798  32.191  1.00  0.00    -0.001 A 
HETATM    4  C2  UNK     1      18.132   3.413  31.974  1.00  0.00     0.108 A 
HETATM    5  C3  UNK     1      17.835   5.692  33.577  1.00  0.00     0.089 A 
HETATM    6  C4  UNK     1      17.928   4.596  31.386  1.00  0.00     0.037 A 
HETATM    7  C5  UNK     1      17.558   7.055  31.620  1.00  0.00     0.014 A 
HETATM    8  C7  UNK     1      18.204   3.276  33.446  1.00  0.00     0.304 A 
HETATM    9  C8  UNK     1      17.694   6.804  34.405  1.00  0.00     0.038 A 
HETATM   10  C10 UNK     1      17.414   8.179  32.438  1.00  0.00     0.001 A 
HETATM   11  C11 UNK     1      17.481   8.054  33.827  1.00  0.00     0.003 A 
ENDROOT
BRANCH   4  12
HETATM   12  C6  UNK     1      18.277   2.259  31.077  1.00  0.00     0.262 C 
HETATM   13  O2  UNK     1      17.510   2.131  30.125  1.00  0.00    -0.267 OA
HETATM   14  N1  UNK     1      19.327   1.436  31.460  1.00  0.00    -0.320 N 
HETATM   15  H4  UNK     1      19.889   1.693  32.267  1.00  0.00     0.169 HD
BRANCH  14  16
HETATM   16  C9  UNK     1      19.729   0.260  30.818  1.00  0.00     0.073 A 
HETATM   17  C12 UNK     1      19.661  -0.959  31.489  1.00  0.00     0.143 A 
HETATM   18  F1  UNK     1      19.212  -1.021  32.750  1.00  0.00    -0.204 F 
HETATM   19  C14 UNK     1      20.063  -2.129  30.846  1.00  0.00     0.044 A 
HETATM   20  C16 UNK     1      20.534  -2.079  29.534  1.00  0.00     0.003 A 
HETATM   21  C15 UNK     1      20.601  -0.856  28.864  1.00  0.00     0.002 A 
HETATM   22  C13 UNK     1      20.198   0.314  29.507  1.00  0.00     0.033 A 
ENDBRANCH  14  16
ENDBRANCH   4  12
TORSDOF 2
ENDMDL
MODEL 9
REMARK VINA RESULT:      -8.5      4.348      5.454
REMARK  2 active torsions:
REMARK  status: ('A' for Active; 'I' for Inactive)
REMARK       I    between atoms: C6_11  and  N1_5 
REMARK    1  A    between atoms: C9_14  and  N1_5 
REMARK    2  A    between atoms: C2_7  and  C6_11 
ROOT
HETATM    1  O1  UNK     1      19.025   2.540  30.695  1.00  0.00    -0.274 OA
HETATM    2  O3  UNK     1      18.823   0.371  31.384  1.00  0.00    -0.259 OA
HETATM    3  C1  UNK     1      18.338   4.340  32.178  1.00  0.00    -0.001 A 
HETATM    4  C2  UNK     1      18.123   2.041  32.912  1.00  0.00     0.108 A 
HETATM    5  C3  UNK     1      18.861   3.914  30.962  1.00  0.00     0.089 A 
HETATM    6  C4  UNK     1      17.964   3.344  33.171  1.00  0.00     0.037 A 
HETATM    7  C5  UNK     1      18.189   5.711  32.405  1.00  0.00     0.014 A 
HETATM    8  C7  UNK     1      18.677   1.565  31.625  1.00  0.00     0.304 A 
HETATM    9  C8  UNK     1      19.237   4.815  29.967  1.00  0.00     0.038 A 
HETATM   10  C10 UNK     1      18.563   6.627  31.418  1.00  0.00     0.001 A 
HETATM   11  C11 UNK     1      19.086   6.180  30.202  1.00  0.00     0.003 A 
ENDROOT
BRANCH   4  12
HETATM   12  C6  UNK     1      17.718   1.115  33.977  1.00  0.00     0.262 C 
HETATM   13  O2  UNK     1      16.526   0.860  34.138  1.00  0.00    -0.267 OA
HETATM   14  N1  UNK     1      18.810   0.634  34.686  1.00  0.00    -0.320 N 
HETATM   15  H4  UNK     1      19.745   0.926  34.413  1.00  0.00     0.169 HD
BRANCH  14  16
HETATM   16  C9  UNK     1      18.766  -0.264  35.758  1.00  0.00     0.073 A 
HETATM   17  C12 UNK     1      19.353  -1.521  35.638  1.00  0.00     0.143 A 
HETATM   18  F1  UNK     1      19.964  -1.885  34.501  1.00  0.00    -0.204 F 
HETATM   19  C14 UNK     1      19.308  -2.414  36.708  1.00  0.00     0.044 A 
HETATM   20  C16 UNK     1      18.675  -2.049  37.896  1.00  0.00     0.003 A 
HETATM   21  C15 UNK     1      18.087  -0.788  38.013  1.00  0.00     0.002 A 
HETATM   22  C13 UNK     1      18.133   0.104  36.943  1.00  0.00     0.033 A 
ENDBRANCH  14  16
ENDBRANCH   4  12
TORSDOF 2
ENDMDL
MODEL 10
REMARK VINA RESULT:      -8.4     13.778     16.618
REMARK  2 active torsions:
REMARK  status: ('A' for Active; 'I' for Inactive)
REMARK       I    between atoms: C6_11  and  N1_5 
REMARK    1  A    between atoms: C9_14  and  N1_5 
REMARK    2  A    between atoms: C2_7  and  C6_11 
ROOT
HETATM    1  O1  UNK     1      19.346   1.166  15.545  1.00  0.00    -0.274 OA
HETATM    2  O3  UNK     1      19.421  -0.355  13.842  1.00  0.00    -0.259 OA
HETATM    3  C1  UNK     1      18.904   0.407  17.813  1.00  0.00    -0.001 A 
HETATM    4  C2  UNK     1      18.983  -1.207  16.009  1.00  0.00     0.108 A 
HETATM    5  C3  UNK     1      19.170   1.437  16.916  1.00  0.00     0.089 A 
HETATM    6  C4  UNK     1      18.814  -0.956  17.312  1.00  0.00     0.037 A 
HETATM    7  C5  UNK     1      18.734   0.717  19.164  1.00  0.00     0.014 A 
HETATM    8  C7  UNK     1      19.266  -0.128  15.037  1.00  0.00     0.304 A 
HETATM    9  C8  UNK     1      19.267   2.765  17.330  1.00  0.00     0.038 A 
HETATM   10  C10 UNK     1      18.830   2.043  19.595  1.00  0.00     0.001 A 
HETATM   11  C11 UNK     1      19.097   3.064  18.680  1.00  0.00     0.003 A 
ENDROOT
BRANCH   4  12
HETATM   12  C6  UNK     1      18.873  -2.614  15.601  1.00  0.00     0.262 C 
HETATM   13  O2  UNK     1      17.816  -3.216  15.776  1.00  0.00    -0.267 OA
HETATM   14  N1  UNK     1      20.054  -3.083  15.042  1.00  0.00    -0.320 N 
HETATM   15  H4  UNK     1      20.843  -2.448  14.946  1.00  0.00     0.169 HD
BRANCH  14  16
HETATM   16  C9  UNK     1      20.279  -4.374  14.553  1.00  0.00     0.073 A 
HETATM   17  C12 UNK     1      19.835  -4.725  13.281  1.00  0.00     0.143 A 
HETATM   18  F1  UNK     1      19.190  -3.836  12.513  1.00  0.00    -0.204 F 
HETATM   19  C14 UNK     1      20.060  -6.013  12.797  1.00  0.00     0.044 A 
HETATM   20  C16 UNK     1      20.728  -6.949  13.587  1.00  0.00     0.003 A 
HETATM   21  C15 UNK     1      21.174  -6.595  14.861  1.00  0.00     0.002 A 
HETATM   22  C13 UNK     1      20.948  -5.306  15.344  1.00  0.00     0.033 A 
ENDBRANCH  14  16
ENDBRANCH   4  12
TORSDOF 2
ENDMDL
