MODEL 1
REMARK VINA RESULT:      -8.5      0.000      0.000
REMARK  2 active torsions:
REMARK  status: ('A' for Active; 'I' for Inactive)
REMARK    1  A    between atoms: C11_19  and  N1_4 
REMARK       I    between atoms: C8_16  and  N1_4 
REMARK    2  A    between atoms: C3_11  and  C8_16 
ROOT
HETATM    1  O1  UNK     1      19.415   7.144  32.366  1.00  0.00    -0.274 OA
HETATM    2  O2  UNK     1      20.416   5.430  31.233  1.00  0.00    -0.259 OA
HETATM    3  C1  UNK     1      17.209   6.816  33.335  1.00  0.00    -0.001 A 
HETATM    4  C2  UNK     1      18.310   7.630  33.092  1.00  0.00     0.089 A 
HETATM    5  C3  UNK     1      18.268   4.996  32.136  1.00  0.00     0.109 A 
HETATM    6  C4  UNK     1      17.217   5.453  32.825  1.00  0.00     0.037 A 
HETATM    7  C5  UNK     1      16.134   7.334  34.059  1.00  0.00     0.014 A 
HETATM    8  C6  UNK     1      19.450   5.845  31.865  1.00  0.00     0.304 A 
HETATM    9  C7  UNK     1      18.366   8.944  33.552  1.00  0.00     0.038 A 
HETATM   10  C9  UNK     1      16.175   8.650  34.527  1.00  0.00     0.001 A 
HETATM   11  C10 UNK     1      17.290   9.454  34.274  1.00  0.00     0.003 A 
ENDROOT
BRANCH   5  12
HETATM   12  C8  UNK     1      18.181   3.609  31.663  1.00  0.00     0.276 C 
HETATM   13  O3  UNK     1      17.787   2.728  32.426  1.00  0.00    -0.267 OA
HETATM   14  N1  UNK     1      18.583   3.480  30.340  1.00  0.00    -0.149 N 
HETATM   15  H6  UNK     1      18.907   4.298  29.830  1.00  0.00     0.188 HD
BRANCH  14  16
HETATM   16  C11 UNK     1      18.630   2.298  29.563  1.00  0.00     0.761 A 
HETATM   17  N2  UNK     1      19.303   1.227  29.916  1.00  0.00     0.034 NA
HETATM   18  N4  UNK     1      19.003   0.463  28.856  1.00  0.00    -0.185 N 
HETATM   19  H7  UNK     1      19.355  -0.484  28.759  1.00  0.00     0.208 HD
HETATM   20  N5  UNK     1      18.212   1.022  27.931  1.00  0.00     0.037 NA
HETATM   21  N3  UNK     1      17.963   2.240  28.398  1.00  0.00     0.035 NA
ENDBRANCH  14  16
ENDBRANCH   5  12
TORSDOF 2
ENDMDL
MODEL 2
REMARK VINA RESULT:      -8.3      8.487      9.704
REMARK  2 active torsions:
REMARK  status: ('A' for Active; 'I' for Inactive)
REMARK    1  A    between atoms: C11_19  and  N1_4 
REMARK       I    between atoms: C8_16  and  N1_4 
REMARK    2  A    between atoms: C3_11  and  C8_16 
ROOT
HETATM    1  O1  UNK     1      19.590  -0.896  34.830  1.00  0.00    -0.274 OA
HETATM    2  O2  UNK     1      20.575  -2.852  34.176  1.00  0.00    -0.259 OA
HETATM    3  C1  UNK     1      18.435  -0.791  36.968  1.00  0.00    -0.001 A 
HETATM    4  C2  UNK     1      18.850  -0.178  35.790  1.00  0.00     0.089 A 
HETATM    5  C3  UNK     1      19.480  -2.865  36.277  1.00  0.00     0.109 A 
HETATM    6  C4  UNK     1      18.778  -2.186  37.192  1.00  0.00     0.037 A 
HETATM    7  C5  UNK     1      17.704  -0.045  37.895  1.00  0.00     0.014 A 
HETATM    8  C6  UNK     1      19.931  -2.233  35.017  1.00  0.00     0.304 A 
HETATM    9  C7  UNK     1      18.555   1.156  35.514  1.00  0.00     0.038 A 
HETATM   10  C9  UNK     1      17.401   1.294  37.632  1.00  0.00     0.001 A 
HETATM   11  C10 UNK     1      17.826   1.893  36.443  1.00  0.00     0.003 A 
ENDROOT
BRANCH   5  12
HETATM   12  C8  UNK     1      19.775  -4.268  36.594  1.00  0.00     0.276 C 
HETATM   13  O3  UNK     1      20.919  -4.596  36.901  1.00  0.00    -0.267 OA
HETATM   14  N1  UNK     1      18.649  -5.075  36.493  1.00  0.00    -0.149 N 
HETATM   15  H6  UNK     1      17.762  -4.669  36.207  1.00  0.00     0.188 HD
BRANCH  14  16
HETATM   16  C11 UNK     1      18.563  -6.469  36.724  1.00  0.00     0.761 A 
HETATM   17  N2  UNK     1      18.591  -7.006  37.922  1.00  0.00     0.034 NA
HETATM   18  N4  UNK     1      18.481  -8.290  37.551  1.00  0.00    -0.185 N 
HETATM   19  H7  UNK     1      18.465  -9.046  38.228  1.00  0.00     0.208 HD
HETATM   20  N5  UNK     1      18.393  -8.517  36.234  1.00  0.00     0.037 NA
HETATM   21  N3  UNK     1      18.448  -7.310  35.683  1.00  0.00     0.035 NA
ENDBRANCH  14  16
ENDBRANCH   5  12
TORSDOF 2
ENDMDL
MODEL 3
REMARK VINA RESULT:      -8.2      1.618      2.004
REMARK  2 active torsions:
REMARK  status: ('A' for Active; 'I' for Inactive)
REMARK    1  A    between atoms: C11_19  and  N1_4 
REMARK       I    between atoms: C8_16  and  N1_4 
REMARK    2  A    between atoms: C3_11  and  C8_16 
ROOT
HETATM    1  O1  UNK     1      19.084   7.953  33.484  1.00  0.00    -0.274 OA
HETATM    2  O2  UNK     1      20.613   6.339  32.956  1.00  0.00    -0.259 OA
HETATM    3  C1  UNK     1      16.915   7.957  32.386  1.00  0.00    -0.001 A 
HETATM    4  C2  UNK     1      17.808   8.519  33.292  1.00  0.00     0.089 A 
HETATM    5  C3  UNK     1      18.532   6.243  31.825  1.00  0.00     0.109 A 
HETATM    6  C4  UNK     1      17.320   6.776  31.640  1.00  0.00     0.037 A 
HETATM    7  C5  UNK     1      15.659   8.547  32.224  1.00  0.00     0.014 A 
HETATM    8  C6  UNK     1      19.499   6.824  32.783  1.00  0.00     0.304 A 
HETATM    9  C7  UNK     1      17.483   9.650  34.038  1.00  0.00     0.038 A 
HETATM   10  C9  UNK     1      15.318   9.681  32.966  1.00  0.00     0.001 A 
HETATM   11  C10 UNK     1      16.228  10.232  33.871  1.00  0.00     0.003 A 
ENDROOT
BRANCH   5  12
HETATM   12  C8  UNK     1      18.848   5.054  31.025  1.00  0.00     0.276 C 
HETATM   13  O3  UNK     1      19.647   5.140  30.094  1.00  0.00    -0.267 OA
HETATM   14  N1  UNK     1      18.155   3.932  31.458  1.00  0.00    -0.149 N 
HETATM   15  H6  UNK     1      17.505   4.010  32.236  1.00  0.00     0.188 HD
BRANCH  14  16
HETATM   16  C11 UNK     1      18.212   2.621  30.924  1.00  0.00     0.761 A 
HETATM   17  N2  UNK     1      17.674   2.286  29.774  1.00  0.00     0.034 NA
HETATM   18  N4  UNK     1      18.019   0.990  29.780  1.00  0.00    -0.185 N 
HETATM   19  H7  UNK     1      17.771   0.365  29.021  1.00  0.00     0.208 HD
HETATM   20  N5  UNK     1      18.712   0.570  30.847  1.00  0.00     0.037 NA
HETATM   21  N3  UNK     1      18.840   1.650  31.607  1.00  0.00     0.035 NA
ENDBRANCH  14  16
ENDBRANCH   5  12
TORSDOF 2
ENDMDL
MODEL 4
REMARK VINA RESULT:      -8.2      3.278      7.171
REMARK  2 active torsions:
REMARK  status: ('A' for Active; 'I' for Inactive)
REMARK    1  A    between atoms: C11_19  and  N1_4 
REMARK       I    between atoms: C8_16  and  N1_4 
REMARK    2  A    between atoms: C3_11  and  C8_16 
ROOT
HETATM    1  O1  UNK     1      19.046   1.508  28.710  1.00  0.00    -0.274 OA
HETATM    2  O2  UNK     1      18.221   3.636  28.829  1.00  0.00    -0.259 OA
HETATM    3  C1  UNK     1      19.535   0.294  30.760  1.00  0.00    -0.001 A 
HETATM    4  C2  UNK     1      19.502   0.350  29.370  1.00  0.00     0.089 A 
HETATM    5  C3  UNK     1      18.659   2.549  30.889  1.00  0.00     0.109 A 
HETATM    6  C4  UNK     1      19.091   1.452  31.520  1.00  0.00     0.037 A 
HETATM    7  C5  UNK     1      19.993  -0.872  31.377  1.00  0.00     0.014 A 
HETATM    8  C6  UNK     1      18.616   2.631  29.412  1.00  0.00     0.304 A 
HETATM    9  C7  UNK     1      19.912  -0.724  28.583  1.00  0.00     0.038 A 
HETATM   10  C9  UNK     1      20.408  -1.958  30.600  1.00  0.00     0.001 A 
HETATM   11  C10 UNK     1      20.368  -1.884  29.206  1.00  0.00     0.003 A 
ENDROOT
BRANCH   5  12
HETATM   12  C8  UNK     1      18.234   3.665  31.743  1.00  0.00     0.276 C 
HETATM   13  O3  UNK     1      17.622   3.436  32.785  1.00  0.00    -0.267 OA
HETATM   14  N1  UNK     1      18.604   4.896  31.219  1.00  0.00    -0.149 N 
HETATM   15  H6  UNK     1      19.094   4.939  30.330  1.00  0.00     0.188 HD
BRANCH  14  16
HETATM   16  C11 UNK     1      18.361   6.178  31.770  1.00  0.00     0.761 A 
HETATM   17  N2  UNK     1      19.061   6.685  32.759  1.00  0.00     0.034 NA
HETATM   18  N4  UNK     1      18.418   7.857  32.859  1.00  0.00    -0.185 N 
HETATM   19  H7  UNK     1      18.682   8.557  33.544  1.00  0.00     0.208 HD
HETATM   20  N5  UNK     1      17.408   8.050  32.001  1.00  0.00     0.037 NA
HETATM   21  N3  UNK     1      17.368   6.937  31.278  1.00  0.00     0.035 NA
ENDBRANCH  14  16
ENDBRANCH   5  12
TORSDOF 2
ENDMDL
MODEL 5
REMARK VINA RESULT:      -8.2      1.589      2.267
REMARK  2 active torsions:
REMARK  status: ('A' for Active; 'I' for Inactive)
REMARK    1  A    between atoms: C11_19  and  N1_4 
REMARK       I    between atoms: C8_16  and  N1_4 
REMARK    2  A    between atoms: C3_11  and  C8_16 
ROOT
HETATM    1  O1  UNK     1      16.932   7.799  32.867  1.00  0.00    -0.274 OA
HETATM    2  O2  UNK     1      15.800   6.005  32.016  1.00  0.00    -0.259 OA
HETATM    3  C1  UNK     1      19.248   7.538  33.559  1.00  0.00    -0.001 A 
HETATM    4  C2  UNK     1      18.120   8.335  33.402  1.00  0.00     0.089 A 
HETATM    5  C3  UNK     1      18.052   5.635  32.656  1.00  0.00     0.109 A 
HETATM    6  C4  UNK     1      19.182   6.140  33.163  1.00  0.00     0.037 A 
HETATM    7  C5  UNK     1      20.407   8.106  34.092  1.00  0.00     0.014 A 
HETATM    8  C6  UNK     1      16.839   6.464  32.480  1.00  0.00     0.304 A 
HETATM    9  C7  UNK     1      18.117   9.681  33.762  1.00  0.00     0.038 A 
HETATM   10  C9  UNK     1      20.419   9.456  34.458  1.00  0.00     0.001 A 
HETATM   11  C10 UNK     1      19.276  10.241  34.293  1.00  0.00     0.003 A 
ENDROOT
BRANCH   5  12
HETATM   12  C8  UNK     1      18.083   4.214  32.287  1.00  0.00     0.276 C 
HETATM   13  O3  UNK     1      18.018   3.355  33.164  1.00  0.00    -0.267 OA
HETATM   14  N1  UNK     1      18.192   4.032  30.915  1.00  0.00    -0.149 N 
HETATM   15  H6  UNK     1      18.258   4.840  30.302  1.00  0.00     0.188 HD
BRANCH  14  16
HETATM   16  C11 UNK     1      18.251   2.806  30.209  1.00  0.00     0.761 A 
HETATM   17  N2  UNK     1      18.353   1.636  30.798  1.00  0.00     0.034 NA
HETATM   18  N4  UNK     1      18.368   0.875  29.694  1.00  0.00    -0.185 N 
HETATM   19  H7  UNK     1      18.440  -0.136  29.740  1.00  0.00     0.208 HD
HETATM   20  N5  UNK     1      18.281   1.526  28.527  1.00  0.00     0.037 NA
HETATM   21  N3  UNK     1      18.204   2.808  28.866  1.00  0.00     0.035 NA
ENDBRANCH  14  16
ENDBRANCH   5  12
TORSDOF 2
ENDMDL
MODEL 6
REMARK VINA RESULT:      -8.2     14.920     17.008
REMARK  2 active torsions:
REMARK  status: ('A' for Active; 'I' for Inactive)
REMARK    1  A    between atoms: C11_19  and  N1_4 
REMARK       I    between atoms: C8_16  and  N1_4 
REMARK    2  A    between atoms: C3_11  and  C8_16 
ROOT
HETATM    1  O1  UNK     1      19.357   1.067  15.489  1.00  0.00    -0.274 OA
HETATM    2  O2  UNK     1      19.423  -0.499  13.825  1.00  0.00    -0.259 OA
HETATM    3  C1  UNK     1      18.884   0.374  17.771  1.00  0.00    -0.001 A 
HETATM    4  C2  UNK     1      19.170   1.377  16.850  1.00  0.00     0.089 A 
HETATM    5  C3  UNK     1      18.956  -1.288  16.010  1.00  0.00     0.109 A 
HETATM    6  C4  UNK     1      18.779  -0.999  17.304  1.00  0.00     0.037 A 
HETATM    7  C5  UNK     1      18.707   0.721  19.112  1.00  0.00     0.014 A 
HETATM    8  C6  UNK     1      19.261  -0.238  15.013  1.00  0.00     0.304 A 
HETATM    9  C7  UNK     1      19.285   2.712  17.231  1.00  0.00     0.038 A 
HETATM   10  C9  UNK     1      18.819   2.056  19.510  1.00  0.00     0.001 A 
HETATM   11  C10 UNK     1      19.107   3.050  18.571  1.00  0.00     0.003 A 
ENDROOT
BRANCH   5  12
HETATM   12  C8  UNK     1      18.829  -2.703  15.637  1.00  0.00     0.276 C 
HETATM   13  O3  UNK     1      17.723  -3.239  15.651  1.00  0.00    -0.267 OA
HETATM   14  N1  UNK     1      20.052  -3.268  15.304  1.00  0.00    -0.149 N 
HETATM   15  H6  UNK     1      20.898  -2.707  15.356  1.00  0.00     0.188 HD
BRANCH  14  16
HETATM   16  C11 UNK     1      20.306  -4.602  14.899  1.00  0.00     0.761 A 
HETATM   17  N2  UNK     1      20.076  -5.645  15.663  1.00  0.00     0.034 NA
HETATM   18  N4  UNK     1      20.483  -6.593  14.807  1.00  0.00    -0.185 N 
HETATM   19  H7  UNK     1      20.458  -7.579  15.046  1.00  0.00     0.208 HD
HETATM   20  N5  UNK     1      20.925  -6.163  13.618  1.00  0.00     0.037 NA
HETATM   21  N3  UNK     1      20.808  -4.842  13.677  1.00  0.00     0.035 NA
ENDBRANCH  14  16
ENDBRANCH   5  12
TORSDOF 2
ENDMDL
MODEL 7
REMARK VINA RESULT:      -8.2     16.131     19.003
REMARK  2 active torsions:
REMARK  status: ('A' for Active; 'I' for Inactive)
REMARK    1  A    between atoms: C11_19  and  N1_4 
REMARK       I    between atoms: C8_16  and  N1_4 
REMARK    2  A    between atoms: C3_11  and  C8_16 
ROOT
HETATM    1  O1  UNK     1      20.933  -4.558  15.834  1.00  0.00    -0.274 OA
HETATM    2  O2  UNK     1      21.218  -2.740  17.190  1.00  0.00    -0.259 OA
HETATM    3  C1  UNK     1      18.921  -4.741  14.480  1.00  0.00    -0.001 A 
HETATM    4  C2  UNK     1      20.144  -5.255  14.898  1.00  0.00     0.089 A 
HETATM    5  C3  UNK     1      19.222  -2.812  15.915  1.00  0.00     0.109 A 
HETATM    6  C4  UNK     1      18.470  -3.470  15.026  1.00  0.00     0.037 A 
HETATM    7  C5  UNK     1      18.169  -5.461  13.550  1.00  0.00     0.014 A 
HETATM    8  C6  UNK     1      20.526  -3.341  16.375  1.00  0.00     0.304 A 
HETATM    9  C7  UNK     1      20.635  -6.466  14.415  1.00  0.00     0.038 A 
HETATM   10  C9  UNK     1      18.648  -6.678  13.055  1.00  0.00     0.001 A 
HETATM   11  C10 UNK     1      19.878  -7.179  13.487  1.00  0.00     0.003 A 
ENDROOT
BRANCH   5  12
HETATM   12  C8  UNK     1      18.680  -1.540  16.409  1.00  0.00     0.276 C 
HETATM   13  O3  UNK     1      17.651  -1.536  17.081  1.00  0.00    -0.267 OA
HETATM   14  N1  UNK     1      19.455  -0.455  16.020  1.00  0.00    -0.149 N 
HETATM   15  H6  UNK     1      20.278  -0.604  15.443  1.00  0.00     0.188 HD
BRANCH  14  16
HETATM   16  C11 UNK     1      19.234   0.913  16.313  1.00  0.00     0.761 A 
HETATM   17  N2  UNK     1      18.876   1.350  17.498  1.00  0.00     0.034 NA
HETATM   18  N4  UNK     1      18.814   2.656  17.202  1.00  0.00    -0.185 N 
HETATM   19  H7  UNK     1      18.559   3.352  17.895  1.00  0.00     0.208 HD
HETATM   20  N5  UNK     1      19.111   2.989  15.939  1.00  0.00     0.037 NA
HETATM   21  N3  UNK     1      19.389   1.834  15.347  1.00  0.00     0.035 NA
ENDBRANCH  14  16
ENDBRANCH   5  12
TORSDOF 2
ENDMDL
MODEL 8
REMARK VINA RESULT:      -8.1     16.297     19.701
REMARK  2 active torsions:
REMARK  status: ('A' for Active; 'I' for Inactive)
REMARK    1  A    between atoms: C11_19  and  N1_4 
REMARK       I    between atoms: C8_16  and  N1_4 
REMARK    2  A    between atoms: C3_11  and  C8_16 
ROOT
HETATM    1  O1  UNK     1      19.412  -3.094  12.322  1.00  0.00    -0.274 OA
HETATM    2  O2  UNK     1      18.677  -0.961  12.688  1.00  0.00    -0.259 OA
HETATM    3  C1  UNK     1      19.909  -4.534  14.218  1.00  0.00    -0.001 A 
HETATM    4  C2  UNK     1      19.840  -4.331  12.843  1.00  0.00     0.089 A 
HETATM    5  C3  UNK     1      19.128  -2.274  14.609  1.00  0.00     0.109 A 
HETATM    6  C4  UNK     1      19.533  -3.447  15.108  1.00  0.00     0.037 A 
HETATM    7  C5  UNK     1      20.337  -5.774  14.696  1.00  0.00     0.014 A 
HETATM    8  C6  UNK     1      19.047  -2.036  13.150  1.00  0.00     0.304 A 
HETATM    9  C7  UNK     1      20.185  -5.330  11.936  1.00  0.00     0.038 A 
HETATM   10  C9  UNK     1      20.686  -6.787  13.798  1.00  0.00     0.001 A 
HETATM   11  C10 UNK     1      20.611  -6.565  12.421  1.00  0.00     0.003 A 
ENDROOT
BRANCH   5  12
HETATM   12  C8  UNK     1      18.772  -1.239  15.587  1.00  0.00     0.276 C 
HETATM   13  O3  UNK     1      18.032  -1.520  16.529  1.00  0.00    -0.267 OA
HETATM   14  N1  UNK     1      19.354  -0.014  15.290  1.00  0.00    -0.149 N 
HETATM   15  H6  UNK     1      19.933   0.080  14.460  1.00  0.00     0.188 HD
BRANCH  14  16
HETATM   16  C11 UNK     1      19.230   1.199  16.010  1.00  0.00     0.761 A 
HETATM   17  N2  UNK     1      19.171   2.378  15.435  1.00  0.00     0.034 NA
HETATM   18  N4  UNK     1      19.064   3.120  16.547  1.00  0.00    -0.185 N 
HETATM   19  H7  UNK     1      18.992   4.131  16.513  1.00  0.00     0.208 HD
HETATM   20  N5  UNK     1      19.058   2.448  17.706  1.00  0.00     0.037 NA
HETATM   21  N3  UNK     1      19.168   1.173  17.352  1.00  0.00     0.035 NA
ENDBRANCH  14  16
ENDBRANCH   5  12
TORSDOF 2
ENDMDL
MODEL 9
REMARK VINA RESULT:      -8.0      3.901      6.406
REMARK  2 active torsions:
REMARK  status: ('A' for Active; 'I' for Inactive)
REMARK    1  A    between atoms: C11_19  and  N1_4 
REMARK       I    between atoms: C8_16  and  N1_4 
REMARK    2  A    between atoms: C3_11  and  C8_16 
ROOT
HETATM    1  O1  UNK     1      18.333   1.403  32.315  1.00  0.00    -0.274 OA
HETATM    2  O2  UNK     1      18.169   3.142  30.842  1.00  0.00    -0.259 OA
HETATM    3  C1  UNK     1      18.361   1.852  34.704  1.00  0.00    -0.001 A 
HETATM    4  C2  UNK     1      18.401   0.949  33.647  1.00  0.00     0.089 A 
HETATM    5  C3  UNK     1      18.184   3.698  33.145  1.00  0.00     0.109 A 
HETATM    6  C4  UNK     1      18.248   3.272  34.412  1.00  0.00     0.037 A 
HETATM    7  C5  UNK     1      18.430   1.364  36.011  1.00  0.00     0.014 A 
HETATM    8  C6  UNK     1      18.226   2.756  32.005  1.00  0.00     0.304 A 
HETATM    9  C7  UNK     1      18.509  -0.424  33.858  1.00  0.00     0.038 A 
HETATM   10  C9  UNK     1      18.538  -0.011  36.239  1.00  0.00     0.001 A 
HETATM   11  C10 UNK     1      18.577  -0.903  35.164  1.00  0.00     0.003 A 
ENDROOT
BRANCH   5  12
HETATM   12  C8  UNK     1      18.073   5.149  32.952  1.00  0.00     0.276 C 
HETATM   13  O3  UNK     1      19.006   5.881  33.279  1.00  0.00    -0.267 OA
HETATM   14  N1  UNK     1      16.854   5.512  32.397  1.00  0.00    -0.149 N 
HETATM   15  H6  UNK     1      16.160   4.797  32.193  1.00  0.00     0.188 HD
BRANCH  14  16
HETATM   16  C11 UNK     1      16.404   6.816  32.076  1.00  0.00     0.761 A 
HETATM   17  N2  UNK     1      15.619   7.522  32.856  1.00  0.00     0.034 NA
HETATM   18  N4  UNK     1      15.526   8.614  32.084  1.00  0.00    -0.185 N 
HETATM   19  H7  UNK     1      14.977   9.422  32.360  1.00  0.00     0.208 HD
HETATM   20  N5  UNK     1      16.199   8.577  30.927  1.00  0.00     0.037 NA
HETATM   21  N3  UNK     1      16.782   7.385  30.919  1.00  0.00     0.035 NA
ENDBRANCH  14  16
ENDBRANCH   5  12
TORSDOF 2
ENDMDL
MODEL 10
REMARK VINA RESULT:      -8.0     13.792     16.342
REMARK  2 active torsions:
REMARK  status: ('A' for Active; 'I' for Inactive)
REMARK    1  A    between atoms: C11_19  and  N1_4 
REMARK       I    between atoms: C8_16  and  N1_4 
REMARK    2  A    between atoms: C3_11  and  C8_16 
ROOT
HETATM    1  O1  UNK     1      19.372   2.188  17.517  1.00  0.00    -0.274 OA
HETATM    2  O2  UNK     1      19.171   1.854  15.266  1.00  0.00    -0.259 OA
HETATM    3  C1  UNK     1      19.268   0.284  19.027  1.00  0.00    -0.001 A 
HETATM    4  C2  UNK     1      19.405   1.653  18.820  1.00  0.00     0.089 A 
HETATM    5  C3  UNK     1      19.057  -0.073  16.640  1.00  0.00     0.109 A 
HETATM    6  C4  UNK     1      19.088  -0.586  17.875  1.00  0.00     0.037 A 
HETATM    7  C5  UNK     1      19.307  -0.207  20.333  1.00  0.00     0.014 A 
HETATM    8  C6  UNK     1      19.200   1.380  16.397  1.00  0.00     0.304 A 
HETATM    9  C7  UNK     1      19.580   2.541  19.880  1.00  0.00     0.038 A 
HETATM   10  C9  UNK     1      19.482   0.671  21.406  1.00  0.00     0.001 A 
HETATM   11  C10 UNK     1      19.618   2.043  21.180  1.00  0.00     0.003 A 
ENDROOT
BRANCH   5  12
HETATM   12  C8  UNK     1      18.870  -1.031  15.544  1.00  0.00     0.276 C 
HETATM   13  O3  UNK     1      18.199  -2.045  15.728  1.00  0.00    -0.267 OA
HETATM   14  N1  UNK     1      19.521  -0.633  14.384  1.00  0.00    -0.149 N 
HETATM   15  H6  UNK     1      20.062   0.227  14.379  1.00  0.00     0.188 HD
BRANCH  14  16
HETATM   16  C11 UNK     1      19.559  -1.308  13.139  1.00  0.00     0.761 A 
HETATM   17  N2  UNK     1      20.359  -2.320  12.889  1.00  0.00     0.034 NA
HETATM   18  N4  UNK     1      19.981  -2.544  11.623  1.00  0.00    -0.185 N 
HETATM   19  H7  UNK     1      20.392  -3.284  11.063  1.00  0.00     0.208 HD
HETATM   20  N5  UNK     1      19.028  -1.736  11.139  1.00  0.00     0.037 NA
HETATM   21  N3  UNK     1      18.747  -0.915  12.144  1.00  0.00     0.035 NA
ENDBRANCH  14  16
ENDBRANCH   5  12
TORSDOF 2
ENDMDL
