MODEL 1
REMARK VINA RESULT:      -9.2      0.000      0.000
REMARK  6 active torsions:
REMARK  status: ('A' for Active; 'I' for Inactive)
REMARK    1  A    between atoms: C11_15  and  O2_2 
REMARK    2  A    between atoms: C17_21  and  O2_2 
REMARK    3  A    between atoms: C2_6  and  C4_8 
REMARK    4  A    between atoms: C4_8  and  C6_10 
REMARK    5  A    between atoms: C17_21  and  C19_23 
REMARK    6  A    between atoms: C19_23  and  C20_24 
ROOT
HETATM    1  O1  UNK     1      16.623   7.951  31.504  1.00  0.00    -0.274 OA
HETATM    2  O3  UNK     1      15.234   9.551  32.320  1.00  0.00    -0.259 OA
HETATM    3  C1  UNK     1      18.232   8.253  33.813  1.00  0.00    -0.036 A 
HETATM    4  C2  UNK     1      17.135   9.023  33.655  1.00  0.00     0.029 A 
HETATM    5  C3  UNK     1      18.600   7.288  32.756  1.00  0.00     0.005 A 
HETATM    6  C5  UNK     1      17.780   7.170  31.638  1.00  0.00     0.092 A 
HETATM    7  C7  UNK     1      16.253   8.882  32.460  1.00  0.00     0.295 A 
HETATM    8  C8  UNK     1      19.744   6.476  32.799  1.00  0.00     0.017 A 
HETATM    9  C9  UNK     1      19.121   8.302  35.031  1.00  0.00     0.050 C 
HETATM   10  C10 UNK     1      18.056   6.283  30.594  1.00  0.00     0.075 A 
HETATM   11  C11 UNK     1      19.191   5.484  30.661  1.00  0.00     0.072 A 
HETATM   12  C12 UNK     1      20.036   5.582  31.762  1.00  0.00     0.038 A 
ENDROOT
BRANCH  11  13
HETATM   13  O2  UNK     1      19.476   4.615  29.654  1.00  0.00    -0.344 OA
BRANCH  13  14
HETATM   14  C17 UNK     1      18.421   3.756  29.219  1.00  0.00     0.259 C 
BRANCH  14  15
HETATM   15  C19 UNK     1      18.294   2.572  30.157  1.00  0.00     0.183 C 
HETATM   16  O4  UNK     1      17.603   2.624  31.172  1.00  0.00    -0.290 OA
BRANCH  15  17
HETATM   17  C20 UNK     1      19.032   1.317  29.833  1.00  0.00     0.012 A 
HETATM   18  C21 UNK     1      19.891   0.795  30.773  1.00  0.00     0.015 A 
HETATM   19  C23 UNK     1      20.580  -0.379  30.470  1.00  0.00     0.001 A 
HETATM   20  C25 UNK     1      20.392  -0.998  29.234  1.00  0.00     0.000 A 
HETATM   21  C24 UNK     1      19.516  -0.445  28.302  1.00  0.00     0.001 A 
HETATM   22  C22 UNK     1      18.826   0.729  28.605  1.00  0.00     0.015 A 
ENDBRANCH  15  17
ENDBRANCH  14  15
ENDBRANCH  13  14
ENDBRANCH  11  13
BRANCH   4  23
HETATM   23  C4  UNK     1      16.683  10.088  34.622  1.00  0.00     0.084 C 
BRANCH  23  24
HETATM   24  C6  UNK     1      17.081  11.464  34.176  1.00  0.00    -0.054 A 
HETATM   25  C13 UNK     1      18.404  11.720  33.834  1.00  0.00     0.007 A 
HETATM   26  C15 UNK     1      18.775  12.999  33.418  1.00  0.00     0.001 A 
HETATM   27  C18 UNK     1      17.820  14.013  33.349  1.00  0.00     0.000 A 
HETATM   28  C16 UNK     1      16.495  13.749  33.694  1.00  0.00     0.001 A 
HETATM   29  C14 UNK     1      16.124  12.470  34.110  1.00  0.00     0.007 A 
ENDBRANCH  23  24
ENDBRANCH   4  23
TORSDOF 6
ENDMDL
MODEL 2
REMARK VINA RESULT:      -9.1      1.555      2.058
REMARK  6 active torsions:
REMARK  status: ('A' for Active; 'I' for Inactive)
REMARK    1  A    between atoms: C11_15  and  O2_2 
REMARK    2  A    between atoms: C17_21  and  O2_2 
REMARK    3  A    between atoms: C2_6  and  C4_8 
REMARK    4  A    between atoms: C4_8  and  C6_10 
REMARK    5  A    between atoms: C17_21  and  C19_23 
REMARK    6  A    between atoms: C19_23  and  C20_24 
ROOT
HETATM    1  O1  UNK     1      15.713   6.565  33.049  1.00  0.00    -0.274 OA
HETATM    2  O3  UNK     1      14.076   7.662  34.175  1.00  0.00    -0.259 OA
HETATM    3  C1  UNK     1      17.556   8.518  33.946  1.00  0.00    -0.036 A 
HETATM    4  C2  UNK     1      16.254   8.619  34.285  1.00  0.00     0.029 A 
HETATM    5  C3  UNK     1      17.996   7.406  33.076  1.00  0.00     0.005 A 
HETATM    6  C5  UNK     1      17.057   6.467  32.659  1.00  0.00     0.092 A 
HETATM    7  C7  UNK     1      15.256   7.601  33.846  1.00  0.00     0.295 A 
HETATM    8  C8  UNK     1      19.314   7.236  32.625  1.00  0.00     0.017 A 
HETATM    9  C9  UNK     1      18.622   9.476  34.418  1.00  0.00     0.050 C 
HETATM   10  C10 UNK     1      17.388   5.387  31.836  1.00  0.00     0.075 A 
HETATM   11  C11 UNK     1      18.701   5.236  31.408  1.00  0.00     0.072 A 
HETATM   12  C12 UNK     1      19.664   6.161  31.800  1.00  0.00     0.038 A 
ENDROOT
BRANCH  11  13
HETATM   13  O2  UNK     1      19.043   4.191  30.606  1.00  0.00    -0.344 OA
BRANCH  13  14
HETATM   14  C17 UNK     1      18.243   3.011  30.700  1.00  0.00     0.259 C 
BRANCH  14  15
HETATM   15  C19 UNK     1      18.500   2.114  29.506  1.00  0.00     0.183 C 
HETATM   16  O4  UNK     1      18.149   2.432  28.372  1.00  0.00    -0.290 OA
BRANCH  15  17
HETATM   17  C20 UNK     1      19.196   0.812  29.723  1.00  0.00     0.012 A 
HETATM   18  C21 UNK     1      19.605   0.091  28.624  1.00  0.00     0.015 A 
HETATM   19  C23 UNK     1      20.256  -1.125  28.827  1.00  0.00     0.001 A 
HETATM   20  C25 UNK     1      20.480  -1.588  30.123  1.00  0.00     0.000 A 
HETATM   21  C24 UNK     1      20.054  -0.836  31.217  1.00  0.00     0.001 A 
HETATM   22  C22 UNK     1      19.402   0.381  31.014  1.00  0.00     0.015 A 
ENDBRANCH  15  17
ENDBRANCH  14  15
ENDBRANCH  13  14
ENDBRANCH  11  13
BRANCH   4  23
HETATM   23  C4  UNK     1      15.663   9.734  35.111  1.00  0.00     0.084 C 
BRANCH  23  24
HETATM   24  C6  UNK     1      15.220  10.891  34.265  1.00  0.00    -0.054 A 
HETATM   25  C13 UNK     1      15.936  12.082  34.298  1.00  0.00     0.007 A 
HETATM   26  C15 UNK     1      15.524  13.158  33.511  1.00  0.00     0.001 A 
HETATM   27  C18 UNK     1      14.399  13.035  32.697  1.00  0.00     0.000 A 
HETATM   28  C16 UNK     1      13.685  11.837  32.669  1.00  0.00     0.001 A 
HETATM   29  C14 UNK     1      14.097  10.761  33.456  1.00  0.00     0.007 A 
ENDBRANCH  23  24
ENDBRANCH   4  23
TORSDOF 6
ENDMDL
MODEL 3
REMARK VINA RESULT:      -9.0     16.746     18.747
REMARK  6 active torsions:
REMARK  status: ('A' for Active; 'I' for Inactive)
REMARK    1  A    between atoms: C11_15  and  O2_2 
REMARK    2  A    between atoms: C17_21  and  O2_2 
REMARK    3  A    between atoms: C2_6  and  C4_8 
REMARK    4  A    between atoms: C4_8  and  C6_10 
REMARK    5  A    between atoms: C17_21  and  C19_23 
REMARK    6  A    between atoms: C19_23  and  C20_24 
ROOT
HETATM    1  O1  UNK     1      28.230  -5.343  39.015  1.00  0.00    -0.274 OA
HETATM    2  O3  UNK     1      29.814  -3.788  39.492  1.00  0.00    -0.259 OA
HETATM    3  C1  UNK     1      30.291  -7.111  38.214  1.00  0.00    -0.036 A 
HETATM    4  C2  UNK     1      30.601  -5.866  38.632  1.00  0.00     0.029 A 
HETATM    5  C3  UNK     1      28.874  -7.522  38.144  1.00  0.00     0.005 A 
HETATM    6  C5  UNK     1      27.892  -6.622  38.549  1.00  0.00     0.092 A 
HETATM    7  C7  UNK     1      29.545  -4.912  39.077  1.00  0.00     0.295 A 
HETATM    8  C8  UNK     1      28.442  -8.774  37.679  1.00  0.00     0.017 A 
HETATM    9  C9  UNK     1      31.320  -8.141  37.820  1.00  0.00     0.050 C 
HETATM   10  C10 UNK     1      26.529  -6.931  38.514  1.00  0.00     0.075 A 
HETATM   11  C11 UNK     1      26.126  -8.179  38.056  1.00  0.00     0.072 A 
HETATM   12  C12 UNK     1      27.080  -9.100  37.637  1.00  0.00     0.038 A 
ENDROOT
BRANCH  11  13
HETATM   13  O2  UNK     1      24.804  -8.497  38.015  1.00  0.00    -0.344 OA
BRANCH  13  14
HETATM   14  C17 UNK     1      23.942  -7.817  38.929  1.00  0.00     0.259 C 
BRANCH  14  15
HETATM   15  C19 UNK     1      22.597  -7.558  38.280  1.00  0.00     0.183 C 
HETATM   16  O4  UNK     1      22.307  -6.460  37.810  1.00  0.00    -0.290 OA
BRANCH  15  17
HETATM   17  C20 UNK     1      21.606  -8.671  38.215  1.00  0.00     0.012 A 
HETATM   18  C21 UNK     1      21.634  -9.518  37.130  1.00  0.00     0.015 A 
HETATM   19  C23 UNK     1      20.708 -10.559  37.071  1.00  0.00     0.001 A 
HETATM   20  C25 UNK     1      19.778 -10.725  38.097  1.00  0.00     0.000 A 
HETATM   21  C24 UNK     1      19.774  -9.851  39.183  1.00  0.00     0.001 A 
HETATM   22  C22 UNK     1      20.701  -8.810  39.243  1.00  0.00     0.015 A 
ENDBRANCH  15  17
ENDBRANCH  14  15
ENDBRANCH  13  14
ENDBRANCH  11  13
BRANCH   4  23
HETATM   23  C4  UNK     1      31.997  -5.298  38.691  1.00  0.00     0.084 C 
BRANCH  23  24
HETATM   24  C6  UNK     1      32.581  -5.089  37.326  1.00  0.00    -0.054 A 
HETATM   25  C13 UNK     1      33.833  -5.612  37.024  1.00  0.00     0.007 A 
HETATM   26  C15 UNK     1      34.376  -5.418  35.754  1.00  0.00     0.001 A 
HETATM   27  C18 UNK     1      33.663  -4.701  34.794  1.00  0.00     0.000 A 
HETATM   28  C16 UNK     1      32.408  -4.178  35.103  1.00  0.00     0.001 A 
HETATM   29  C14 UNK     1      31.865  -4.373  36.373  1.00  0.00     0.007 A 
ENDBRANCH  23  24
ENDBRANCH   4  23
TORSDOF 6
ENDMDL
MODEL 4
REMARK VINA RESULT:      -8.8     16.747     19.400
REMARK  6 active torsions:
REMARK  status: ('A' for Active; 'I' for Inactive)
REMARK    1  A    between atoms: C11_15  and  O2_2 
REMARK    2  A    between atoms: C17_21  and  O2_2 
REMARK    3  A    between atoms: C2_6  and  C4_8 
REMARK    4  A    between atoms: C4_8  and  C6_10 
REMARK    5  A    between atoms: C17_21  and  C19_23 
REMARK    6  A    between atoms: C19_23  and  C20_24 
ROOT
HETATM    1  O1  UNK     1      27.963  -8.897  35.023  1.00  0.00    -0.274 OA
HETATM    2  O3  UNK     1      26.945  -7.710  36.668  1.00  0.00    -0.259 OA
HETATM    3  C1  UNK     1      30.066  -9.480  36.827  1.00  0.00    -0.036 A 
HETATM    4  C2  UNK     1      29.038  -8.702  37.225  1.00  0.00     0.029 A 
HETATM    5  C3  UNK     1      30.099  -9.986  35.439  1.00  0.00     0.005 A 
HETATM    6  C5  UNK     1      29.043  -9.678  34.585  1.00  0.00     0.092 A 
HETATM    7  C7  UNK     1      27.903  -8.387  36.309  1.00  0.00     0.295 A 
HETATM    8  C8  UNK     1      31.143 -10.760  34.910  1.00  0.00     0.017 A 
HETATM    9  C9  UNK     1      31.203  -9.890  37.729  1.00  0.00     0.050 C 
HETATM   10  C10 UNK     1      28.997 -10.115  33.259  1.00  0.00     0.075 A 
HETATM   11  C11 UNK     1      30.039 -10.886  32.760  1.00  0.00     0.072 A 
HETATM   12  C12 UNK     1      31.114 -11.207  33.584  1.00  0.00     0.038 A 
ENDROOT
BRANCH  11  13
HETATM   13  O2  UNK     1      30.011 -11.321  31.471  1.00  0.00    -0.344 OA
BRANCH  13  14
HETATM   14  C17 UNK     1      30.659 -10.504  30.495  1.00  0.00     0.259 C 
BRANCH  14  15
HETATM   15  C19 UNK     1      29.636  -9.945  29.525  1.00  0.00     0.183 C 
HETATM   16  O4  UNK     1      29.371 -10.514  28.468  1.00  0.00    -0.290 OA
BRANCH  15  17
HETATM   17  C20 UNK     1      28.941  -8.672  29.871  1.00  0.00     0.012 A 
HETATM   18  C21 UNK     1      27.583  -8.701  30.095  1.00  0.00     0.015 A 
HETATM   19  C23 UNK     1      26.933  -7.511  30.420  1.00  0.00     0.001 A 
HETATM   20  C25 UNK     1      27.658  -6.323  30.510  1.00  0.00     0.000 A 
HETATM   21  C24 UNK     1      29.032  -6.324  30.277  1.00  0.00     0.001 A 
HETATM   22  C22 UNK     1      29.683  -7.515  29.953  1.00  0.00     0.015 A 
ENDBRANCH  15  17
ENDBRANCH  14  15
ENDBRANCH  13  14
ENDBRANCH  11  13
BRANCH   4  23
HETATM   23  C4  UNK     1      28.912  -8.071  38.589  1.00  0.00     0.084 C 
BRANCH  23  24
HETATM   24  C6  UNK     1      29.406  -6.654  38.603  1.00  0.00    -0.054 A 
HETATM   25  C13 UNK     1      30.744  -6.389  38.337  1.00  0.00     0.007 A 
HETATM   26  C15 UNK     1      31.204  -5.072  38.350  1.00  0.00     0.001 A 
HETATM   27  C18 UNK     1      30.322  -4.029  38.630  1.00  0.00     0.000 A 
HETATM   28  C16 UNK     1      28.980  -4.302  38.896  1.00  0.00     0.001 A 
HETATM   29  C14 UNK     1      28.521  -5.619  38.883  1.00  0.00     0.007 A 
ENDBRANCH  23  24
ENDBRANCH   4  23
TORSDOF 6
ENDMDL
MODEL 5
REMARK VINA RESULT:      -8.7     16.888     18.985
REMARK  6 active torsions:
REMARK  status: ('A' for Active; 'I' for Inactive)
REMARK    1  A    between atoms: C11_15  and  O2_2 
REMARK    2  A    between atoms: C17_21  and  O2_2 
REMARK    3  A    between atoms: C2_6  and  C4_8 
REMARK    4  A    between atoms: C4_8  and  C6_10 
REMARK    5  A    between atoms: C17_21  and  C19_23 
REMARK    6  A    between atoms: C19_23  and  C20_24 
ROOT
HETATM    1  O1  UNK     1      29.772  -8.294  37.825  1.00  0.00    -0.274 OA
HETATM    2  O3  UNK     1      32.038  -8.339  37.705  1.00  0.00    -0.259 OA
HETATM    3  C1  UNK     1      29.926  -5.575  38.598  1.00  0.00    -0.036 A 
HETATM    4  C2  UNK     1      31.058  -6.273  38.372  1.00  0.00     0.029 A 
HETATM    5  C3  UNK     1      28.618  -6.253  38.476  1.00  0.00     0.005 A 
HETATM    6  C5  UNK     1      28.587  -7.591  38.092  1.00  0.00     0.092 A 
HETATM    7  C7  UNK     1      31.017  -7.702  37.947  1.00  0.00     0.295 A 
HETATM    8  C8  UNK     1      27.386  -5.634  38.735  1.00  0.00     0.017 A 
HETATM    9  C9  UNK     1      29.903  -4.111  38.961  1.00  0.00     0.050 C 
HETATM   10  C10 UNK     1      27.395  -8.306  37.953  1.00  0.00     0.075 A 
HETATM   11  C11 UNK     1      26.186  -7.670  38.209  1.00  0.00     0.072 A 
HETATM   12  C12 UNK     1      26.181  -6.335  38.602  1.00  0.00     0.038 A 
ENDROOT
BRANCH  11  13
HETATM   13  O2  UNK     1      25.015  -8.350  38.079  1.00  0.00    -0.344 OA
BRANCH  13  14
HETATM   14  C17 UNK     1      23.989  -8.065  39.032  1.00  0.00     0.259 C 
BRANCH  14  15
HETATM   15  C19 UNK     1      22.688  -7.758  38.317  1.00  0.00     0.183 C 
HETATM   16  O4  UNK     1      22.448  -6.641  37.866  1.00  0.00    -0.290 OA
BRANCH  15  17
HETATM   17  C20 UNK     1      21.681  -8.847  38.163  1.00  0.00     0.012 A 
HETATM   18  C21 UNK     1      20.687  -8.965  39.109  1.00  0.00     0.015 A 
HETATM   19  C23 UNK     1      19.744  -9.982  38.965  1.00  0.00     0.001 A 
HETATM   20  C25 UNK     1      19.821 -10.855  37.880  1.00  0.00     0.000 A 
HETATM   21  C24 UNK     1      20.839 -10.711  36.938  1.00  0.00     0.001 A 
HETATM   22  C22 UNK     1      21.782  -9.693  37.082  1.00  0.00     0.015 A 
ENDBRANCH  15  17
ENDBRANCH  14  15
ENDBRANCH  13  14
ENDBRANCH  11  13
BRANCH   4  23
HETATM   23  C4  UNK     1      32.454  -5.723  38.523  1.00  0.00     0.084 C 
BRANCH  23  24
HETATM   24  C6  UNK     1      33.059  -5.347  37.203  1.00  0.00    -0.054 A 
HETATM   25  C13 UNK     1      34.345  -5.771  36.889  1.00  0.00     0.007 A 
HETATM   26  C15 UNK     1      34.908  -5.422  35.661  1.00  0.00     0.001 A 
HETATM   27  C18 UNK     1      34.181  -4.650  34.755  1.00  0.00     0.000 A 
HETATM   28  C16 UNK     1      32.891  -4.228  35.077  1.00  0.00     0.001 A 
HETATM   29  C14 UNK     1      32.329  -4.577  36.305  1.00  0.00     0.007 A 
ENDBRANCH  23  24
ENDBRANCH   4  23
TORSDOF 6
ENDMDL
MODEL 6
REMARK VINA RESULT:      -8.7     22.485     25.144
REMARK  6 active torsions:
REMARK  status: ('A' for Active; 'I' for Inactive)
REMARK    1  A    between atoms: C11_15  and  O2_2 
REMARK    2  A    between atoms: C17_21  and  O2_2 
REMARK    3  A    between atoms: C2_6  and  C4_8 
REMARK    4  A    between atoms: C4_8  and  C6_10 
REMARK    5  A    between atoms: C17_21  and  C19_23 
REMARK    6  A    between atoms: C19_23  and  C20_24 
ROOT
HETATM    1  O1  UNK     1      15.864   6.326   9.817  1.00  0.00    -0.274 OA
HETATM    2  O3  UNK     1      14.700   4.378   9.735  1.00  0.00    -0.259 OA
HETATM    3  C1  UNK     1      13.405   7.728   9.794  1.00  0.00    -0.036 A 
HETATM    4  C2  UNK     1      13.408   6.380   9.731  1.00  0.00     0.029 A 
HETATM    5  C3  UNK     1      14.690   8.457   9.836  1.00  0.00     0.005 A 
HETATM    6  C5  UNK     1      15.876   7.728   9.847  1.00  0.00     0.092 A 
HETATM    7  C7  UNK     1      14.683   5.605   9.758  1.00  0.00     0.295 A 
HETATM    8  C8  UNK     1      14.799   9.855   9.854  1.00  0.00     0.017 A 
HETATM    9  C9  UNK     1      12.147   8.560   9.842  1.00  0.00     0.050 C 
HETATM   10  C10 UNK     1      17.133   8.338   9.885  1.00  0.00     0.075 A 
HETATM   11  C11 UNK     1      17.215   9.725   9.909  1.00  0.00     0.072 A 
HETATM   12  C12 UNK     1      16.050  10.484   9.891  1.00  0.00     0.038 A 
ENDROOT
BRANCH  11  13
HETATM   13  O2  UNK     1      18.430  10.337   9.945  1.00  0.00    -0.344 OA
BRANCH  13  14
HETATM   14  C17 UNK     1      18.484  11.699   9.521  1.00  0.00     0.259 C 
BRANCH  14  15
HETATM   15  C19 UNK     1      18.897  11.774   8.065  1.00  0.00     0.183 C 
HETATM   16  O4  UNK     1      19.729  11.005   7.589  1.00  0.00    -0.290 OA
BRANCH  15  17
HETATM   17  C20 UNK     1      18.271  12.811   7.194  1.00  0.00     0.012 A 
HETATM   18  C21 UNK     1      17.012  13.268   7.513  1.00  0.00     0.015 A 
HETATM   19  C23 UNK     1      16.428  14.238   6.700  1.00  0.00     0.001 A 
HETATM   20  C25 UNK     1      17.117  14.725   5.589  1.00  0.00     0.000 A 
HETATM   21  C24 UNK     1      18.390  14.242   5.291  1.00  0.00     0.001 A 
HETATM   22  C22 UNK     1      18.976  13.271   6.105  1.00  0.00     0.015 A 
ENDBRANCH  15  17
ENDBRANCH  14  15
ENDBRANCH  13  14
ENDBRANCH  11  13
BRANCH   4  23
HETATM   23  C4  UNK     1      12.175   5.519   9.621  1.00  0.00     0.084 C 
BRANCH  23  24
HETATM   24  C6  UNK     1      11.416   5.778   8.353  1.00  0.00    -0.054 A 
HETATM   25  C13 UNK     1      10.040   5.971   8.402  1.00  0.00     0.007 A 
HETATM   26  C15 UNK     1       9.334   6.212   7.224  1.00  0.00     0.001 A 
HETATM   27  C18 UNK     1      10.008   6.258   6.004  1.00  0.00     0.000 A 
HETATM   28  C16 UNK     1      11.388   6.063   5.963  1.00  0.00     0.001 A 
HETATM   29  C14 UNK     1      12.095   5.822   7.141  1.00  0.00     0.007 A 
ENDBRANCH  23  24
ENDBRANCH   4  23
TORSDOF 6
ENDMDL
MODEL 7
REMARK VINA RESULT:      -8.7      8.059     14.716
REMARK  6 active torsions:
REMARK  status: ('A' for Active; 'I' for Inactive)
REMARK    1  A    between atoms: C11_15  and  O2_2 
REMARK    2  A    between atoms: C17_21  and  O2_2 
REMARK    3  A    between atoms: C2_6  and  C4_8 
REMARK    4  A    between atoms: C4_8  and  C6_10 
REMARK    5  A    between atoms: C17_21  and  C19_23 
REMARK    6  A    between atoms: C19_23  and  C20_24 
ROOT
HETATM    1  O1  UNK     1      20.257  -6.049  34.679  1.00  0.00    -0.274 OA
HETATM    2  O3  UNK     1      20.471  -8.302  34.499  1.00  0.00    -0.259 OA
HETATM    3  C1  UNK     1      20.573  -6.303  37.481  1.00  0.00    -0.036 A 
HETATM    4  C2  UNK     1      20.579  -7.405  36.703  1.00  0.00     0.029 A 
HETATM    5  C3  UNK     1      20.362  -4.978  36.861  1.00  0.00     0.005 A 
HETATM    6  C5  UNK     1      20.213  -4.898  35.480  1.00  0.00     0.092 A 
HETATM    7  C7  UNK     1      20.433  -7.311  35.222  1.00  0.00     0.295 A 
HETATM    8  C8  UNK     1      20.289  -3.776  37.583  1.00  0.00     0.017 A 
HETATM    9  C9  UNK     1      20.787  -6.331  38.974  1.00  0.00     0.050 C 
HETATM   10  C10 UNK     1      20.009  -3.686  34.815  1.00  0.00     0.075 A 
HETATM   11  C11 UNK     1      19.948  -2.508  35.550  1.00  0.00     0.072 A 
HETATM   12  C12 UNK     1      20.085  -2.553  36.934  1.00  0.00     0.038 A 
ENDROOT
BRANCH  11  13
HETATM   13  O2  UNK     1      19.749  -1.319  34.920  1.00  0.00    -0.344 OA
BRANCH  13  14
HETATM   14  C17 UNK     1      18.713  -1.268  33.937  1.00  0.00     0.259 C 
BRANCH  14  15
HETATM   15  C19 UNK     1      18.966  -0.123  32.976  1.00  0.00     0.183 C 
HETATM   16  O4  UNK     1      18.775   1.046  33.301  1.00  0.00    -0.290 OA
BRANCH  15  17
HETATM   17  C20 UNK     1      19.458  -0.436  31.603  1.00  0.00     0.012 A 
HETATM   18  C21 UNK     1      19.911  -1.708  31.338  1.00  0.00     0.015 A 
HETATM   19  C23 UNK     1      20.369  -2.001  30.054  1.00  0.00     0.001 A 
HETATM   20  C25 UNK     1      20.364  -1.012  29.069  1.00  0.00     0.000 A 
HETATM   21  C24 UNK     1      19.899   0.268  29.368  1.00  0.00     0.001 A 
HETATM   22  C22 UNK     1      19.440   0.560  30.653  1.00  0.00     0.015 A 
ENDBRANCH  15  17
ENDBRANCH  14  15
ENDBRANCH  13  14
ENDBRANCH  11  13
BRANCH   4  23
HETATM   23  C4  UNK     1      20.721  -8.818  37.211  1.00  0.00     0.084 C 
BRANCH  23  24
HETATM   24  C6  UNK     1      22.070  -9.397  36.904  1.00  0.00    -0.054 A 
HETATM   25  C13 UNK     1      22.162 -10.604  36.221  1.00  0.00     0.007 A 
HETATM   26  C15 UNK     1      23.416 -11.143  35.934  1.00  0.00     0.001 A 
HETATM   27  C18 UNK     1      24.571 -10.471  36.333  1.00  0.00     0.000 A 
HETATM   28  C16 UNK     1      24.472  -9.260  37.018  1.00  0.00     0.001 A 
HETATM   29  C14 UNK     1      23.217  -8.721  37.305  1.00  0.00     0.007 A 
ENDBRANCH  23  24
ENDBRANCH   4  23
TORSDOF 6
ENDMDL
MODEL 8
REMARK VINA RESULT:      -8.7      8.332     14.619
REMARK  6 active torsions:
REMARK  status: ('A' for Active; 'I' for Inactive)
REMARK    1  A    between atoms: C11_15  and  O2_2 
REMARK    2  A    between atoms: C17_21  and  O2_2 
REMARK    3  A    between atoms: C2_6  and  C4_8 
REMARK    4  A    between atoms: C4_8  and  C6_10 
REMARK    5  A    between atoms: C17_21  and  C19_23 
REMARK    6  A    between atoms: C19_23  and  C20_24 
ROOT
HETATM    1  O1  UNK     1      22.151  -4.338  37.661  1.00  0.00    -0.274 OA
HETATM    2  O3  UNK     1      23.469  -5.830  38.752  1.00  0.00    -0.259 OA
HETATM    3  C1  UNK     1      19.990  -6.149  37.917  1.00  0.00    -0.036 A 
HETATM    4  C2  UNK     1      21.207  -6.485  38.394  1.00  0.00     0.029 A 
HETATM    5  C3  UNK     1      19.812  -4.852  37.232  1.00  0.00     0.005 A 
HETATM    6  C5  UNK     1      20.900  -3.990  37.129  1.00  0.00     0.092 A 
HETATM    7  C7  UNK     1      22.365  -5.551  38.293  1.00  0.00     0.295 A 
HETATM    8  C8  UNK     1      18.604  -4.426  36.659  1.00  0.00     0.017 A 
HETATM    9  C9  UNK     1      18.767  -7.021  38.054  1.00  0.00     0.050 C 
HETATM   10  C10 UNK     1      20.818  -2.747  36.497  1.00  0.00     0.075 A 
HETATM   11  C11 UNK     1      19.609  -2.344  35.943  1.00  0.00     0.072 A 
HETATM   12  C12 UNK     1      18.502  -3.184  36.021  1.00  0.00     0.038 A 
ENDROOT
BRANCH  11  13
HETATM   13  O2  UNK     1      19.509  -1.137  35.323  1.00  0.00    -0.344 OA
BRANCH  13  14
HETATM   14  C17 UNK     1      18.415  -0.957  34.422  1.00  0.00     0.259 C 
BRANCH  14  15
HETATM   15  C19 UNK     1      18.782   0.057  33.357  1.00  0.00     0.183 C 
HETATM   16  O4  UNK     1      18.601   1.261  33.522  1.00  0.00    -0.290 OA
BRANCH  15  17
HETATM   17  C20 UNK     1      19.376  -0.430  32.078  1.00  0.00     0.012 A 
HETATM   18  C21 UNK     1      19.733  -1.755  31.979  1.00  0.00     0.015 A 
HETATM   19  C23 UNK     1      20.287  -2.211  30.783  1.00  0.00     0.001 A 
HETATM   20  C25 UNK     1      20.470  -1.328  29.718  1.00  0.00     0.000 A 
HETATM   21  C24 UNK     1      20.098   0.010  29.849  1.00  0.00     0.001 A 
HETATM   22  C22 UNK     1      19.543   0.465  31.046  1.00  0.00     0.015 A 
ENDBRANCH  15  17
ENDBRANCH  14  15
ENDBRANCH  13  14
ENDBRANCH  11  13
BRANCH   4  23
HETATM   23  C4  UNK     1      21.540  -7.799  39.055  1.00  0.00     0.084 C 
BRANCH  23  24
HETATM   24  C6  UNK     1      21.654  -8.919  38.064  1.00  0.00    -0.054 A 
HETATM   25  C13 UNK     1      22.652  -8.883  37.097  1.00  0.00     0.007 A 
HETATM   26  C15 UNK     1      22.758  -9.925  36.175  1.00  0.00     0.001 A 
HETATM   27  C18 UNK     1      21.866 -10.995  36.227  1.00  0.00     0.000 A 
HETATM   28  C16 UNK     1      20.867 -11.024  37.200  1.00  0.00     0.001 A 
HETATM   29  C14 UNK     1      20.761  -9.982  38.122  1.00  0.00     0.007 A 
ENDBRANCH  23  24
ENDBRANCH   4  23
TORSDOF 6
ENDMDL
MODEL 9
REMARK VINA RESULT:      -8.6     22.689     24.739
REMARK  6 active torsions:
REMARK  status: ('A' for Active; 'I' for Inactive)
REMARK    1  A    between atoms: C11_15  and  O2_2 
REMARK    2  A    between atoms: C17_21  and  O2_2 
REMARK    3  A    between atoms: C2_6  and  C4_8 
REMARK    4  A    between atoms: C4_8  and  C6_10 
REMARK    5  A    between atoms: C17_21  and  C19_23 
REMARK    6  A    between atoms: C19_23  and  C20_24 
ROOT
HETATM    1  O1  UNK     1      18.125   9.948   9.750  1.00  0.00    -0.274 OA
HETATM    2  O3  UNK     1      19.772  11.510   9.716  1.00  0.00    -0.259 OA
HETATM    3  C1  UNK     1      16.462  11.756   8.342  1.00  0.00    -0.036 A 
HETATM    4  C2  UNK     1      17.711  12.128   8.692  1.00  0.00     0.029 A 
HETATM    5  C3  UNK     1      15.966  10.420   8.733  1.00  0.00     0.005 A 
HETATM    6  C5  UNK     1      16.817   9.561   9.423  1.00  0.00     0.092 A 
HETATM    7  C7  UNK     1      18.622  11.198   9.420  1.00  0.00     0.295 A 
HETATM    8  C8  UNK     1      14.670   9.953   8.461  1.00  0.00     0.017 A 
HETATM    9  C9  UNK     1      15.522  12.626   7.545  1.00  0.00     0.050 C 
HETATM   10  C10 UNK     1      16.426   8.283   9.831  1.00  0.00     0.075 A 
HETATM   11  C11 UNK     1      15.141   7.840   9.544  1.00  0.00     0.072 A 
HETATM   12  C12 UNK     1      14.261   8.675   8.862  1.00  0.00     0.038 A 
ENDROOT
BRANCH  11  13
HETATM   13  O2  UNK     1      14.743   6.599   9.933  1.00  0.00    -0.344 OA
BRANCH  13  14
HETATM   14  C17 UNK     1      14.065   5.800   8.962  1.00  0.00     0.259 C 
BRANCH  14  15
HETATM   15  C19 UNK     1      12.589   5.718   9.295  1.00  0.00     0.183 C 
HETATM   16  O4  UNK     1      12.197   5.489  10.437  1.00  0.00    -0.290 OA
BRANCH  15  17
HETATM   17  C20 UNK     1      11.595   5.921   8.202  1.00  0.00     0.012 A 
HETATM   18  C21 UNK     1      12.051   6.047   6.909  1.00  0.00     0.015 A 
HETATM   19  C23 UNK     1      11.122   6.236   5.887  1.00  0.00     0.001 A 
HETATM   20  C25 UNK     1       9.760   6.295   6.185  1.00  0.00     0.000 A 
HETATM   21  C24 UNK     1       9.328   6.165   7.504  1.00  0.00     0.001 A 
HETATM   22  C22 UNK     1      10.258   5.975   8.527  1.00  0.00     0.015 A 
ENDBRANCH  15  17
ENDBRANCH  14  15
ENDBRANCH  13  14
ENDBRANCH  11  13
BRANCH   4  23
HETATM   23  C4  UNK     1      18.318  13.480   8.413  1.00  0.00     0.084 C 
BRANCH  23  24
HETATM   24  C6  UNK     1      19.130  13.485   7.152  1.00  0.00    -0.054 A 
HETATM   25  C13 UNK     1      18.576  12.998   5.974  1.00  0.00     0.007 A 
HETATM   26  C15 UNK     1      19.331  13.004   4.801  1.00  0.00     0.001 A 
HETATM   27  C18 UNK     1      20.635  13.497   4.814  1.00  0.00     0.000 A 
HETATM   28  C16 UNK     1      21.185  13.984   5.999  1.00  0.00     0.001 A 
HETATM   29  C14 UNK     1      20.430  13.978   7.173  1.00  0.00     0.007 A 
ENDBRANCH  23  24
ENDBRANCH   4  23
TORSDOF 6
ENDMDL
MODEL 10
REMARK VINA RESULT:      -8.6     17.354     19.916
REMARK  6 active torsions:
REMARK  status: ('A' for Active; 'I' for Inactive)
REMARK    1  A    between atoms: C11_15  and  O2_2 
REMARK    2  A    between atoms: C17_21  and  O2_2 
REMARK    3  A    between atoms: C2_6  and  C4_8 
REMARK    4  A    between atoms: C4_8  and  C6_10 
REMARK    5  A    between atoms: C17_21  and  C19_23 
REMARK    6  A    between atoms: C19_23  and  C20_24 
ROOT
HETATM    1  O1  UNK     1      32.599  -9.010  34.755  1.00  0.00    -0.274 OA
HETATM    2  O3  UNK     1      33.355  -8.241  36.752  1.00  0.00    -0.259 OA
HETATM    3  C1  UNK     1      30.023  -9.277  35.899  1.00  0.00    -0.036 A 
HETATM    4  C2  UNK     1      31.051  -8.839  36.656  1.00  0.00     0.029 A 
HETATM    5  C3  UNK     1      30.266  -9.647  34.489  1.00  0.00     0.005 A 
HETATM    6  C5  UNK     1      31.547  -9.499  33.966  1.00  0.00     0.092 A 
HETATM    7  C7  UNK     1      32.419  -8.670  36.085  1.00  0.00     0.295 A 
HETATM    8  C8  UNK     1      29.279 -10.157  33.631  1.00  0.00     0.017 A 
HETATM    9  C9  UNK     1      28.606  -9.400  36.403  1.00  0.00     0.050 C 
HETATM   10  C10 UNK     1      31.861  -9.827  32.644  1.00  0.00     0.075 A 
HETATM   11  C11 UNK     1      30.867 -10.323  31.811  1.00  0.00     0.072 A 
HETATM   12  C12 UNK     1      29.576 -10.491  32.304  1.00  0.00     0.038 A 
ENDROOT
BRANCH  11  13
HETATM   13  O2  UNK     1      31.154 -10.648  30.522  1.00  0.00    -0.344 OA
BRANCH  13  14
HETATM   14  C17 UNK     1      30.049 -10.821  29.633  1.00  0.00     0.259 C 
BRANCH  14  15
HETATM   15  C19 UNK     1      29.818  -9.552  28.838  1.00  0.00     0.183 C 
HETATM   16  O4  UNK     1      30.263  -9.413  27.701  1.00  0.00    -0.290 OA
BRANCH  15  17
HETATM   17  C20 UNK     1      29.030  -8.449  29.461  1.00  0.00     0.012 A 
HETATM   18  C21 UNK     1      29.649  -7.241  29.686  1.00  0.00     0.015 A 
HETATM   19  C23 UNK     1      28.912  -6.210  30.267  1.00  0.00     0.001 A 
HETATM   20  C25 UNK     1      27.575  -6.415  30.608  1.00  0.00     0.000 A 
HETATM   21  C24 UNK     1      26.975  -7.650  30.368  1.00  0.00     0.001 A 
HETATM   22  C22 UNK     1      27.712  -8.682  29.786  1.00  0.00     0.015 A 
ENDBRANCH  15  17
ENDBRANCH  14  15
ENDBRANCH  13  14
ENDBRANCH  11  13
BRANCH   4  23
HETATM   23  C4  UNK     1      30.956  -8.489  38.120  1.00  0.00     0.084 C 
BRANCH  23  24
HETATM   24  C6  UNK     1      30.450  -7.093  38.336  1.00  0.00    -0.054 A 
HETATM   25  C13 UNK     1      29.121  -6.889  38.689  1.00  0.00     0.007 A 
HETATM   26  C15 UNK     1      28.651  -5.591  38.890  1.00  0.00     0.001 A 
HETATM   27  C18 UNK     1      29.513  -4.506  38.736  1.00  0.00     0.000 A 
HETATM   28  C16 UNK     1      30.845  -4.718  38.382  1.00  0.00     0.001 A 
HETATM   29  C14 UNK     1      31.315  -6.016  38.181  1.00  0.00     0.007 A 
ENDBRANCH  23  24
ENDBRANCH   4  23
TORSDOF 6
ENDMDL
