MODEL 1
REMARK VINA RESULT:      -6.9      0.000      0.000
REMARK  3 active torsions:
REMARK  status: ('A' for Active; 'I' for Inactive)
REMARK       I    between atoms: C5_9  and  N1_4 
REMARK    1  A    between atoms: C5_9  and  C6_10 
REMARK    2  A    between atoms: C6_10  and  C7_11 
REMARK    3  A    between atoms: C8_12  and  C9_13 
ROOT
HETATM    1  C6  UNK     1      31.273  -7.732  36.403  1.00  0.00     0.043 C 
HETATM    2  C8  UNK     1      31.060  -7.925  37.717  1.00  0.00     0.031 C 
ENDROOT
BRANCH   1   3
HETATM    3  C5  UNK     1      32.682  -7.507  36.024  1.00  0.00     0.254 C 
HETATM    4  O2  UNK     1      33.342  -8.489  35.683  1.00  0.00    -0.267 OA
HETATM    5  N1  UNK     1      33.172  -6.206  36.080  1.00  0.00    -0.344 N 
HETATM    6  C1  UNK     1      32.433  -5.001  36.478  1.00  0.00     0.152 C 
HETATM    7  C2  UNK     1      34.600  -5.969  35.860  1.00  0.00     0.152 C 
HETATM    8  C3  UNK     1      32.714  -3.868  35.499  1.00  0.00     0.187 C 
HETATM    9  O1  UNK     1      34.122  -3.638  35.397  1.00  0.00    -0.388 OA
HETATM   10  C4  UNK     1      34.799  -4.799  34.907  1.00  0.00     0.187 C 
ENDBRANCH   1   3
BRANCH   1  11
HETATM   11  C7  UNK     1      30.234  -7.731  35.363  1.00  0.00    -0.021 A 
HETATM   12  C10 UNK     1      29.538  -6.561  35.096  1.00  0.00     0.012 A 
HETATM   13  C14 UNK     1      28.553  -6.561  34.108  1.00  0.00     0.001 A 
HETATM   14  C16 UNK     1      28.274  -7.729  33.400  1.00  0.00     0.000 A 
HETATM   15  C15 UNK     1      28.980  -8.899  33.679  1.00  0.00     0.001 A 
HETATM   16  C11 UNK     1      29.966  -8.900  34.666  1.00  0.00     0.012 A 
ENDBRANCH   1  11
BRANCH   2  17
HETATM   17  C9  UNK     1      29.752  -8.139  38.356  1.00  0.00    -0.013 A 
HETATM   18  C12 UNK     1      28.987  -7.081  38.828  1.00  0.00     0.044 A 
HETATM   19 Cl1  UNK     1      29.507  -5.436  38.703  1.00  0.00    -0.083 Cl
HETATM   20  C17 UNK     1      27.754  -7.336  39.426  1.00  0.00     0.024 A 
HETATM   21  C19 UNK     1      27.296  -8.649  39.547  1.00  0.00     0.002 A 
HETATM   22  C18 UNK     1      28.072  -9.706  39.069  1.00  0.00     0.001 A 
HETATM   23  C13 UNK     1      29.306  -9.449  38.471  1.00  0.00     0.013 A 
ENDBRANCH   2  17
TORSDOF 3
ENDMDL
MODEL 2
REMARK VINA RESULT:      -6.6      2.612      4.222
REMARK  3 active torsions:
REMARK  status: ('A' for Active; 'I' for Inactive)
REMARK       I    between atoms: C5_9  and  N1_4 
REMARK    1  A    between atoms: C5_9  and  C6_10 
REMARK    2  A    between atoms: C6_10  and  C7_11 
REMARK    3  A    between atoms: C8_12  and  C9_13 
ROOT
HETATM    1  C6  UNK     1      30.017  -7.722  35.868  1.00  0.00     0.043 C 
HETATM    2  C8  UNK     1      29.154  -8.730  36.085  1.00  0.00     0.031 C 
ENDROOT
BRANCH   1   3
HETATM    3  C5  UNK     1      30.680  -7.738  34.549  1.00  0.00     0.254 C 
HETATM    4  O2  UNK     1      31.748  -8.345  34.457  1.00  0.00    -0.267 OA
HETATM    5  N1  UNK     1      30.060  -7.068  33.499  1.00  0.00    -0.344 N 
HETATM    6  C1  UNK     1      28.791  -6.331  33.551  1.00  0.00     0.152 C 
HETATM    7  C2  UNK     1      30.761  -6.934  32.220  1.00  0.00     0.152 C 
HETATM    8  C3  UNK     1      27.928  -6.689  32.348  1.00  0.00     0.187 C 
HETATM    9  O1  UNK     1      28.648  -6.456  31.133  1.00  0.00    -0.388 OA
HETATM   10  C4  UNK     1      29.824  -7.268  31.068  1.00  0.00     0.187 C 
ENDBRANCH   1   3
BRANCH   1  11
HETATM   11  C7  UNK     1      30.328  -6.648  36.822  1.00  0.00    -0.021 A 
HETATM   12  C10 UNK     1      29.409  -5.630  37.025  1.00  0.00     0.012 A 
HETATM   13  C14 UNK     1      29.704  -4.611  37.931  1.00  0.00     0.001 A 
HETATM   14  C16 UNK     1      30.915  -4.621  38.623  1.00  0.00     0.000 A 
HETATM   15  C15 UNK     1      31.831  -5.650  38.409  1.00  0.00     0.001 A 
HETATM   16  C11 UNK     1      31.536  -6.669  37.503  1.00  0.00     0.012 A 
ENDBRANCH   1  11
BRANCH   2  17
HETATM   17  C9  UNK     1      28.391  -8.961  37.321  1.00  0.00    -0.013 A 
HETATM   18  C12 UNK     1      28.969  -9.551  38.437  1.00  0.00     0.044 A 
HETATM   19 Cl1  UNK     1      30.621 -10.059  38.463  1.00  0.00    -0.083 Cl
HETATM   20  C17 UNK     1      28.202  -9.748  39.585  1.00  0.00     0.024 A 
HETATM   21  C19 UNK     1      26.864  -9.353  39.607  1.00  0.00     0.002 A 
HETATM   22  C18 UNK     1      26.293  -8.760  38.480  1.00  0.00     0.001 A 
HETATM   23  C13 UNK     1      27.061  -8.563  37.332  1.00  0.00     0.013 A 
ENDBRANCH   2  17
TORSDOF 3
ENDMDL
MODEL 3
REMARK VINA RESULT:      -6.6      2.687      4.830
REMARK  3 active torsions:
REMARK  status: ('A' for Active; 'I' for Inactive)
REMARK       I    between atoms: C5_9  and  N1_4 
REMARK    1  A    between atoms: C5_9  and  C6_10 
REMARK    2  A    between atoms: C6_10  and  C7_11 
REMARK    3  A    between atoms: C8_12  and  C9_13 
ROOT
HETATM    1  C6  UNK     1      31.306  -6.899  34.960  1.00  0.00     0.043 C 
HETATM    2  C8  UNK     1      30.103  -6.658  35.512  1.00  0.00     0.031 C 
ENDROOT
BRANCH   1   3
HETATM    3  C5  UNK     1      31.269  -7.602  33.663  1.00  0.00     0.254 C 
HETATM    4  O2  UNK     1      31.590  -8.791  33.652  1.00  0.00    -0.267 OA
HETATM    5  N1  UNK     1      30.879  -6.879  32.540  1.00  0.00    -0.344 N 
HETATM    6  C1  UNK     1      30.486  -5.464  32.495  1.00  0.00     0.152 C 
HETATM    7  C2  UNK     1      30.978  -7.500  31.217  1.00  0.00     0.152 C 
HETATM    8  C3  UNK     1      29.228  -5.298  31.652  1.00  0.00     0.187 C 
HETATM    9  O1  UNK     1      29.426  -5.853  30.349  1.00  0.00    -0.388 OA
HETATM   10  C4  UNK     1      29.703  -7.255  30.424  1.00  0.00     0.187 C 
ENDBRANCH   1   3
BRANCH   1  11
HETATM   11  C7  UNK     1      32.601  -6.519  35.543  1.00  0.00    -0.021 A 
HETATM   12  C10 UNK     1      33.111  -7.252  36.604  1.00  0.00     0.012 A 
HETATM   13  C14 UNK     1      34.341  -6.893  37.156  1.00  0.00     0.001 A 
HETATM   14  C16 UNK     1      35.046  -5.805  36.642  1.00  0.00     0.000 A 
HETATM   15  C15 UNK     1      34.522  -5.076  35.574  1.00  0.00     0.001 A 
HETATM   16  C11 UNK     1      33.292  -5.436  35.022  1.00  0.00     0.012 A 
ENDBRANCH   1  11
BRANCH   2  17
HETATM   17  C9  UNK     1      29.865  -6.005  36.808  1.00  0.00    -0.013 A 
HETATM   18  C12 UNK     1      29.265  -6.675  37.866  1.00  0.00     0.044 A 
HETATM   19 Cl1  UNK     1      28.753  -8.323  37.745  1.00  0.00    -0.083 Cl
HETATM   20  C17 UNK     1      29.061  -6.011  39.075  1.00  0.00     0.024 A 
HETATM   21  C19 UNK     1      29.458  -4.681  39.215  1.00  0.00     0.002 A 
HETATM   22  C18 UNK     1      30.060  -4.016  38.146  1.00  0.00     0.001 A 
HETATM   23  C13 UNK     1      30.264  -4.681  36.937  1.00  0.00     0.013 A 
ENDBRANCH   2  17
TORSDOF 3
ENDMDL
MODEL 4
REMARK VINA RESULT:      -6.5      2.889      6.362
REMARK  3 active torsions:
REMARK  status: ('A' for Active; 'I' for Inactive)
REMARK       I    between atoms: C5_9  and  N1_4 
REMARK    1  A    between atoms: C5_9  and  C6_10 
REMARK    2  A    between atoms: C6_10  and  C7_11 
REMARK    3  A    between atoms: C8_12  and  C9_13 
ROOT
HETATM    1  C6  UNK     1      30.587  -5.856  35.315  1.00  0.00     0.043 C 
HETATM    2  C8  UNK     1      29.683  -6.113  34.353  1.00  0.00     0.031 C 
ENDROOT
BRANCH   1   3
HETATM    3  C5  UNK     1      30.044  -5.806  36.687  1.00  0.00     0.254 C 
HETATM    4  O2  UNK     1      29.870  -4.695  37.189  1.00  0.00    -0.267 OA
HETATM    5  N1  UNK     1      29.768  -7.012  37.323  1.00  0.00    -0.344 N 
HETATM    6  C1  UNK     1      29.955  -8.362  36.775  1.00  0.00     0.152 C 
HETATM    7  C2  UNK     1      29.375  -7.005  38.734  1.00  0.00     0.152 C 
HETATM    8  C3  UNK     1      28.730  -9.219  37.066  1.00  0.00     0.187 C 
HETATM    9  O1  UNK     1      28.454  -9.232  38.469  1.00  0.00    -0.388 OA
HETATM   10  C4  UNK     1      28.173  -7.914  38.951  1.00  0.00     0.187 C 
ENDBRANCH   1   3
BRANCH   1  11
HETATM   11  C7  UNK     1      32.023  -5.633  35.096  1.00  0.00    -0.021 A 
HETATM   12  C10 UNK     1      32.493  -4.340  34.921  1.00  0.00     0.012 A 
HETATM   13  C14 UNK     1      33.856  -4.128  34.714  1.00  0.00     0.001 A 
HETATM   14  C16 UNK     1      34.734  -5.212  34.683  1.00  0.00     0.000 A 
HETATM   15  C15 UNK     1      34.249  -6.507  34.860  1.00  0.00     0.001 A 
HETATM   16  C11 UNK     1      32.886  -6.719  35.068  1.00  0.00     0.012 A 
ENDBRANCH   1  11
BRANCH   2  17
HETATM   17  C9  UNK     1      29.957  -6.185  32.910  1.00  0.00    -0.013 A 
HETATM   18  C12 UNK     1      30.395  -7.356  32.307  1.00  0.00     0.044 A 
HETATM   19 Cl1  UNK     1      30.653  -8.815  33.199  1.00  0.00    -0.083 Cl
HETATM   20  C17 UNK     1      30.641  -7.374  30.935  1.00  0.00     0.024 A 
HETATM   21  C19 UNK     1      30.446  -6.218  30.177  1.00  0.00     0.002 A 
HETATM   22  C18 UNK     1      30.005  -5.046  30.792  1.00  0.00     0.001 A 
HETATM   23  C13 UNK     1      29.759  -5.030  32.165  1.00  0.00     0.013 A 
ENDBRANCH   2  17
TORSDOF 3
ENDMDL
MODEL 5
REMARK VINA RESULT:      -6.5      1.362      2.029
REMARK  3 active torsions:
REMARK  status: ('A' for Active; 'I' for Inactive)
REMARK       I    between atoms: C5_9  and  N1_4 
REMARK    1  A    between atoms: C5_9  and  C6_10 
REMARK    2  A    between atoms: C6_10  and  C7_11 
REMARK    3  A    between atoms: C8_12  and  C9_13 
ROOT
HETATM    1  C6  UNK     1      30.827  -7.527  37.035  1.00  0.00     0.043 C 
HETATM    2  C8  UNK     1      30.246  -7.205  38.204  1.00  0.00     0.031 C 
ENDROOT
BRANCH   1   3
HETATM    3  C5  UNK     1      32.297  -7.392  37.008  1.00  0.00     0.254 C 
HETATM    4  O2  UNK     1      32.964  -8.401  37.242  1.00  0.00    -0.267 OA
HETATM    5  N1  UNK     1      32.832  -6.140  36.725  1.00  0.00    -0.344 N 
HETATM    6  C1  UNK     1      32.086  -4.907  36.439  1.00  0.00     0.152 C 
HETATM    7  C2  UNK     1      34.277  -5.935  36.841  1.00  0.00     0.152 C 
HETATM    8  C3  UNK     1      32.694  -4.195  35.238  1.00  0.00     0.187 C 
HETATM    9  O1  UNK     1      34.088  -3.955  35.455  1.00  0.00    -0.388 OA
HETATM   10  C4  UNK     1      34.801  -5.183  35.626  1.00  0.00     0.187 C 
ENDBRANCH   1   3
BRANCH   1  11
HETATM   11  C7  UNK     1      30.119  -7.988  35.831  1.00  0.00    -0.021 A 
HETATM   12  C10 UNK     1      29.974  -9.348  35.605  1.00  0.00     0.012 A 
HETATM   13  C14 UNK     1      29.302  -9.785  34.463  1.00  0.00     0.001 A 
HETATM   14  C16 UNK     1      28.783  -8.857  33.561  1.00  0.00     0.000 A 
HETATM   15  C15 UNK     1      28.936  -7.491  33.800  1.00  0.00     0.001 A 
HETATM   16  C11 UNK     1      29.608  -7.055  34.941  1.00  0.00     0.012 A 
ENDBRANCH   1  11
BRANCH   2  17
HETATM   17  C9  UNK     1      28.802  -7.223  38.483  1.00  0.00    -0.013 A 
HETATM   18  C12 UNK     1      28.149  -8.382  38.882  1.00  0.00     0.044 A 
HETATM   19 Cl1  UNK     1      28.976  -9.887  39.081  1.00  0.00    -0.083 Cl
HETATM   20  C17 UNK     1      26.778  -8.347  39.135  1.00  0.00     0.024 A 
HETATM   21  C19 UNK     1      26.072  -7.153  38.986  1.00  0.00     0.002 A 
HETATM   22  C18 UNK     1      26.738  -5.993  38.585  1.00  0.00     0.001 A 
HETATM   23  C13 UNK     1      28.109  -6.029  38.333  1.00  0.00     0.013 A 
ENDBRANCH   2  17
TORSDOF 3
ENDMDL
MODEL 6
REMARK VINA RESULT:      -6.5      2.953      4.946
REMARK  3 active torsions:
REMARK  status: ('A' for Active; 'I' for Inactive)
REMARK       I    between atoms: C5_9  and  N1_4 
REMARK    1  A    between atoms: C5_9  and  C6_10 
REMARK    2  A    between atoms: C6_10  and  C7_11 
REMARK    3  A    between atoms: C8_12  and  C9_13 
ROOT
HETATM    1  C6  UNK     1      32.422  -6.536  35.011  1.00  0.00     0.043 C 
HETATM    2  C8  UNK     1      31.818  -7.066  33.932  1.00  0.00     0.031 C 
ENDROOT
BRANCH   1   3
HETATM    3  C5  UNK     1      33.720  -7.144  35.363  1.00  0.00     0.254 C 
HETATM    4  O2  UNK     1      33.749  -7.897  36.337  1.00  0.00    -0.267 OA
HETATM    5  N1  UNK     1      34.823  -6.826  34.577  1.00  0.00    -0.344 N 
HETATM    6  C1  UNK     1      34.847  -5.938  33.408  1.00  0.00     0.152 C 
HETATM    7  C2  UNK     1      36.152  -7.287  34.987  1.00  0.00     0.152 C 
HETATM    8  C3  UNK     1      35.638  -6.583  32.277  1.00  0.00     0.187 C 
HETATM    9  O1  UNK     1      36.951  -6.932  32.726  1.00  0.00    -0.388 OA
HETATM   10  C4  UNK     1      36.894  -7.878  33.797  1.00  0.00     0.187 C 
ENDBRANCH   1   3
BRANCH   1  11
HETATM   11  C7  UNK     1      31.892  -5.434  35.826  1.00  0.00    -0.021 A 
HETATM   12  C10 UNK     1      32.452  -4.170  35.710  1.00  0.00     0.012 A 
HETATM   13  C14 UNK     1      31.949  -3.124  36.483  1.00  0.00     0.001 A 
HETATM   14  C16 UNK     1      30.893  -3.353  37.365  1.00  0.00     0.000 A 
HETATM   15  C15 UNK     1      30.339  -4.629  37.473  1.00  0.00     0.001 A 
HETATM   16  C11 UNK     1      30.842  -5.675  36.699  1.00  0.00     0.012 A 
ENDBRANCH   1  11
BRANCH   2  17
HETATM   17  C9  UNK     1      30.511  -6.665  33.392  1.00  0.00    -0.013 A 
HETATM   18  C12 UNK     1      29.340  -7.320  33.750  1.00  0.00     0.044 A 
HETATM   19 Cl1  UNK     1      29.326  -8.652  34.853  1.00  0.00    -0.083 Cl
HETATM   20  C17 UNK     1      28.124  -6.902  33.210  1.00  0.00     0.024 A 
HETATM   21  C19 UNK     1      28.090  -5.831  32.316  1.00  0.00     0.002 A 
HETATM   22  C18 UNK     1      29.272  -5.179  31.963  1.00  0.00     0.001 A 
HETATM   23  C13 UNK     1      30.488  -5.598  32.503  1.00  0.00     0.013 A 
ENDBRANCH   2  17
TORSDOF 3
ENDMDL
MODEL 7
REMARK VINA RESULT:      -6.5      2.380      3.251
REMARK  3 active torsions:
REMARK  status: ('A' for Active; 'I' for Inactive)
REMARK       I    between atoms: C5_9  and  N1_4 
REMARK    1  A    between atoms: C5_9  and  C6_10 
REMARK    2  A    between atoms: C6_10  and  C7_11 
REMARK    3  A    between atoms: C8_12  and  C9_13 
ROOT
HETATM    1  C6  UNK     1      31.515  -7.288  34.972  1.00  0.00     0.043 C 
HETATM    2  C8  UNK     1      31.657  -7.035  36.286  1.00  0.00     0.031 C 
ENDROOT
BRANCH   1   3
HETATM    3  C5  UNK     1      32.478  -8.258  34.414  1.00  0.00     0.254 C 
HETATM    4  O2  UNK     1      32.064  -9.391  34.165  1.00  0.00    -0.267 OA
HETATM    5  N1  UNK     1      33.786  -7.833  34.208  1.00  0.00    -0.344 N 
HETATM    6  C1  UNK     1      34.334  -6.498  34.485  1.00  0.00     0.152 C 
HETATM    7  C2  UNK     1      34.802  -8.807  33.801  1.00  0.00     0.152 C 
HETATM    8  C3  UNK     1      35.187  -6.030  33.314  1.00  0.00     0.187 C 
HETATM    9  O1  UNK     1      36.207  -6.991  33.026  1.00  0.00    -0.388 OA
HETATM   10  C4  UNK     1      35.638  -8.250  32.658  1.00  0.00     0.187 C 
ENDBRANCH   1   3
BRANCH   1  11
HETATM   11  C7  UNK     1      30.502  -6.685  34.094  1.00  0.00    -0.021 A 
HETATM   12  C10 UNK     1      29.175  -7.063  34.226  1.00  0.00     0.012 A 
HETATM   13  C14 UNK     1      28.213  -6.490  33.393  1.00  0.00     0.001 A 
HETATM   14  C16 UNK     1      28.590  -5.546  32.438  1.00  0.00     0.000 A 
HETATM   15  C15 UNK     1      29.929  -5.174  32.316  1.00  0.00     0.001 A 
HETATM   16  C11 UNK     1      30.890  -5.747  33.149  1.00  0.00     0.012 A 
ENDBRANCH   1  11
BRANCH   2  17
HETATM   17  C9  UNK     1      30.851  -6.092  37.074  1.00  0.00    -0.013 A 
HETATM   18  C12 UNK     1      31.065  -4.721  37.015  1.00  0.00     0.044 A 
HETATM   19 Cl1  UNK     1      32.289  -4.018  36.016  1.00  0.00    -0.083 Cl
HETATM   20  C17 UNK     1      30.273  -3.867  37.782  1.00  0.00     0.024 A 
HETATM   21  C19 UNK     1      29.274  -4.392  38.603  1.00  0.00     0.002 A 
HETATM   22  C18 UNK     1      29.067  -5.771  38.655  1.00  0.00     0.001 A 
HETATM   23  C13 UNK     1      29.859  -6.624  37.887  1.00  0.00     0.013 A 
ENDBRANCH   2  17
TORSDOF 3
ENDMDL
MODEL 8
REMARK VINA RESULT:      -6.5      3.033      6.252
REMARK  3 active torsions:
REMARK  status: ('A' for Active; 'I' for Inactive)
REMARK       I    between atoms: C5_9  and  N1_4 
REMARK    1  A    between atoms: C5_9  and  C6_10 
REMARK    2  A    between atoms: C6_10  and  C7_11 
REMARK    3  A    between atoms: C8_12  and  C9_13 
ROOT
HETATM    1  C6  UNK     1      30.032  -7.441  36.186  1.00  0.00     0.043 C 
HETATM    2  C8  UNK     1      29.637  -7.879  34.978  1.00  0.00     0.031 C 
ENDROOT
BRANCH   1   3
HETATM    3  C5  UNK     1      29.896  -8.420  37.282  1.00  0.00     0.254 C 
HETATM    4  O2  UNK     1      30.922  -8.974  37.681  1.00  0.00    -0.267 OA
HETATM    5  N1  UNK     1      28.623  -8.657  37.790  1.00  0.00    -0.344 N 
HETATM    6  C1  UNK     1      27.369  -8.028  37.355  1.00  0.00     0.152 C 
HETATM    7  C2  UNK     1      28.429  -9.730  38.768  1.00  0.00     0.152 C 
HETATM    8  C3  UNK     1      26.550  -7.602  38.567  1.00  0.00     0.187 C 
HETATM    9  O1  UNK     1      26.330  -8.717  39.436  1.00  0.00    -0.388 OA
HETATM   10  C4  UNK     1      27.569  -9.240  39.924  1.00  0.00     0.187 C 
ENDBRANCH   1   3
BRANCH   1  11
HETATM   11  C7  UNK     1      30.570  -6.103  36.473  1.00  0.00    -0.021 A 
HETATM   12  C10 UNK     1      29.825  -5.219  37.238  1.00  0.00     0.012 A 
HETATM   13  C14 UNK     1      30.336  -3.949  37.511  1.00  0.00     0.001 A 
HETATM   14  C16 UNK     1      31.585  -3.579  37.015  1.00  0.00     0.000 A 
HETATM   15  C15 UNK     1      32.326  -4.478  36.247  1.00  0.00     0.001 A 
HETATM   16  C11 UNK     1      31.815  -5.747  35.974  1.00  0.00     0.012 A 
ENDBRANCH   1  11
BRANCH   2  17
HETATM   17  C9  UNK     1      29.641  -7.095  33.733  1.00  0.00    -0.013 A 
HETATM   18  C12 UNK     1      30.714  -7.127  32.852  1.00  0.00     0.044 A 
HETATM   19 Cl1  UNK     1      32.123  -8.085  33.146  1.00  0.00    -0.083 Cl
HETATM   20  C17 UNK     1      30.670  -6.365  31.685  1.00  0.00     0.024 A 
HETATM   21  C19 UNK     1      29.552  -5.577  31.409  1.00  0.00     0.002 A 
HETATM   22  C18 UNK     1      28.478  -5.552  32.300  1.00  0.00     0.001 A 
HETATM   23  C13 UNK     1      28.524  -6.315  33.468  1.00  0.00     0.013 A 
ENDBRANCH   2  17
TORSDOF 3
ENDMDL
MODEL 9
REMARK VINA RESULT:      -6.5      2.819      5.146
REMARK  3 active torsions:
REMARK  status: ('A' for Active; 'I' for Inactive)
REMARK       I    between atoms: C5_9  and  N1_4 
REMARK    1  A    between atoms: C5_9  and  C6_10 
REMARK    2  A    between atoms: C6_10  and  C7_11 
REMARK    3  A    between atoms: C8_12  and  C9_13 
ROOT
HETATM    1  C6  UNK     1      30.986  -6.004  34.349  1.00  0.00     0.043 C 
HETATM    2  C8  UNK     1      30.766  -5.512  33.117  1.00  0.00     0.031 C 
ENDROOT
BRANCH   1   3
HETATM    3  C5  UNK     1      31.995  -5.275  35.143  1.00  0.00     0.254 C 
HETATM    4  O2  UNK     1      31.588  -4.417  35.928  1.00  0.00    -0.267 OA
HETATM    5  N1  UNK     1      33.333  -5.601  34.954  1.00  0.00    -0.344 N 
HETATM    6  C1  UNK     1      33.874  -6.612  34.035  1.00  0.00     0.152 C 
HETATM    7  C2  UNK     1      34.367  -4.796  35.608  1.00  0.00     0.152 C 
HETATM    8  C3  UNK     1      34.933  -7.447  34.742  1.00  0.00     0.187 C 
HETATM    9  O1  UNK     1      35.952  -6.602  35.285  1.00  0.00    -0.388 OA
HETATM   10  C4  UNK     1      35.408  -5.699  36.253  1.00  0.00     0.187 C 
ENDBRANCH   1   3
BRANCH   1  11
HETATM   11  C7  UNK     1      30.312  -7.173  34.932  1.00  0.00    -0.021 A 
HETATM   12  C10 UNK     1      29.195  -6.987  35.732  1.00  0.00     0.012 A 
HETATM   13  C14 UNK     1      28.555  -8.097  36.284  1.00  0.00     0.001 A 
HETATM   14  C16 UNK     1      29.039  -9.380  36.030  1.00  0.00     0.000 A 
HETATM   15  C15 UNK     1      30.163  -9.554  35.223  1.00  0.00     0.001 A 
HETATM   16  C11 UNK     1      30.803  -8.444  34.671  1.00  0.00     0.012 A 
ENDBRANCH   1  11
BRANCH   2  17
HETATM   17  C9  UNK     1      29.839  -6.068  32.120  1.00  0.00    -0.013 A 
HETATM   18  C12 UNK     1      30.288  -6.842  31.057  1.00  0.00     0.044 A 
HETATM   19 Cl1  UNK     1      31.960  -7.212  30.824  1.00  0.00    -0.083 Cl
HETATM   20  C17 UNK     1      29.369  -7.347  30.138  1.00  0.00     0.024 A 
HETATM   21  C19 UNK     1      28.009  -7.072  30.288  1.00  0.00     0.002 A 
HETATM   22  C18 UNK     1      27.569  -6.294  31.360  1.00  0.00     0.001 A 
HETATM   23  C13 UNK     1      28.489  -5.789  32.279  1.00  0.00     0.013 A 
ENDBRANCH   2  17
TORSDOF 3
ENDMDL
MODEL 10
REMARK VINA RESULT:      -6.4      2.425      4.640
REMARK  3 active torsions:
REMARK  status: ('A' for Active; 'I' for Inactive)
REMARK       I    between atoms: C5_9  and  N1_4 
REMARK    1  A    between atoms: C5_9  and  C6_10 
REMARK    2  A    between atoms: C6_10  and  C7_11 
REMARK    3  A    between atoms: C8_12  and  C9_13 
ROOT
HETATM    1  C6  UNK     1      30.765  -8.122  34.131  1.00  0.00     0.043 C 
HETATM    2  C8  UNK     1      30.780  -7.860  32.812  1.00  0.00     0.031 C 
ENDROOT
BRANCH   1   3
HETATM    3  C5  UNK     1      32.092  -8.331  34.743  1.00  0.00     0.254 C 
HETATM    4  O2  UNK     1      32.514  -9.486  34.804  1.00  0.00    -0.267 OA
HETATM    5  N1  UNK     1      32.776  -7.215  35.213  1.00  0.00    -0.344 N 
HETATM    6  C1  UNK     1      32.322  -5.818  35.168  1.00  0.00     0.152 C 
HETATM    7  C2  UNK     1      34.021  -7.399  35.962  1.00  0.00     0.152 C 
HETATM    8  C3  UNK     1      33.453  -4.916  34.692  1.00  0.00     0.187 C 
HETATM    9  O1  UNK     1      34.608  -5.090  35.518  1.00  0.00    -0.388 OA
HETATM   10  C4  UNK     1      35.086  -6.437  35.457  1.00  0.00     0.187 C 
ENDBRANCH   1   3
BRANCH   1  11
HETATM   11  C7  UNK     1      29.559  -8.209  34.967  1.00  0.00    -0.021 A 
HETATM   12  C10 UNK     1      29.030  -7.053  35.522  1.00  0.00     0.012 A 
HETATM   13  C14 UNK     1      27.885  -7.136  36.315  1.00  0.00     0.001 A 
HETATM   14  C16 UNK     1      27.283  -8.372  36.545  1.00  0.00     0.000 A 
HETATM   15  C15 UNK     1      27.825  -9.527  35.982  1.00  0.00     0.001 A 
HETATM   16  C11 UNK     1      28.969  -9.445  35.188  1.00  0.00     0.012 A 
ENDBRANCH   1  11
BRANCH   2  17
HETATM   17  C9  UNK     1      29.600  -7.645  31.962  1.00  0.00    -0.013 A 
HETATM   18  C12 UNK     1      29.162  -6.370  31.628  1.00  0.00     0.044 A 
HETATM   19 Cl1  UNK     1      29.964  -4.942  32.182  1.00  0.00    -0.083 Cl
HETATM   20  C17 UNK     1      28.036  -6.219  30.819  1.00  0.00     0.024 A 
HETATM   21  C19 UNK     1      27.358  -7.345  30.350  1.00  0.00     0.002 A 
HETATM   22  C18 UNK     1      27.807  -8.622  30.691  1.00  0.00     0.001 A 
HETATM   23  C13 UNK     1      28.933  -8.772  31.500  1.00  0.00     0.013 A 
ENDBRANCH   2  17
TORSDOF 3
ENDMDL
