MODEL 1
REMARK VINA RESULT:     -10.8      0.000      0.000
REMARK  4 active torsions:
REMARK  status: ('A' for Active; 'I' for Inactive)
REMARK       I    between atoms: C13_18  and  N2_5 
REMARK    1  A    between atoms: C6_11  and  N2_5 
REMARK    2  A    between atoms: C1_6  and  C3_8 
REMARK    3  A    between atoms: C3_8  and  C6_11 
REMARK    4  A    between atoms: C13_18  and  C14_19 
ROOT
HETATM    1  O2  UNK     1      18.004   2.597  28.419  1.00  0.00    -0.267 OA
HETATM    2  N2  UNK     1      18.998   3.862  30.107  1.00  0.00    -0.356 N 
HETATM    3  C13 UNK     1      18.595   2.689  29.494  1.00  0.00     0.257 C 
HETATM    4  H12 UNK     1      19.510   3.831  30.983  1.00  0.00     0.162 HD
ENDROOT
BRANCH   2   5
HETATM    5  C6  UNK     1      18.765   5.169  29.536  1.00  0.00     0.127 C 
BRANCH   5   6
HETATM    6  C3  UNK     1      19.667   6.218  30.185  1.00  0.00     0.061 C 
BRANCH   6   7
HETATM    7  C1  UNK     1      19.388   6.412  31.655  1.00  0.00    -0.022 A 
HETATM    8  C2  UNK     1      18.124   6.664  32.214  1.00  0.00    -0.001 A 
HETATM    9  C5  UNK     1      18.326   6.773  33.592  1.00  0.00     0.043 A 
HETATM   10  C7  UNK     1      16.818   6.815  31.706  1.00  0.00     0.021 A 
HETATM   11  N1  UNK     1      19.671   6.587  33.820  1.00  0.00    -0.359 N 
HETATM   12  C8  UNK     1      17.284   7.026  34.490  1.00  0.00     0.031 A 
HETATM   13  C4  UNK     1      20.324   6.366  32.637  1.00  0.00     0.013 A 
HETATM   14  H3  UNK     1      20.108   6.612  34.731  1.00  0.00     0.166 HD
HETATM   15  C10 UNK     1      21.782   6.138  32.605  1.00  0.00     0.068 C 
HETATM   16  C11 UNK     1      15.996   7.172  33.963  1.00  0.00     0.009 A 
HETATM   17  C9  UNK     1      15.766   7.068  32.593  1.00  0.00    -0.061 A 
HETATM   18  C12 UNK     1      14.380   7.230  32.062  1.00  0.00     0.048 C 
ENDBRANCH   6   7
ENDBRANCH   5   6
ENDBRANCH   2   5
BRANCH   3  19
HETATM   19  C14 UNK     1      18.948   1.492  30.266  1.00  0.00     0.108 A 
HETATM   20  C16 UNK     1      19.581   0.521  29.595  1.00  0.00     0.037 A 
HETATM   21  C15 UNK     1      19.972  -0.704  30.273  1.00  0.00    -0.001 A 
HETATM   22  C17 UNK     1      19.678  -0.848  31.624  1.00  0.00     0.089 A 
HETATM   23  C19 UNK     1      20.633  -1.742  29.613  1.00  0.00     0.014 A 
HETATM   24  O1  UNK     1      19.012   0.177  32.326  1.00  0.00    -0.274 OA
HETATM   25  C20 UNK     1      20.025  -1.997  32.334  1.00  0.00     0.038 A 
HETATM   26  C18 UNK     1      18.626   1.360  31.703  1.00  0.00     0.304 A 
HETATM   27  O3  UNK     1      18.046   2.247  32.322  1.00  0.00    -0.259 OA
HETATM   28  C22 UNK     1      20.684  -3.027  31.667  1.00  0.00     0.003 A 
HETATM   29  C21 UNK     1      20.988  -2.902  30.310  1.00  0.00     0.001 A 
ENDBRANCH   3  19
TORSDOF 4
ENDMDL
MODEL 2
REMARK VINA RESULT:     -10.0      2.012      3.054
REMARK  4 active torsions:
REMARK  status: ('A' for Active; 'I' for Inactive)
REMARK       I    between atoms: C13_18  and  N2_5 
REMARK    1  A    between atoms: C6_11  and  N2_5 
REMARK    2  A    between atoms: C1_6  and  C3_8 
REMARK    3  A    between atoms: C3_8  and  C6_11 
REMARK    4  A    between atoms: C13_18  and  C14_19 
ROOT
HETATM    1  O2  UNK     1      17.588   2.254  29.830  1.00  0.00    -0.267 OA
HETATM    2  N2  UNK     1      19.063   3.761  30.825  1.00  0.00    -0.356 N 
HETATM    3  C13 UNK     1      18.313   2.600  30.760  1.00  0.00     0.257 C 
HETATM    4  H12 UNK     1      19.657   3.942  31.628  1.00  0.00     0.162 HD
ENDROOT
BRANCH   2   5
HETATM    5  C6  UNK     1      19.083   4.745  29.766  1.00  0.00     0.127 C 
BRANCH   5   6
HETATM    6  C3  UNK     1      19.710   6.053  30.247  1.00  0.00     0.061 C 
BRANCH   6   7
HETATM    7  C1  UNK     1      19.432   6.343  31.701  1.00  0.00    -0.022 A 
HETATM    8  C2  UNK     1      18.168   6.626  32.244  1.00  0.00    -0.001 A 
HETATM    9  C5  UNK     1      18.371   6.829  33.611  1.00  0.00     0.043 A 
HETATM   10  C7  UNK     1      16.861   6.735  31.729  1.00  0.00     0.021 A 
HETATM   11  N1  UNK     1      19.717   6.666  33.849  1.00  0.00    -0.359 N 
HETATM   12  C8  UNK     1      17.329   7.135  34.493  1.00  0.00     0.031 A 
HETATM   13  C4  UNK     1      20.370   6.369  32.683  1.00  0.00     0.013 A 
HETATM   14  H3  UNK     1      20.155   6.755  34.755  1.00  0.00     0.166 HD
HETATM   15  C10 UNK     1      21.829   6.147  32.663  1.00  0.00     0.068 C 
HETATM   16  C11 UNK     1      16.040   7.238  33.959  1.00  0.00     0.009 A 
HETATM   17  C9  UNK     1      15.808   7.041  32.599  1.00  0.00    -0.061 A 
HETATM   18  C12 UNK     1      14.421   7.160  32.061  1.00  0.00     0.048 C 
ENDBRANCH   6   7
ENDBRANCH   5   6
ENDBRANCH   2   5
BRANCH   3  19
HETATM   19  C14 UNK     1      18.460   1.760  31.955  1.00  0.00     0.108 A 
HETATM   20  C16 UNK     1      18.093   2.315  33.117  1.00  0.00     0.037 A 
HETATM   21  C15 UNK     1      18.201   1.561  34.356  1.00  0.00    -0.001 A 
HETATM   22  C17 UNK     1      18.690   0.260  34.311  1.00  0.00     0.089 A 
HETATM   23  C19 UNK     1      17.832   2.100  35.590  1.00  0.00     0.014 A 
HETATM   24  O1  UNK     1      19.074  -0.320  33.085  1.00  0.00    -0.274 OA
HETATM   25  C20 UNK     1      18.819  -0.517  35.461  1.00  0.00     0.038 A 
HETATM   26  C18 UNK     1      18.981   0.378  31.884  1.00  0.00     0.304 A 
HETATM   27  O3  UNK     1      19.318  -0.135  30.821  1.00  0.00    -0.259 OA
HETATM   28  C22 UNK     1      18.448   0.029  36.688  1.00  0.00     0.003 A 
HETATM   29  C21 UNK     1      17.955   1.334  36.754  1.00  0.00     0.001 A 
ENDBRANCH   3  19
TORSDOF 4
ENDMDL
MODEL 3
REMARK VINA RESULT:      -9.9      1.888      2.551
REMARK  4 active torsions:
REMARK  status: ('A' for Active; 'I' for Inactive)
REMARK       I    between atoms: C13_18  and  N2_5 
REMARK    1  A    between atoms: C6_11  and  N2_5 
REMARK    2  A    between atoms: C1_6  and  C3_8 
REMARK    3  A    between atoms: C3_8  and  C6_11 
REMARK    4  A    between atoms: C13_18  and  C14_19 
ROOT
HETATM    1  O2  UNK     1      17.077   4.508  31.879  1.00  0.00    -0.267 OA
HETATM    2  N2  UNK     1      19.362   4.972  31.826  1.00  0.00    -0.356 N 
HETATM    3  C13 UNK     1      18.251   4.147  31.820  1.00  0.00     0.257 C 
HETATM    4  H12 UNK     1      20.293   4.575  31.742  1.00  0.00     0.162 HD
ENDROOT
BRANCH   2   5
HETATM    5  C6  UNK     1      19.273   6.411  31.906  1.00  0.00     0.127 C 
BRANCH   5   6
HETATM    6  C3  UNK     1      19.314   6.882  33.359  1.00  0.00     0.061 C 
BRANCH   6   7
HETATM    7  C1  UNK     1      18.555   8.165  33.588  1.00  0.00    -0.022 A 
HETATM    8  C2  UNK     1      17.182   8.348  33.353  1.00  0.00    -0.001 A 
HETATM    9  C5  UNK     1      16.905   9.673  33.697  1.00  0.00     0.043 A 
HETATM   10  C7  UNK     1      16.132   7.536  32.881  1.00  0.00     0.021 A 
HETATM   11  N1  UNK     1      18.087  10.238  34.122  1.00  0.00    -0.359 N 
HETATM   12  C8  UNK     1      15.625  10.228  33.595  1.00  0.00     0.031 A 
HETATM   13  C4  UNK     1      19.099   9.319  34.056  1.00  0.00     0.013 A 
HETATM   14  H3  UNK     1      18.187  11.194  34.434  1.00  0.00     0.166 HD
HETATM   15  C10 UNK     1      20.475   9.673  34.456  1.00  0.00     0.068 C 
HETATM   16  C11 UNK     1      14.598   9.403  33.125  1.00  0.00     0.009 A 
HETATM   17  C9  UNK     1      14.847   8.078  32.773  1.00  0.00    -0.061 A 
HETATM   18  C12 UNK     1      13.729   7.223  32.274  1.00  0.00     0.048 C 
ENDBRANCH   6   7
ENDBRANCH   5   6
ENDBRANCH   2   5
BRANCH   3  19
HETATM   19  C14 UNK     1      18.598   2.724  31.729  1.00  0.00     0.108 A 
HETATM   20  C16 UNK     1      19.049   2.300  30.541  1.00  0.00     0.037 A 
HETATM   21  C15 UNK     1      19.417   0.906  30.352  1.00  0.00    -0.001 A 
HETATM   22  C17 UNK     1      19.294   0.026  31.423  1.00  0.00     0.089 A 
HETATM   23  C19 UNK     1      19.891   0.420  29.132  1.00  0.00     0.014 A 
HETATM   24  O1  UNK     1      18.820   0.478  32.670  1.00  0.00    -0.274 OA
HETATM   25  C20 UNK     1      19.630  -1.322  31.308  1.00  0.00     0.038 A 
HETATM   26  C18 UNK     1      18.459   1.806  32.881  1.00  0.00     0.304 A 
HETATM   27  O3  UNK     1      18.047   2.190  33.970  1.00  0.00    -0.259 OA
HETATM   28  C22 UNK     1      20.102  -1.798  30.087  1.00  0.00     0.003 A 
HETATM   29  C21 UNK     1      20.233  -0.930  29.001  1.00  0.00     0.001 A 
ENDBRANCH   3  19
TORSDOF 4
ENDMDL
MODEL 4
REMARK VINA RESULT:      -9.8      2.221      2.722
REMARK  4 active torsions:
REMARK  status: ('A' for Active; 'I' for Inactive)
REMARK       I    between atoms: C13_18  and  N2_5 
REMARK    1  A    between atoms: C6_11  and  N2_5 
REMARK    2  A    between atoms: C1_6  and  C3_8 
REMARK    3  A    between atoms: C3_8  and  C6_11 
REMARK    4  A    between atoms: C13_18  and  C14_19 
ROOT
HETATM    1  O2  UNK     1      18.927   4.672  30.266  1.00  0.00    -0.267 OA
HETATM    2  N2  UNK     1      17.446   4.479  32.057  1.00  0.00    -0.356 N 
HETATM    3  C13 UNK     1      18.376   4.012  31.146  1.00  0.00     0.257 C 
HETATM    4  H12 UNK     1      17.071   3.858  32.768  1.00  0.00     0.162 HD
ENDROOT
BRANCH   2   5
HETATM    5  C6  UNK     1      16.992   5.850  32.086  1.00  0.00     0.127 C 
BRANCH   5   6
HETATM    6  C3  UNK     1      17.003   6.400  33.511  1.00  0.00     0.061 C 
BRANCH   6   7
HETATM    7  C1  UNK     1      18.010   7.504  33.713  1.00  0.00    -0.022 A 
HETATM    8  C2  UNK     1      17.702   8.868  33.851  1.00  0.00    -0.001 A 
HETATM    9  C5  UNK     1      18.924   9.525  34.016  1.00  0.00     0.043 A 
HETATM   10  C7  UNK     1      16.517   9.629  33.855  1.00  0.00     0.021 A 
HETATM   11  N1  UNK     1      19.909   8.564  33.975  1.00  0.00    -0.359 N 
HETATM   12  C8  UNK     1      19.019  10.910  34.186  1.00  0.00     0.031 A 
HETATM   13  C4  UNK     1      19.355   7.327  33.789  1.00  0.00     0.013 A 
HETATM   14  H3  UNK     1      20.898   8.752  34.068  1.00  0.00     0.166 HD
HETATM   15  C10 UNK     1      20.200   6.119  33.708  1.00  0.00     0.068 C 
HETATM   16  C11 UNK     1      17.829  11.645  34.187  1.00  0.00     0.009 A 
HETATM   17  C9  UNK     1      16.597  11.015  34.024  1.00  0.00    -0.061 A 
HETATM   18  C12 UNK     1      15.345  11.829  34.028  1.00  0.00     0.048 C 
ENDBRANCH   6   7
ENDBRANCH   5   6
ENDBRANCH   2   5
BRANCH   3  19
HETATM   19  C14 UNK     1      18.679   2.586  31.318  1.00  0.00     0.108 A 
HETATM   20  C16 UNK     1      19.226   1.965  30.266  1.00  0.00     0.037 A 
HETATM   21  C15 UNK     1      19.560   0.552  30.340  1.00  0.00    -0.001 A 
HETATM   22  C17 UNK     1      19.303  -0.139  31.520  1.00  0.00     0.089 A 
HETATM   23  C19 UNK     1      20.131  -0.136  29.267  1.00  0.00     0.014 A 
HETATM   24  O1  UNK     1      18.728   0.520  32.625  1.00  0.00    -0.274 OA
HETATM   25  C20 UNK     1      19.600  -1.494  31.657  1.00  0.00     0.038 A 
HETATM   26  C18 UNK     1      18.397   1.871  32.583  1.00  0.00     0.304 A 
HETATM   27  O3  UNK     1      17.896   2.436  33.550  1.00  0.00    -0.259 OA
HETATM   28  C22 UNK     1      20.169  -2.172  30.582  1.00  0.00     0.003 A 
HETATM   29  C21 UNK     1      20.434  -1.496  29.389  1.00  0.00     0.001 A 
ENDBRANCH   3  19
TORSDOF 4
ENDMDL
MODEL 5
REMARK VINA RESULT:      -9.8      6.150     11.191
REMARK  4 active torsions:
REMARK  status: ('A' for Active; 'I' for Inactive)
REMARK       I    between atoms: C13_18  and  N2_5 
REMARK    1  A    between atoms: C6_11  and  N2_5 
REMARK    2  A    between atoms: C1_6  and  C3_8 
REMARK    3  A    between atoms: C3_8  and  C6_11 
REMARK    4  A    between atoms: C13_18  and  C14_19 
ROOT
HETATM    1  O2  UNK     1      18.422  -1.514  36.062  1.00  0.00    -0.267 OA
HETATM    2  N2  UNK     1      19.781  -3.095  35.019  1.00  0.00    -0.356 N 
HETATM    3  C13 UNK     1      19.049  -1.924  35.087  1.00  0.00     0.257 C 
HETATM    4  H12 UNK     1      20.292  -3.331  34.174  1.00  0.00     0.162 HD
ENDROOT
BRANCH   2   5
HETATM    5  C6  UNK     1      19.900  -4.014  36.128  1.00  0.00     0.127 C 
BRANCH   5   6
HETATM    6  C3  UNK     1      19.970  -5.459  35.636  1.00  0.00     0.061 C 
BRANCH   6   7
HETATM    7  C1  UNK     1      19.544  -6.461  36.680  1.00  0.00    -0.022 A 
HETATM    8  C2  UNK     1      20.403  -7.098  37.591  1.00  0.00    -0.001 A 
HETATM    9  C5  UNK     1      19.595  -7.934  38.364  1.00  0.00     0.043 A 
HETATM   10  C7  UNK     1      21.787  -7.063  37.850  1.00  0.00     0.021 A 
HETATM   11  N1  UNK     1      18.304  -7.782  37.911  1.00  0.00    -0.359 N 
HETATM   12  C8  UNK     1      20.103  -8.740  39.389  1.00  0.00     0.031 A 
HETATM   13  C4  UNK     1      18.268  -6.882  36.881  1.00  0.00     0.013 A 
HETATM   14  H3  UNK     1      17.502  -8.267  38.289  1.00  0.00     0.166 HD
HETATM   15  C10 UNK     1      16.997  -6.538  36.214  1.00  0.00     0.068 C 
HETATM   16  C11 UNK     1      21.480  -8.688  39.629  1.00  0.00     0.009 A 
HETATM   17  C9  UNK     1      22.310  -7.863  38.872  1.00  0.00    -0.061 A 
HETATM   18  C12 UNK     1      23.776  -7.832  39.153  1.00  0.00     0.048 C 
ENDBRANCH   6   7
ENDBRANCH   5   6
ENDBRANCH   2   5
BRANCH   3  19
HETATM   19  C14 UNK     1      19.082  -1.157  33.835  1.00  0.00     0.108 A 
HETATM   20  C16 UNK     1      19.668  -1.756  32.790  1.00  0.00     0.037 A 
HETATM   21  C15 UNK     1      19.749  -1.076  31.507  1.00  0.00    -0.001 A 
HETATM   22  C17 UNK     1      19.210   0.200  31.387  1.00  0.00     0.089 A 
HETATM   23  C19 UNK     1      20.352  -1.661  30.392  1.00  0.00     0.014 A 
HETATM   24  O1  UNK     1      18.594   0.825  32.489  1.00  0.00    -0.274 OA
HETATM   25  C20 UNK     1      19.255   0.906  30.186  1.00  0.00     0.038 A 
HETATM   26  C18 UNK     1      18.501   0.199  33.729  1.00  0.00     0.304 A 
HETATM   27  O3  UNK     1      17.963   0.751  34.684  1.00  0.00    -0.259 OA
HETATM   28  C22 UNK     1      19.857   0.315  29.078  1.00  0.00     0.003 A 
HETATM   29  C21 UNK     1      20.405  -0.966  29.179  1.00  0.00     0.001 A 
ENDBRANCH   3  19
TORSDOF 4
ENDMDL
MODEL 6
REMARK VINA RESULT:      -9.6      6.008      8.985
REMARK  4 active torsions:
REMARK  status: ('A' for Active; 'I' for Inactive)
REMARK       I    between atoms: C13_18  and  N2_5 
REMARK    1  A    between atoms: C6_11  and  N2_5 
REMARK    2  A    between atoms: C1_6  and  C3_8 
REMARK    3  A    between atoms: C3_8  and  C6_11 
REMARK    4  A    between atoms: C13_18  and  C14_19 
ROOT
HETATM    1  O2  UNK     1      20.311  -4.055  35.067  1.00  0.00    -0.267 OA
HETATM    2  N2  UNK     1      18.963  -3.732  36.942  1.00  0.00    -0.356 N 
HETATM    3  C13 UNK     1      19.669  -4.487  36.023  1.00  0.00     0.257 C 
HETATM    4  H12 UNK     1      18.489  -4.183  37.717  1.00  0.00     0.162 HD
ENDROOT
BRANCH   2   5
HETATM    5  C6  UNK     1      18.891  -2.290  36.886  1.00  0.00     0.127 C 
BRANCH   5   6
HETATM    6  C3  UNK     1      17.589  -1.832  36.230  1.00  0.00     0.061 C 
BRANCH   6   7
HETATM    7  C1  UNK     1      17.746  -0.568  35.422  1.00  0.00    -0.022 A 
HETATM    8  C2  UNK     1      18.296  -0.493  34.132  1.00  0.00    -0.001 A 
HETATM    9  C5  UNK     1      18.245   0.855  33.768  1.00  0.00     0.043 A 
HETATM   10  C7  UNK     1      18.837  -1.421  33.221  1.00  0.00     0.021 A 
HETATM   11  N1  UNK     1      17.680   1.538  34.821  1.00  0.00    -0.359 N 
HETATM   12  C8  UNK     1      18.710   1.322  32.534  1.00  0.00     0.031 A 
HETATM   13  C4  UNK     1      17.373   0.671  35.836  1.00  0.00     0.013 A 
HETATM   14  H3  UNK     1      17.518   2.535  34.838  1.00  0.00     0.166 HD
HETATM   15  C10 UNK     1      16.754   1.153  37.086  1.00  0.00     0.068 C 
HETATM   16  C11 UNK     1      19.243   0.382  31.646  1.00  0.00     0.009 A 
HETATM   17  C9  UNK     1      19.306  -0.969  31.983  1.00  0.00    -0.061 A 
HETATM   18  C12 UNK     1      19.882  -1.946  31.013  1.00  0.00     0.048 C 
ENDBRANCH   6   7
ENDBRANCH   5   6
ENDBRANCH   2   5
BRANCH   3  19
HETATM   19  C14 UNK     1      19.595  -5.928  36.291  1.00  0.00     0.108 A 
HETATM   20  C16 UNK     1      20.742  -6.610  36.181  1.00  0.00     0.037 A 
HETATM   21  C15 UNK     1      20.770  -8.043  36.427  1.00  0.00    -0.001 A 
HETATM   22  C17 UNK     1      19.589  -8.688  36.778  1.00  0.00     0.089 A 
HETATM   23  C19 UNK     1      21.942  -8.794  36.322  1.00  0.00     0.014 A 
HETATM   24  O1  UNK     1      18.384  -7.965  36.894  1.00  0.00    -0.274 OA
HETATM   25  C20 UNK     1      19.546 -10.059  37.027  1.00  0.00     0.038 A 
HETATM   26  C18 UNK     1      18.328  -6.593  36.664  1.00  0.00     0.304 A 
HETATM   27  O3  UNK     1      17.275  -5.972  36.766  1.00  0.00    -0.259 OA
HETATM   28  C22 UNK     1      20.721 -10.800  36.921  1.00  0.00     0.003 A 
HETATM   29  C21 UNK     1      21.916 -10.170  36.569  1.00  0.00     0.001 A 
ENDBRANCH   3  19
TORSDOF 4
ENDMDL
MODEL 7
REMARK VINA RESULT:      -9.6      2.251      3.570
REMARK  4 active torsions:
REMARK  status: ('A' for Active; 'I' for Inactive)
REMARK       I    between atoms: C13_18  and  N2_5 
REMARK    1  A    between atoms: C6_11  and  N2_5 
REMARK    2  A    between atoms: C1_6  and  C3_8 
REMARK    3  A    between atoms: C3_8  and  C6_11 
REMARK    4  A    between atoms: C13_18  and  C14_19 
ROOT
HETATM    1  O2  UNK     1      18.684   4.387  29.860  1.00  0.00    -0.267 OA
HETATM    2  N2  UNK     1      17.739   4.437  31.991  1.00  0.00    -0.356 N 
HETATM    3  C13 UNK     1      18.385   3.843  30.922  1.00  0.00     0.257 C 
HETATM    4  H12 UNK     1      17.564   3.908  32.840  1.00  0.00     0.162 HD
ENDROOT
BRANCH   2   5
HETATM    5  C6  UNK     1      17.320   5.820  31.989  1.00  0.00     0.127 C 
BRANCH   5   6
HETATM    6  C3  UNK     1      16.790   6.233  33.361  1.00  0.00     0.061 C 
BRANCH   6   7
HETATM    7  C1  UNK     1      16.520   7.714  33.470  1.00  0.00    -0.022 A 
HETATM    8  C2  UNK     1      17.480   8.693  33.773  1.00  0.00    -0.001 A 
HETATM    9  C5  UNK     1      16.801   9.913  33.769  1.00  0.00     0.043 A 
HETATM   10  C7  UNK     1      18.861   8.686  34.054  1.00  0.00     0.021 A 
HETATM   11  N1  UNK     1      15.485   9.644  33.471  1.00  0.00    -0.359 N 
HETATM   12  C8  UNK     1      17.436  11.132  34.033  1.00  0.00     0.031 A 
HETATM   13  C4  UNK     1      15.308   8.299  33.287  1.00  0.00     0.013 A 
HETATM   14  H3  UNK     1      14.757  10.342  33.399  1.00  0.00     0.166 HD
HETATM   15  C10 UNK     1      13.981   7.744  32.956  1.00  0.00     0.068 C 
HETATM   16  C11 UNK     1      18.807  11.100  34.309  1.00  0.00     0.009 A 
HETATM   17  C9  UNK     1      19.509   9.897  34.319  1.00  0.00    -0.061 A 
HETATM   18  C12 UNK     1      20.972   9.897  34.618  1.00  0.00     0.048 C 
ENDBRANCH   6   7
ENDBRANCH   5   6
ENDBRANCH   2   5
BRANCH   3  19
HETATM   19  C14 UNK     1      18.712   2.433  31.164  1.00  0.00     0.108 A 
HETATM   20  C16 UNK     1      19.287   1.776  30.149  1.00  0.00     0.037 A 
HETATM   21  C15 UNK     1      19.647   0.375  30.293  1.00  0.00    -0.001 A 
HETATM   22  C17 UNK     1      19.384  -0.267  31.498  1.00  0.00     0.089 A 
HETATM   23  C19 UNK     1      20.248  -0.349  29.261  1.00  0.00     0.014 A 
HETATM   24  O1  UNK     1      18.779   0.429  32.564  1.00  0.00    -0.274 OA
HETATM   25  C20 UNK     1      19.704  -1.608  31.702  1.00  0.00     0.038 A 
HETATM   26  C18 UNK     1      18.423   1.771  32.455  1.00  0.00     0.304 A 
HETATM   27  O3  UNK     1      17.896   2.369  33.387  1.00  0.00    -0.259 OA
HETATM   28  C22 UNK     1      20.303  -2.323  30.667  1.00  0.00     0.003 A 
HETATM   29  C21 UNK     1      20.575  -1.696  29.449  1.00  0.00     0.001 A 
ENDBRANCH   3  19
TORSDOF 4
ENDMDL
MODEL 8
REMARK VINA RESULT:      -9.3     15.648     17.530
REMARK  4 active torsions:
REMARK  status: ('A' for Active; 'I' for Inactive)
REMARK       I    between atoms: C13_18  and  N2_5 
REMARK    1  A    between atoms: C6_11  and  N2_5 
REMARK    2  A    between atoms: C1_6  and  C3_8 
REMARK    3  A    between atoms: C3_8  and  C6_11 
REMARK    4  A    between atoms: C13_18  and  C14_19 
ROOT
HETATM    1  O2  UNK     1      32.487  -5.035  38.614  1.00  0.00    -0.267 OA
HETATM    2  N2  UNK     1      31.281  -4.464  36.701  1.00  0.00    -0.356 N 
HETATM    3  C13 UNK     1      31.463  -5.068  37.932  1.00  0.00     0.257 C 
HETATM    4  H12 UNK     1      30.383  -4.524  36.231  1.00  0.00     0.162 HD
ENDROOT
BRANCH   2   5
HETATM    5  C6  UNK     1      32.311  -3.695  36.041  1.00  0.00     0.127 C 
BRANCH   5   6
HETATM    6  C3  UNK     1      32.927  -4.483  34.887  1.00  0.00     0.061 C 
BRANCH   6   7
HETATM    7  C1  UNK     1      33.190  -5.928  35.230  1.00  0.00    -0.022 A 
HETATM    8  C2  UNK     1      32.292  -6.988  35.021  1.00  0.00    -0.001 A 
HETATM    9  C5  UNK     1      32.938  -8.138  35.478  1.00  0.00     0.043 A 
HETATM   10  C7  UNK     1      30.990  -7.105  34.494  1.00  0.00     0.021 A 
HETATM   11  N1  UNK     1      34.178  -7.751  35.935  1.00  0.00    -0.359 N 
HETATM   12  C8  UNK     1      32.347  -9.406  35.432  1.00  0.00     0.031 A 
HETATM   13  C4  UNK     1      34.336  -6.400  35.786  1.00  0.00     0.013 A 
HETATM   14  H3  UNK     1      34.868  -8.379  36.326  1.00  0.00     0.166 HD
HETATM   15  C10 UNK     1      35.583  -5.729  36.203  1.00  0.00     0.068 C 
HETATM   16  C11 UNK     1      31.055  -9.498  34.904  1.00  0.00     0.009 A 
HETATM   17  C9  UNK     1      30.386  -8.366  34.442  1.00  0.00    -0.061 A 
HETATM   18  C12 UNK     1      29.008  -8.499  33.886  1.00  0.00     0.048 C 
ENDBRANCH   6   7
ENDBRANCH   5   6
ENDBRANCH   2   5
BRANCH   3  19
HETATM   19  C14 UNK     1      30.272  -5.790  38.396  1.00  0.00     0.108 A 
HETATM   20  C16 UNK     1      30.215  -7.093  38.093  1.00  0.00     0.037 A 
HETATM   21  C15 UNK     1      29.074  -7.892  38.509  1.00  0.00    -0.001 A 
HETATM   22  C17 UNK     1      28.049  -7.282  39.224  1.00  0.00     0.089 A 
HETATM   23  C19 UNK     1      28.972  -9.253  38.215  1.00  0.00     0.014 A 
HETATM   24  O1  UNK     1      28.115  -5.910  39.541  1.00  0.00    -0.274 OA
HETATM   25  C20 UNK     1      26.928  -7.991  39.652  1.00  0.00     0.038 A 
HETATM   26  C18 UNK     1      29.194  -5.119  39.156  1.00  0.00     0.304 A 
HETATM   27  O3  UNK     1      29.243  -3.926  39.436  1.00  0.00    -0.259 OA
HETATM   28  C22 UNK     1      26.835  -9.348  39.354  1.00  0.00     0.003 A 
HETATM   29  C21 UNK     1      27.853  -9.979  38.637  1.00  0.00     0.001 A 
ENDBRANCH   3  19
TORSDOF 4
ENDMDL
MODEL 9
REMARK VINA RESULT:      -9.1      2.752      3.556
REMARK  4 active torsions:
REMARK  status: ('A' for Active; 'I' for Inactive)
REMARK       I    between atoms: C13_18  and  N2_5 
REMARK    1  A    between atoms: C6_11  and  N2_5 
REMARK    2  A    between atoms: C1_6  and  C3_8 
REMARK    3  A    between atoms: C3_8  and  C6_11 
REMARK    4  A    between atoms: C13_18  and  C14_19 
ROOT
HETATM    1  O2  UNK     1      18.650   1.294  31.294  1.00  0.00    -0.267 OA
HETATM    2  N2  UNK     1      18.232   3.501  31.918  1.00  0.00    -0.356 N 
HETATM    3  C13 UNK     1      18.409   2.148  32.144  1.00  0.00     0.257 C 
HETATM    4  H12 UNK     1      18.066   4.133  32.695  1.00  0.00     0.162 HD
ENDROOT
BRANCH   2   5
HETATM    5  C6  UNK     1      18.312   4.096  30.603  1.00  0.00     0.127 C 
BRANCH   5   6
HETATM    6  C3  UNK     1      19.127   5.388  30.636  1.00  0.00     0.061 C 
BRANCH   6   7
HETATM    7  C1  UNK     1      18.955   6.165  31.918  1.00  0.00    -0.022 A 
HETATM    8  C2  UNK     1      17.734   6.656  32.411  1.00  0.00    -0.001 A 
HETATM    9  C5  UNK     1      18.035   7.305  33.610  1.00  0.00     0.043 A 
HETATM   10  C7  UNK     1      16.395   6.627  31.973  1.00  0.00     0.021 A 
HETATM   11  N1  UNK     1      19.393   7.188  33.804  1.00  0.00    -0.359 N 
HETATM   12  C8  UNK     1      17.060   7.927  34.398  1.00  0.00     0.031 A 
HETATM   13  C4  UNK     1      19.960   6.492  32.771  1.00  0.00     0.013 A 
HETATM   14  H3  UNK     1      19.895   7.566  34.597  1.00  0.00     0.166 HD
HETATM   15  C10 UNK     1      21.412   6.229  32.737  1.00  0.00     0.068 C 
HETATM   16  C11 UNK     1      15.738   7.884  33.944  1.00  0.00     0.009 A 
HETATM   17  C9  UNK     1      15.410   7.244  32.750  1.00  0.00    -0.061 A 
HETATM   18  C12 UNK     1      13.989   7.218  32.293  1.00  0.00     0.048 C 
ENDBRANCH   6   7
ENDBRANCH   5   6
ENDBRANCH   2   5
BRANCH   3  19
HETATM   19  C14 UNK     1      18.283   1.786  33.562  1.00  0.00     0.108 A 
HETATM   20  C16 UNK     1      18.156   0.481  33.829  1.00  0.00     0.037 A 
HETATM   21  C15 UNK     1      18.025   0.024  35.204  1.00  0.00    -0.001 A 
HETATM   22  C17 UNK     1      18.035   0.964  36.229  1.00  0.00     0.089 A 
HETATM   23  C19 UNK     1      17.889  -1.327  35.529  1.00  0.00     0.014 A 
HETATM   24  O1  UNK     1      18.170   2.337  35.941  1.00  0.00    -0.274 OA
HETATM   25  C20 UNK     1      17.913   0.592  37.567  1.00  0.00     0.038 A 
HETATM   26  C18 UNK     1      18.297   2.803  34.636  1.00  0.00     0.304 A 
HETATM   27  O3  UNK     1      18.413   4.001  34.395  1.00  0.00    -0.259 OA
HETATM   28  C22 UNK     1      17.779  -0.757  37.883  1.00  0.00     0.003 A 
HETATM   29  C21 UNK     1      17.766  -1.716  36.867  1.00  0.00     0.001 A 
ENDBRANCH   3  19
TORSDOF 4
ENDMDL
MODEL 10
REMARK VINA RESULT:      -9.1     10.288     14.340
REMARK  4 active torsions:
REMARK  status: ('A' for Active; 'I' for Inactive)
REMARK       I    between atoms: C13_18  and  N2_5 
REMARK    1  A    between atoms: C6_11  and  N2_5 
REMARK    2  A    between atoms: C1_6  and  C3_8 
REMARK    3  A    between atoms: C3_8  and  C6_11 
REMARK    4  A    between atoms: C13_18  and  C14_19 
ROOT
HETATM    1  O2  UNK     1      25.702  -8.652  37.354  1.00  0.00    -0.267 OA
HETATM    2  N2  UNK     1      24.721  -7.434  39.084  1.00  0.00    -0.356 N 
HETATM    3  C13 UNK     1      25.735  -7.761  38.201  1.00  0.00     0.257 C 
HETATM    4  H12 UNK     1      24.835  -6.657  39.727  1.00  0.00     0.162 HD
ENDROOT
BRANCH   2   5
HETATM    5  C6  UNK     1      23.454  -8.127  39.119  1.00  0.00     0.127 C 
BRANCH   5   6
HETATM    6  C3  UNK     1      22.363  -7.243  39.722  1.00  0.00     0.061 C 
BRANCH   6   7
HETATM    7  C1  UNK     1      21.070  -7.286  38.947  1.00  0.00    -0.022 A 
HETATM    8  C2  UNK     1      20.576  -6.252  38.134  1.00  0.00    -0.001 A 
HETATM    9  C5  UNK     1      19.365  -6.715  37.615  1.00  0.00     0.043 A 
HETATM   10  C7  UNK     1      21.019  -4.964  37.777  1.00  0.00     0.021 A 
HETATM   11  N1  UNK     1      19.167  -7.982  38.114  1.00  0.00    -0.359 N 
HETATM   12  C8  UNK     1      18.572  -5.950  36.751  1.00  0.00     0.031 A 
HETATM   13  C4  UNK     1      20.208  -8.336  38.930  1.00  0.00     0.013 A 
HETATM   14  H3  UNK     1      18.367  -8.563  37.905  1.00  0.00     0.166 HD
HETATM   15  C10 UNK     1      20.239  -9.653  39.595  1.00  0.00     0.068 C 
HETATM   16  C11 UNK     1      19.033  -4.674  36.410  1.00  0.00     0.009 A 
HETATM   17  C9  UNK     1      20.238  -4.188  36.914  1.00  0.00    -0.061 A 
HETATM   18  C12 UNK     1      20.701  -2.821  36.531  1.00  0.00     0.048 C 
ENDBRANCH   6   7
ENDBRANCH   5   6
ENDBRANCH   2   5
BRANCH   3  19
HETATM   19  C14 UNK     1      26.923  -6.913  38.357  1.00  0.00     0.108 A 
HETATM   20  C16 UNK     1      28.106  -7.517  38.193  1.00  0.00     0.037 A 
HETATM   21  C15 UNK     1      29.340  -6.760  38.328  1.00  0.00    -0.001 A 
HETATM   22  C17 UNK     1      29.268  -5.403  38.628  1.00  0.00     0.089 A 
HETATM   23  C19 UNK     1      30.596  -7.348  38.167  1.00  0.00     0.014 A 
HETATM   24  O1  UNK     1      28.019  -4.773  38.798  1.00  0.00    -0.274 OA
HETATM   25  C20 UNK     1      30.413  -4.621  38.770  1.00  0.00     0.038 A 
HETATM   26  C18 UNK     1      26.822  -5.472  38.675  1.00  0.00     0.304 A 
HETATM   27  O3  UNK     1      25.739  -4.915  38.826  1.00  0.00    -0.259 OA
HETATM   28  C22 UNK     1      31.661  -5.216  38.608  1.00  0.00     0.003 A 
HETATM   29  C21 UNK     1      31.754  -6.576  38.307  1.00  0.00     0.001 A 
ENDBRANCH   3  19
TORSDOF 4
ENDMDL
