MODEL 1
REMARK VINA RESULT:      -8.7      0.000      0.000
REMARK  5 active torsions:
REMARK  status: ('A' for Active; 'I' for Inactive)
REMARK    1  A    between atoms: C20_25  and  O2_2 
REMARK    2  A    between atoms: C5_10  and  N1_4 
REMARK    3  A    between atoms: C6_11  and  N2_5 
REMARK    4  A    between atoms: C5_10  and  C7_12 
REMARK    5  A    between atoms: C6_11  and  C8_13 
ROOT
HETATM    1  N1  UNK     1      18.861   3.680  31.498  1.00  0.00     0.096 N 
HETATM    2  N2  UNK     1      19.141   6.289  32.713  1.00  0.00     0.096 N 
HETATM    3  C1  UNK     1      18.016   4.090  32.626  1.00  0.00     0.303 C 
HETATM    4  C2  UNK     1      19.262   4.850  30.707  1.00  0.00     0.303 C 
HETATM    5  C3  UNK     1      18.739   5.120  33.504  1.00  0.00     0.303 C 
HETATM    6  C4  UNK     1      19.984   5.879  31.583  1.00  0.00     0.303 C 
ENDROOT
BRANCH   1   7
HETATM    7  C5  UNK     1      18.170   2.700  30.662  1.00  0.00     0.312 C 
BRANCH   7   8
HETATM    8  C7  UNK     1      18.905   1.407  30.590  1.00  0.00    -0.011 A 
HETATM    9  C10 UNK     1      19.573   1.050  29.483  1.00  0.00     0.092 A 
HETATM   10  C15 UNK     1      20.312  -0.217  29.365  1.00  0.00     0.288 A 
HETATM   11  O1  UNK     1      20.295  -1.055  30.470  1.00  0.00    -0.275 OA
HETATM   12  O3  UNK     1      20.911  -0.511  28.336  1.00  0.00    -0.260 OA
HETATM   13  C13 UNK     1      19.603  -0.707  31.647  1.00  0.00     0.090 A 
HETATM   14  C9  UNK     1      18.905   0.499  31.744  1.00  0.00     0.009 A 
HETATM   15  C19 UNK     1      19.654  -1.626  32.696  1.00  0.00     0.041 A 
HETATM   16  C14 UNK     1      18.242   0.770  32.949  1.00  0.00     0.051 A 
HETATM   17  C20 UNK     1      18.285  -0.142  34.010  1.00  0.00     0.069 A 
HETATM   18  C21 UNK     1      18.989  -1.339  33.883  1.00  0.00     0.039 A 
BRANCH  17  19
HETATM   19  O2  UNK     1      17.633   0.141  35.172  1.00  0.00    -0.356 OA
HETATM   20  C23 UNK     1      16.214   0.271  35.104  1.00  0.00     0.210 C 
ENDBRANCH  17  19
ENDBRANCH   7   8
ENDBRANCH   1   7
BRANCH   2  21
HETATM   21  C6  UNK     1      19.833   7.268  33.549  1.00  0.00     0.311 C 
BRANCH  21  22
HETATM   22  C8  UNK     1      19.016   8.518  33.741  1.00  0.00    -0.030 A 
HETATM   23  C11 UNK     1      19.645   9.717  34.076  1.00  0.00     0.009 A 
HETATM   24  C16 UNK     1      18.889  10.875  34.255  1.00  0.00     0.007 A 
HETATM   25  C18 UNK     1      17.502  10.834  34.098  1.00  0.00    -0.062 A 
HETATM   26  C17 UNK     1      16.874   9.635  33.763  1.00  0.00     0.007 A 
HETATM   27  C22 UNK     1      16.693  12.073  34.289  1.00  0.00     0.048 C 
HETATM   28  C12 UNK     1      17.631   8.477  33.584  1.00  0.00     0.009 A 
ENDBRANCH  21  22
ENDBRANCH   2  21
TORSDOF 5
ENDMDL
MODEL 2
REMARK VINA RESULT:      -8.6     10.566     15.243
REMARK  5 active torsions:
REMARK  status: ('A' for Active; 'I' for Inactive)
REMARK    1  A    between atoms: C20_25  and  O2_2 
REMARK    2  A    between atoms: C5_10  and  N1_4 
REMARK    3  A    between atoms: C6_11  and  N2_5 
REMARK    4  A    between atoms: C5_10  and  C7_12 
REMARK    5  A    between atoms: C6_11  and  C8_13 
ROOT
HETATM    1  N1  UNK     1      23.769  -9.355  37.183  1.00  0.00     0.096 N 
HETATM    2  N2  UNK     1      26.215  -8.365  38.366  1.00  0.00     0.096 N 
HETATM    3  C1  UNK     1      23.801  -8.084  37.918  1.00  0.00     0.303 C 
HETATM    4  C2  UNK     1      25.075  -9.625  36.571  1.00  0.00     0.303 C 
HETATM    5  C3  UNK     1      24.909  -8.094  38.978  1.00  0.00     0.303 C 
HETATM    6  C4  UNK     1      26.183  -9.635  37.630  1.00  0.00     0.303 C 
ENDROOT
BRANCH   1   7
HETATM    7  C5  UNK     1      22.714  -9.343  36.172  1.00  0.00     0.312 C 
BRANCH   7   8
HETATM    8  C7  UNK     1      21.356  -9.441  36.777  1.00  0.00    -0.011 A 
HETATM    9  C10 UNK     1      20.951 -10.562  37.392  1.00  0.00     0.092 A 
HETATM   10  C15 UNK     1      19.619 -10.705  38.003  1.00  0.00     0.288 A 
HETATM   11  O1  UNK     1      18.773  -9.610  37.920  1.00  0.00    -0.275 OA
HETATM   12  O3  UNK     1      19.282 -11.747  38.556  1.00  0.00    -0.260 OA
HETATM   13  C13 UNK     1      19.172  -8.419  37.281  1.00  0.00     0.090 A 
HETATM   14  C9  UNK     1      20.437  -8.297  36.705  1.00  0.00     0.009 A 
HETATM   15  C19 UNK     1      18.238  -7.380  37.258  1.00  0.00     0.041 A 
HETATM   16  C14 UNK     1      20.756  -7.079  36.088  1.00  0.00     0.051 A 
HETATM   17  C20 UNK     1      19.831  -6.030  36.057  1.00  0.00     0.069 A 
HETATM   18  C21 UNK     1      18.574  -6.180  36.640  1.00  0.00     0.039 A 
BRANCH  17  19
HETATM   19  O2  UNK     1      20.161  -4.855  35.451  1.00  0.00    -0.356 OA
HETATM   20  C23 UNK     1      20.026  -3.666  36.227  1.00  0.00     0.210 C 
ENDBRANCH  17  19
ENDBRANCH   7   8
ENDBRANCH   1   7
BRANCH   2  21
HETATM   21  C6  UNK     1      27.269  -8.378  39.378  1.00  0.00     0.311 C 
BRANCH  21  22
HETATM   22  C8  UNK     1      28.412  -7.470  39.008  1.00  0.00    -0.030 A 
HETATM   23  C11 UNK     1      28.338  -6.106  39.289  1.00  0.00     0.009 A 
HETATM   24  C16 UNK     1      29.395  -5.264  38.945  1.00  0.00     0.007 A 
HETATM   25  C18 UNK     1      30.529  -5.788  38.322  1.00  0.00    -0.062 A 
HETATM   26  C17 UNK     1      30.604  -7.152  38.042  1.00  0.00     0.007 A 
HETATM   27  C22 UNK     1      31.661  -4.888  37.955  1.00  0.00     0.048 C 
HETATM   28  C12 UNK     1      29.545  -7.993  38.385  1.00  0.00     0.009 A 
ENDBRANCH  21  22
ENDBRANCH   2  21
TORSDOF 5
ENDMDL
MODEL 3
REMARK VINA RESULT:      -8.4      2.538      4.106
REMARK  5 active torsions:
REMARK  status: ('A' for Active; 'I' for Inactive)
REMARK    1  A    between atoms: C20_25  and  O2_2 
REMARK    2  A    between atoms: C5_10  and  N1_4 
REMARK    3  A    between atoms: C6_11  and  N2_5 
REMARK    4  A    between atoms: C5_10  and  C7_12 
REMARK    5  A    between atoms: C6_11  and  C8_13 
ROOT
HETATM    1  N1  UNK     1      17.104   6.259  33.218  1.00  0.00     0.096 N 
HETATM    2  N2  UNK     1      15.469   8.643  33.289  1.00  0.00     0.096 N 
HETATM    3  C1  UNK     1      17.255   7.317  32.211  1.00  0.00     0.303 C 
HETATM    4  C2  UNK     1      16.637   6.824  34.489  1.00  0.00     0.303 C 
HETATM    5  C3  UNK     1      15.938   8.078  32.018  1.00  0.00     0.303 C 
HETATM    6  C4  UNK     1      15.321   7.585  34.297  1.00  0.00     0.303 C 
ENDROOT
BRANCH   1   7
HETATM    7  C5  UNK     1      18.361   5.536  33.401  1.00  0.00     0.312 C 
BRANCH   7   8
HETATM    8  C7  UNK     1      18.320   4.176  32.795  1.00  0.00    -0.011 A 
HETATM    9  C10 UNK     1      18.262   4.013  31.465  1.00  0.00     0.092 A 
HETATM   10  C15 UNK     1      18.219   2.690  30.820  1.00  0.00     0.288 A 
HETATM   11  O1  UNK     1      18.241   1.586  31.658  1.00  0.00    -0.275 OA
HETATM   12  O3  UNK     1      18.166   2.579  29.599  1.00  0.00    -0.260 OA
HETATM   13  C13 UNK     1      18.302   1.727  33.059  1.00  0.00     0.090 A 
HETATM   14  C9  UNK     1      18.342   2.987  33.656  1.00  0.00     0.009 A 
HETATM   15  C19 UNK     1      18.319   0.546  33.804  1.00  0.00     0.041 A 
HETATM   16  C14 UNK     1      18.400   3.041  35.056  1.00  0.00     0.051 A 
HETATM   17  C20 UNK     1      18.419   1.867  35.817  1.00  0.00     0.069 A 
HETATM   18  C21 UNK     1      18.377   0.621  35.192  1.00  0.00     0.039 A 
BRANCH  17  19
HETATM   19  O2  UNK     1      18.475   1.941  37.176  1.00  0.00    -0.356 OA
HETATM   20  C23 UNK     1      17.591   1.097  37.909  1.00  0.00     0.210 C 
ENDBRANCH  17  19
ENDBRANCH   7   8
ENDBRANCH   1   7
BRANCH   2  21
HETATM   21  C6  UNK     1      14.213   9.365  33.105  1.00  0.00     0.311 C 
BRANCH  21  22
HETATM   22  C8  UNK     1      14.404  10.856  33.193  1.00  0.00    -0.030 A 
HETATM   23  C11 UNK     1      13.512  11.713  32.549  1.00  0.00     0.009 A 
HETATM   24  C16 UNK     1      13.690  13.094  32.629  1.00  0.00     0.007 A 
HETATM   25  C18 UNK     1      14.761  13.618  33.355  1.00  0.00    -0.062 A 
HETATM   26  C17 UNK     1      15.653  12.761  33.999  1.00  0.00     0.007 A 
HETATM   27  C22 UNK     1      14.952  15.095  33.442  1.00  0.00     0.048 C 
HETATM   28  C12 UNK     1      15.475  11.379  33.918  1.00  0.00     0.009 A 
ENDBRANCH  21  22
ENDBRANCH   2  21
TORSDOF 5
ENDMDL
MODEL 4
REMARK VINA RESULT:      -8.4     22.904     25.132
REMARK  5 active torsions:
REMARK  status: ('A' for Active; 'I' for Inactive)
REMARK    1  A    between atoms: C20_25  and  O2_2 
REMARK    2  A    between atoms: C5_10  and  N1_4 
REMARK    3  A    between atoms: C6_11  and  N2_5 
REMARK    4  A    between atoms: C5_10  and  C7_12 
REMARK    5  A    between atoms: C6_11  and  C8_13 
ROOT
HETATM    1  N1  UNK     1      11.905   6.302   7.455  1.00  0.00     0.096 N 
HETATM    2  N2  UNK     1       9.115   6.241   8.210  1.00  0.00     0.096 N 
HETATM    3  C1  UNK     1      10.868   6.871   6.586  1.00  0.00     0.303 C 
HETATM    4  C2  UNK     1      11.495   6.381   8.862  1.00  0.00     0.303 C 
HETATM    5  C3  UNK     1       9.525   6.163   6.803  1.00  0.00     0.303 C 
HETATM    6  C4  UNK     1      10.153   5.673   9.079  1.00  0.00     0.303 C 
ENDROOT
BRANCH   1   7
HETATM    7  C5  UNK     1      13.184   6.978   7.248  1.00  0.00     0.312 C 
BRANCH   7   8
HETATM    8  C7  UNK     1      14.162   6.673   8.329  1.00  0.00    -0.011 A 
HETATM    9  C10 UNK     1      14.562   5.415   8.566  1.00  0.00     0.092 A 
HETATM   10  C15 UNK     1      15.525   5.065   9.623  1.00  0.00     0.288 A 
HETATM   11  O1  UNK     1      16.020   6.110  10.387  1.00  0.00    -0.275 OA
HETATM   12  O3  UNK     1      15.868   3.902   9.812  1.00  0.00    -0.260 OA
HETATM   13  C13 UNK     1      15.618   7.442  10.161  1.00  0.00     0.090 A 
HETATM   14  C9  UNK     1      14.704   7.759   9.155  1.00  0.00     0.009 A 
HETATM   15  C19 UNK     1      16.181   8.413  10.991  1.00  0.00     0.041 A 
HETATM   16  C14 UNK     1      14.356   9.108   8.996  1.00  0.00     0.051 A 
HETATM   17  C20 UNK     1      14.911  10.092   9.820  1.00  0.00     0.069 A 
HETATM   18  C21 UNK     1      15.822   9.746  10.817  1.00  0.00     0.039 A 
BRANCH  17  19
HETATM   19  O2  UNK     1      14.559  11.397   9.648  1.00  0.00    -0.356 OA
HETATM   20  C23 UNK     1      15.249  12.126   8.635  1.00  0.00     0.210 C 
ENDBRANCH  17  19
ENDBRANCH   7   8
ENDBRANCH   1   7
BRANCH   2  21
HETATM   21  C6  UNK     1       7.837   5.563   8.416  1.00  0.00     0.311 C 
BRANCH  21  22
HETATM   22  C8  UNK     1       7.254   5.866   9.771  1.00  0.00    -0.030 A 
HETATM   23  C11 UNK     1       7.003   7.186  10.143  1.00  0.00     0.009 A 
HETATM   24  C16 UNK     1       6.464   7.467  11.398  1.00  0.00     0.007 A 
HETATM   25  C18 UNK     1       6.174   6.426  12.282  1.00  0.00    -0.062 A 
HETATM   26  C17 UNK     1       6.425   5.106  11.910  1.00  0.00     0.007 A 
HETATM   27  C22 UNK     1       5.597   6.726  13.624  1.00  0.00     0.048 C 
HETATM   28  C12 UNK     1       6.965   4.825  10.653  1.00  0.00     0.009 A 
ENDBRANCH  21  22
ENDBRANCH   2  21
TORSDOF 5
ENDMDL
MODEL 5
REMARK VINA RESULT:      -8.4     13.115     17.017
REMARK  5 active torsions:
REMARK  status: ('A' for Active; 'I' for Inactive)
REMARK    1  A    between atoms: C20_25  and  O2_2 
REMARK    2  A    between atoms: C5_10  and  N1_4 
REMARK    3  A    between atoms: C6_11  and  N2_5 
REMARK    4  A    between atoms: C5_10  and  C7_12 
REMARK    5  A    between atoms: C6_11  and  C8_13 
ROOT
HETATM    1  N1  UNK     1      26.874  -9.424  37.534  1.00  0.00     0.096 N 
HETATM    2  N2  UNK     1      29.719  -9.097  37.936  1.00  0.00     0.096 N 
HETATM    3  C1  UNK     1      27.449  -9.344  38.882  1.00  0.00     0.303 C 
HETATM    4  C2  UNK     1      27.696  -8.669  36.581  1.00  0.00     0.303 C 
HETATM    5  C3  UNK     1      28.896  -9.851  38.890  1.00  0.00     0.303 C 
HETATM    6  C4  UNK     1      29.142  -9.176  36.588  1.00  0.00     0.303 C 
ENDROOT
BRANCH   1   7
HETATM    7  C5  UNK     1      25.495  -8.939  37.529  1.00  0.00     0.312 C 
BRANCH   7   8
HETATM    8  C7  UNK     1      24.582  -9.850  36.785  1.00  0.00    -0.011 A 
HETATM    9  C10 UNK     1      25.020 -11.019  36.294  1.00  0.00     0.092 A 
HETATM   10  C15 UNK     1      24.155 -11.952  35.552  1.00  0.00     0.288 A 
HETATM   11  O1  UNK     1      22.834 -11.571  35.374  1.00  0.00    -0.275 OA
HETATM   12  O3  UNK     1      24.591 -13.013  35.117  1.00  0.00    -0.260 OA
HETATM   13  C13 UNK     1      22.346 -10.349  35.879  1.00  0.00     0.090 A 
HETATM   14  C9  UNK     1      23.178  -9.474  36.580  1.00  0.00     0.009 A 
HETATM   15  C19 UNK     1      20.999 -10.069  35.640  1.00  0.00     0.041 A 
HETATM   16  C14 UNK     1      22.614  -8.279  37.048  1.00  0.00     0.051 A 
HETATM   17  C20 UNK     1      21.267  -7.984  36.817  1.00  0.00     0.069 A 
HETATM   18  C21 UNK     1      20.460  -8.877  36.113  1.00  0.00     0.039 A 
BRANCH  17  19
HETATM   19  O2  UNK     1      20.740  -6.816  37.281  1.00  0.00    -0.356 OA
HETATM   20  C23 UNK     1      21.493  -6.112  38.266  1.00  0.00     0.210 C 
ENDBRANCH  17  19
ENDBRANCH   7   8
ENDBRANCH   1   7
BRANCH   2  21
HETATM   21  C6  UNK     1      31.096  -9.584  37.941  1.00  0.00     0.311 C 
BRANCH  21  22
HETATM   22  C8  UNK     1      32.070  -8.515  37.520  1.00  0.00    -0.030 A 
HETATM   23  C11 UNK     1      32.221  -7.365  38.294  1.00  0.00     0.009 A 
HETATM   24  C16 UNK     1      33.122  -6.375  37.904  1.00  0.00     0.007 A 
HETATM   25  C18 UNK     1      33.873  -6.536  36.738  1.00  0.00    -0.062 A 
HETATM   26  C17 UNK     1      33.722  -7.686  35.964  1.00  0.00     0.007 A 
HETATM   27  C22 UNK     1      34.838  -5.477  36.321  1.00  0.00     0.048 C 
HETATM   28  C12 UNK     1      32.821  -8.676  36.355  1.00  0.00     0.009 A 
ENDBRANCH  21  22
ENDBRANCH   2  21
TORSDOF 5
ENDMDL
MODEL 6
REMARK VINA RESULT:      -8.3     15.746     18.992
REMARK  5 active torsions:
REMARK  status: ('A' for Active; 'I' for Inactive)
REMARK    1  A    between atoms: C20_25  and  O2_2 
REMARK    2  A    between atoms: C5_10  and  N1_4 
REMARK    3  A    between atoms: C6_11  and  N2_5 
REMARK    4  A    between atoms: C5_10  and  C7_12 
REMARK    5  A    between atoms: C6_11  and  C8_13 
ROOT
HETATM    1  N1  UNK     1      31.678  -5.762  35.688  1.00  0.00     0.096 N 
HETATM    2  N2  UNK     1      34.201  -6.340  34.398  1.00  0.00     0.096 N 
HETATM    3  C1  UNK     1      32.284  -4.817  34.742  1.00  0.00     0.303 C 
HETATM    4  C2  UNK     1      32.067  -7.138  35.358  1.00  0.00     0.303 C 
HETATM    5  C3  UNK     1      33.811  -4.964  34.727  1.00  0.00     0.303 C 
HETATM    6  C4  UNK     1      33.593  -7.285  35.343  1.00  0.00     0.303 C 
ENDROOT
BRANCH   1   7
HETATM    7  C5  UNK     1      30.224  -5.622  35.700  1.00  0.00     0.312 C 
BRANCH   7   8
HETATM    8  C7  UNK     1      29.674  -5.595  37.084  1.00  0.00    -0.011 A 
HETATM    9  C10 UNK     1      29.913  -4.562  37.905  1.00  0.00     0.092 A 
HETATM   10  C15 UNK     1      29.392  -4.492  39.280  1.00  0.00     0.288 A 
HETATM   11  O1  UNK     1      28.623  -5.561  39.711  1.00  0.00    -0.275 OA
HETATM   12  O3  UNK     1      29.632  -3.530  40.002  1.00  0.00    -0.260 OA
HETATM   13  C13 UNK     1      28.354  -6.661  38.871  1.00  0.00     0.090 A 
HETATM   14  C9  UNK     1      28.855  -6.714  37.570  1.00  0.00     0.009 A 
HETATM   15  C19 UNK     1      27.568  -7.681  39.411  1.00  0.00     0.041 A 
HETATM   16  C14 UNK     1      28.543  -7.843  36.800  1.00  0.00     0.051 A 
HETATM   17  C20 UNK     1      27.757  -8.873  37.326  1.00  0.00     0.069 A 
HETATM   18  C21 UNK     1      27.270  -8.793  38.631  1.00  0.00     0.039 A 
BRANCH  17  19
HETATM   19  O2  UNK     1      27.466  -9.962  36.561  1.00  0.00    -0.356 OA
HETATM   20  C23 UNK     1      26.119 -10.429  36.585  1.00  0.00     0.210 C 
ENDBRANCH  17  19
ENDBRANCH   7   8
ENDBRANCH   1   7
BRANCH   2  21
HETATM   21  C6  UNK     1      35.655  -6.479  34.388  1.00  0.00     0.311 C 
BRANCH  21  22
HETATM   22  C8  UNK     1      36.107  -7.576  33.460  1.00  0.00    -0.030 A 
HETATM   23  C11 UNK     1      37.133  -8.438  33.846  1.00  0.00     0.009 A 
HETATM   24  C16 UNK     1      37.552  -9.453  32.987  1.00  0.00     0.007 A 
HETATM   25  C18 UNK     1      36.944  -9.607  31.740  1.00  0.00    -0.062 A 
HETATM   26  C17 UNK     1      35.918  -8.745  31.354  1.00  0.00     0.007 A 
HETATM   27  C22 UNK     1      37.392 -10.693  30.821  1.00  0.00     0.048 C 
HETATM   28  C12 UNK     1      35.499  -7.729  32.214  1.00  0.00     0.009 A 
ENDBRANCH  21  22
ENDBRANCH   2  21
TORSDOF 5
ENDMDL
MODEL 7
REMARK VINA RESULT:      -8.2      6.927     13.145
REMARK  5 active torsions:
REMARK  status: ('A' for Active; 'I' for Inactive)
REMARK    1  A    between atoms: C20_25  and  O2_2 
REMARK    2  A    between atoms: C5_10  and  N1_4 
REMARK    3  A    between atoms: C6_11  and  N2_5 
REMARK    4  A    between atoms: C5_10  and  C7_12 
REMARK    5  A    between atoms: C6_11  and  C8_13 
ROOT
HETATM    1  N1  UNK     1      20.286  -4.190  37.092  1.00  0.00     0.096 N 
HETATM    2  N2  UNK     1      20.616  -7.052  36.844  1.00  0.00     0.096 N 
HETATM    3  C1  UNK     1      21.344  -4.901  37.820  1.00  0.00     0.303 C 
HETATM    4  C2  UNK     1      19.968  -4.888  35.840  1.00  0.00     0.303 C 
HETATM    5  C3  UNK     1      20.936  -6.354  38.095  1.00  0.00     0.303 C 
HETATM    6  C4  UNK     1      19.560  -6.340  36.114  1.00  0.00     0.303 C 
ENDROOT
BRANCH   1   7
HETATM    7  C5  UNK     1      20.677  -2.806  36.830  1.00  0.00     0.312 C 
BRANCH   7   8
HETATM    8  C7  UNK     1      19.539  -1.987  36.328  1.00  0.00    -0.011 A 
HETATM    9  C10 UNK     1      18.641  -1.457  37.173  1.00  0.00     0.092 A 
HETATM   10  C15 UNK     1      17.500  -0.643  36.723  1.00  0.00     0.288 A 
HETATM   11  O1  UNK     1      17.382  -0.434  35.358  1.00  0.00    -0.275 OA
HETATM   12  O3  UNK     1      16.699  -0.174  37.525  1.00  0.00    -0.260 OA
HETATM   13  C13 UNK     1      18.309  -0.977  34.447  1.00  0.00     0.090 A 
HETATM   14  C9  UNK     1      19.386  -1.749  34.887  1.00  0.00     0.009 A 
HETATM   15  C19 UNK     1      18.091  -0.703  33.095  1.00  0.00     0.041 A 
HETATM   16  C14 UNK     1      20.263  -2.254  33.916  1.00  0.00     0.051 A 
HETATM   17  C20 UNK     1      20.057  -1.987  32.559  1.00  0.00     0.069 A 
HETATM   18  C21 UNK     1      18.972  -1.213  32.148  1.00  0.00     0.039 A 
BRANCH  17  19
HETATM   19  O2  UNK     1      20.921  -2.488  31.632  1.00  0.00    -0.356 OA
HETATM   20  C23 UNK     1      20.518  -2.417  30.266  1.00  0.00     0.210 C 
ENDBRANCH  17  19
ENDBRANCH   7   8
ENDBRANCH   1   7
BRANCH   2  21
HETATM   21  C6  UNK     1      20.224  -8.435  37.107  1.00  0.00     0.311 C 
BRANCH  21  22
HETATM   22  C8  UNK     1      21.301  -9.409  36.707  1.00  0.00    -0.030 A 
HETATM   23  C11 UNK     1      22.644  -9.048  36.814  1.00  0.00     0.009 A 
HETATM   24  C16 UNK     1      23.641  -9.949  36.442  1.00  0.00     0.007 A 
HETATM   25  C18 UNK     1      23.294 -11.213  35.963  1.00  0.00    -0.062 A 
HETATM   26  C17 UNK     1      21.952 -11.574  35.855  1.00  0.00     0.007 A 
HETATM   27  C22 UNK     1      24.360 -12.178  35.566  1.00  0.00     0.048 C 
HETATM   28  C12 UNK     1      20.954 -10.672  36.227  1.00  0.00     0.009 A 
ENDBRANCH  21  22
ENDBRANCH   2  21
TORSDOF 5
ENDMDL
MODEL 8
REMARK VINA RESULT:      -8.2     14.175     17.571
REMARK  5 active torsions:
REMARK  status: ('A' for Active; 'I' for Inactive)
REMARK    1  A    between atoms: C20_25  and  O2_2 
REMARK    2  A    between atoms: C5_10  and  N1_4 
REMARK    3  A    between atoms: C6_11  and  N2_5 
REMARK    4  A    between atoms: C5_10  and  C7_12 
REMARK    5  A    between atoms: C6_11  and  C8_13 
ROOT
HETATM    1  N1  UNK     1      30.879  -9.567  36.598  1.00  0.00     0.096 N 
HETATM    2  N2  UNK     1      30.030  -9.134  33.868  1.00  0.00     0.096 N 
HETATM    3  C1  UNK     1      31.713  -8.818  35.650  1.00  0.00     0.303 C 
HETATM    4  C2  UNK     1      29.459  -9.422  36.256  1.00  0.00     0.303 C 
HETATM    5  C3  UNK     1      31.450  -9.277  34.211  1.00  0.00     0.303 C 
HETATM    6  C4  UNK     1      29.195  -9.880  34.818  1.00  0.00     0.303 C 
ENDROOT
BRANCH   1   7
HETATM    7  C5  UNK     1      31.130  -9.127  37.969  1.00  0.00     0.312 C 
BRANCH   7   8
HETATM    8  C7  UNK     1      31.692  -7.749  38.023  1.00  0.00    -0.011 A 
HETATM    9  C10 UNK     1      32.993  -7.522  37.792  1.00  0.00     0.092 A 
HETATM   10  C15 UNK     1      33.594  -6.178  37.834  1.00  0.00     0.288 A 
HETATM   11  O1  UNK     1      32.743  -5.124  38.129  1.00  0.00    -0.275 OA
HETATM   12  O3  UNK     1      34.789  -6.009  37.618  1.00  0.00    -0.260 OA
HETATM   13  C13 UNK     1      31.371  -5.332  38.376  1.00  0.00     0.090 A 
HETATM   14  C9  UNK     1      30.816  -6.612  38.333  1.00  0.00     0.009 A 
HETATM   15  C19 UNK     1      30.610  -4.197  38.663  1.00  0.00     0.041 A 
HETATM   16  C14 UNK     1      29.443  -6.733  38.591  1.00  0.00     0.051 A 
HETATM   17  C20 UNK     1      28.667  -5.605  38.880  1.00  0.00     0.069 A 
HETATM   18  C21 UNK     1      29.250  -4.339  38.917  1.00  0.00     0.039 A 
BRANCH  17  19
HETATM   19  O2  UNK     1      27.335  -5.746  39.129  1.00  0.00    -0.356 OA
HETATM   20  C23 UNK     1      26.715  -6.948  38.677  1.00  0.00     0.210 C 
ENDBRANCH  17  19
ENDBRANCH   7   8
ENDBRANCH   1   7
BRANCH   2  21
HETATM   21  C6  UNK     1      29.779  -9.575  32.498  1.00  0.00     0.311 C 
BRANCH  21  22
HETATM   22  C8  UNK     1      28.755  -8.711  31.809  1.00  0.00    -0.030 A 
HETATM   23  C11 UNK     1      28.360  -7.505  32.385  1.00  0.00     0.009 A 
HETATM   24  C16 UNK     1      27.410  -6.706  31.748  1.00  0.00     0.007 A 
HETATM   25  C18 UNK     1      26.857  -7.114  30.533  1.00  0.00    -0.062 A 
HETATM   26  C17 UNK     1      27.253  -8.321  29.958  1.00  0.00     0.007 A 
HETATM   27  C22 UNK     1      25.842  -6.260  29.851  1.00  0.00     0.048 C 
HETATM   28  C12 UNK     1      28.203  -9.120  30.596  1.00  0.00     0.009 A 
ENDBRANCH  21  22
ENDBRANCH   2  21
TORSDOF 5
ENDMDL
MODEL 9
REMARK VINA RESULT:      -8.2     14.350     17.609
REMARK  5 active torsions:
REMARK  status: ('A' for Active; 'I' for Inactive)
REMARK    1  A    between atoms: C20_25  and  O2_2 
REMARK    2  A    between atoms: C5_10  and  N1_4 
REMARK    3  A    between atoms: C6_11  and  N2_5 
REMARK    4  A    between atoms: C5_10  and  C7_12 
REMARK    5  A    between atoms: C6_11  and  C8_13 
ROOT
HETATM    1  N1  UNK     1      30.923  -9.829  36.341  1.00  0.00     0.096 N 
HETATM    2  N2  UNK     1      30.611  -8.828  33.646  1.00  0.00     0.096 N 
HETATM    3  C1  UNK     1      32.013  -9.119  35.661  1.00  0.00     0.303 C 
HETATM    4  C2  UNK     1      29.622  -9.364  35.847  1.00  0.00     0.303 C 
HETATM    5  C3  UNK     1      31.913  -9.292  34.141  1.00  0.00     0.303 C 
HETATM    6  C4  UNK     1      29.521  -9.537  34.328  1.00  0.00     0.303 C 
ENDROOT
BRANCH   1   7
HETATM    7  C5  UNK     1      31.019  -9.661  37.790  1.00  0.00     0.312 C 
BRANCH   7   8
HETATM    8  C7  UNK     1      29.892  -8.856  38.337  1.00  0.00    -0.011 A 
HETATM    9  C10 UNK     1      28.752  -9.441  38.734  1.00  0.00     0.092 A 
HETATM   10  C15 UNK     1      27.612  -8.686  39.280  1.00  0.00     0.288 A 
HETATM   11  O1  UNK     1      27.760  -7.311  39.374  1.00  0.00    -0.275 OA
HETATM   12  O3  UNK     1      26.584  -9.255  39.633  1.00  0.00    -0.260 OA
HETATM   13  C13 UNK     1      28.947  -6.669  38.966  1.00  0.00     0.090 A 
HETATM   14  C9  UNK     1      30.019  -7.397  38.449  1.00  0.00     0.009 A 
HETATM   15  C19 UNK     1      28.985  -5.281  39.106  1.00  0.00     0.041 A 
HETATM   16  C14 UNK     1      31.163  -6.683  38.064  1.00  0.00     0.051 A 
HETATM   17  C20 UNK     1      31.217  -5.292  38.198  1.00  0.00     0.069 A 
HETATM   18  C21 UNK     1      30.129  -4.591  38.718  1.00  0.00     0.039 A 
BRANCH  17  19
HETATM   19  O2  UNK     1      32.338  -4.618  37.818  1.00  0.00    -0.356 OA
HETATM   20  C23 UNK     1      32.312  -3.986  36.540  1.00  0.00     0.210 C 
ENDBRANCH  17  19
ENDBRANCH   7   8
ENDBRANCH   1   7
BRANCH   2  21
HETATM   21  C6  UNK     1      30.516  -8.998  32.198  1.00  0.00     0.311 C 
BRANCH  21  22
HETATM   22  C8  UNK     1      29.292  -8.324  31.634  1.00  0.00    -0.030 A 
HETATM   23  C11 UNK     1      29.011  -6.999  31.964  1.00  0.00     0.009 A 
HETATM   24  C16 UNK     1      27.877  -6.375  31.443  1.00  0.00     0.007 A 
HETATM   25  C18 UNK     1      27.025  -7.079  30.590  1.00  0.00    -0.062 A 
HETATM   26  C17 UNK     1      27.306  -8.404  30.261  1.00  0.00     0.007 A 
HETATM   27  C22 UNK     1      25.812  -6.413  30.032  1.00  0.00     0.048 C 
HETATM   28  C12 UNK     1      28.441  -9.028  30.783  1.00  0.00     0.009 A 
ENDBRANCH  21  22
ENDBRANCH   2  21
TORSDOF 5
ENDMDL
MODEL 10
REMARK VINA RESULT:      -8.1      1.727      3.491
REMARK  5 active torsions:
REMARK  status: ('A' for Active; 'I' for Inactive)
REMARK    1  A    between atoms: C20_25  and  O2_2 
REMARK    2  A    between atoms: C5_10  and  N1_4 
REMARK    3  A    between atoms: C6_11  and  N2_5 
REMARK    4  A    between atoms: C5_10  and  C7_12 
REMARK    5  A    between atoms: C6_11  and  C8_13 
ROOT
HETATM    1  N1  UNK     1      18.524   1.997  33.447  1.00  0.00     0.096 N 
HETATM    2  N2  UNK     1      18.504   4.875  33.728  1.00  0.00     0.096 N 
HETATM    3  C1  UNK     1      18.447   2.634  34.768  1.00  0.00     0.303 C 
HETATM    4  C2  UNK     1      17.912   2.858  32.427  1.00  0.00     0.303 C 
HETATM    5  C3  UNK     1      19.115   4.014  34.748  1.00  0.00     0.303 C 
HETATM    6  C4  UNK     1      18.579   4.238  32.407  1.00  0.00     0.303 C 
ENDROOT
BRANCH   1   7
HETATM    7  C5  UNK     1      17.887   0.683  33.467  1.00  0.00     0.312 C 
BRANCH   7   8
HETATM    8  C7  UNK     1      18.832  -0.405  33.091  1.00  0.00    -0.011 A 
HETATM    9  C10 UNK     1      19.254  -1.300  33.997  1.00  0.00     0.092 A 
HETATM   10  C15 UNK     1      20.188  -2.391  33.673  1.00  0.00     0.288 A 
HETATM   11  O1  UNK     1      20.628  -2.465  32.361  1.00  0.00    -0.275 OA
HETATM   12  O3  UNK     1      20.553  -3.190  34.528  1.00  0.00    -0.260 OA
HETATM   13  C13 UNK     1      20.202  -1.541  31.387  1.00  0.00     0.090 A 
HETATM   14  C9  UNK     1      19.316  -0.511  31.709  1.00  0.00     0.009 A 
HETATM   15  C19 UNK     1      20.710  -1.712  30.097  1.00  0.00     0.041 A 
HETATM   16  C14 UNK     1      18.942   0.368  30.683  1.00  0.00     0.051 A 
HETATM   17  C20 UNK     1      19.442   0.209  29.386  1.00  0.00     0.069 A 
HETATM   18  C21 UNK     1      20.326  -0.829  29.094  1.00  0.00     0.039 A 
BRANCH  17  19
HETATM   19  O2  UNK     1      19.065   1.074  28.404  1.00  0.00    -0.356 OA
HETATM   20  C23 UNK     1      17.972   1.943  28.691  1.00  0.00     0.210 C 
ENDBRANCH  17  19
ENDBRANCH   7   8
ENDBRANCH   1   7
BRANCH   2  21
HETATM   21  C6  UNK     1      19.143   6.189  33.707  1.00  0.00     0.311 C 
BRANCH  21  22
HETATM   22  C8  UNK     1      18.154   7.298  33.952  1.00  0.00    -0.030 A 
HETATM   23  C11 UNK     1      18.539   8.627  33.780  1.00  0.00     0.009 A 
HETATM   24  C16 UNK     1      17.623   9.654  34.008  1.00  0.00     0.007 A 
HETATM   25  C18 UNK     1      16.321   9.351  34.407  1.00  0.00    -0.062 A 
HETATM   26  C17 UNK     1      15.936   8.022  34.579  1.00  0.00     0.007 A 
HETATM   27  C22 UNK     1      15.341  10.449  34.650  1.00  0.00     0.048 C 
HETATM   28  C12 UNK     1      16.852   6.994  34.351  1.00  0.00     0.009 A 
ENDBRANCH  21  22
ENDBRANCH   2  21
TORSDOF 5
ENDMDL
