MODEL 1
REMARK VINA RESULT:      -9.8      0.000      0.000
REMARK  3 active torsions:
REMARK  status: ('A' for Active; 'I' for Inactive)
REMARK    1  A    between atoms: C5_13  and  N1_7 
REMARK       I    between atoms: C6_14  and  N1_7 
REMARK    2  A    between atoms: C12_20  and  N2_8 
REMARK    3  A    between atoms: C2_10  and  C6_14 
ROOT
HETATM    1  O2  UNK     1      17.614   3.143  32.791  1.00  0.00    -0.267 OA
HETATM    2  N1  UNK     1      18.922   4.581  31.462  1.00  0.00    -0.323 N 
HETATM    3  C6  UNK     1      18.371   3.367  31.848  1.00  0.00     0.262 C 
HETATM    4  H2  UNK     1      19.517   4.601  30.638  1.00  0.00     0.169 HD
ENDROOT
BRANCH   3   5
HETATM    5  C2  UNK     1      18.790   2.265  30.973  1.00  0.00     0.108 A 
HETATM    6  C4  UNK     1      19.213   1.152  31.584  1.00  0.00     0.037 A 
HETATM    7  C1  UNK     1      19.649   0.007  30.801  1.00  0.00    -0.001 A 
HETATM    8  C3  UNK     1      19.619   0.090  29.412  1.00  0.00     0.089 A 
HETATM    9  C7  UNK     1      20.097  -1.175  31.396  1.00  0.00     0.014 A 
HETATM   10  C9  UNK     1      20.024  -0.971  28.605  1.00  0.00     0.038 A 
HETATM   11  O1  UNK     1      19.173   1.264  28.775  1.00  0.00    -0.274 OA
HETATM   12  C14 UNK     1      20.469  -2.147  29.207  1.00  0.00     0.003 A 
HETATM   13  C13 UNK     1      20.506  -2.249  30.600  1.00  0.00     0.001 A 
HETATM   14  C8  UNK     1      18.750   2.376  29.497  1.00  0.00     0.304 A 
HETATM   15  O3  UNK     1      18.363   3.394  28.934  1.00  0.00    -0.259 OA
ENDBRANCH   3   5
BRANCH   2  16
HETATM   16  C5  UNK     1      18.736   5.846  32.071  1.00  0.00     0.037 A 
HETATM   17  C10 UNK     1      17.532   6.510  31.899  1.00  0.00     0.067 A 
HETATM   18  C12 UNK     1      17.350   7.756  32.499  1.00  0.00     0.126 A 
HETATM   19  C16 UNK     1      18.372   8.319  33.261  1.00  0.00     0.067 A 
HETATM   20  C15 UNK     1      19.580   7.638  33.422  1.00  0.00     0.029 A 
HETATM   21 Cl1  UNK     1      18.196   9.861  34.023  1.00  0.00    -0.082 Cl
HETATM   22  C11 UNK     1      19.762   6.392  32.822  1.00  0.00     0.031 A 
BRANCH  18  23
HETATM   23  N2  UNK     1      16.105   8.420  32.312  1.00  0.00    -0.114 N 
HETATM   24  O4  UNK     1      15.372   8.623  33.309  1.00  0.00    -0.532 OA
HETATM   25  O5  UNK     1      15.779   8.780  31.157  1.00  0.00    -0.532 OA
ENDBRANCH  18  23
ENDBRANCH   2  16
TORSDOF 3
ENDMDL
MODEL 2
REMARK VINA RESULT:      -9.6      9.170     12.906
REMARK  3 active torsions:
REMARK  status: ('A' for Active; 'I' for Inactive)
REMARK    1  A    between atoms: C5_13  and  N1_7 
REMARK       I    between atoms: C6_14  and  N1_7 
REMARK    2  A    between atoms: C12_20  and  N2_8 
REMARK    3  A    between atoms: C2_10  and  C6_14 
ROOT
HETATM    1  O2  UNK     1      21.230  -4.413  37.318  1.00  0.00    -0.267 OA
HETATM    2  N1  UNK     1      19.399  -5.358  36.176  1.00  0.00    -0.323 N 
HETATM    3  C6  UNK     1      20.216  -4.330  36.626  1.00  0.00     0.262 C 
HETATM    4  H2  UNK     1      18.604  -5.121  35.589  1.00  0.00     0.169 HD
ENDROOT
BRANCH   3   5
HETATM    5  C2  UNK     1      19.748  -3.013  36.176  1.00  0.00     0.108 A 
HETATM    6  C4  UNK     1      19.045  -2.300  37.063  1.00  0.00     0.037 A 
HETATM    7  C1  UNK     1      18.538  -0.984  36.710  1.00  0.00    -0.001 A 
HETATM    8  C3  UNK     1      18.796  -0.483  35.438  1.00  0.00     0.089 A 
HETATM    9  C7  UNK     1      17.800  -0.205  37.604  1.00  0.00     0.014 A 
HETATM   10  C9  UNK     1      18.338   0.771  35.036  1.00  0.00     0.038 A 
HETATM   11  O1  UNK     1      19.536  -1.238  34.508  1.00  0.00    -0.274 OA
HETATM   12  C14 UNK     1      17.603   1.542  35.935  1.00  0.00     0.003 A 
HETATM   13  C13 UNK     1      17.335   1.055  37.216  1.00  0.00     0.001 A 
HETATM   14  C8  UNK     1      20.034  -2.500  34.817  1.00  0.00     0.304 A 
HETATM   15  O3  UNK     1      20.678  -3.150  34.001  1.00  0.00    -0.259 OA
ENDBRANCH   3   5
BRANCH   2  16
HETATM   16  C5  UNK     1      19.548  -6.746  36.415  1.00  0.00     0.037 A 
HETATM   17  C10 UNK     1      20.586  -7.431  35.805  1.00  0.00     0.067 A 
HETATM   18  C12 UNK     1      20.731  -8.798  36.041  1.00  0.00     0.126 A 
HETATM   19  C16 UNK     1      19.838  -9.459  36.882  1.00  0.00     0.067 A 
HETATM   20  C15 UNK     1      18.796  -8.755  37.487  1.00  0.00     0.029 A 
HETATM   21 Cl1  UNK     1      19.974 -11.152  37.204  1.00  0.00    -0.082 Cl
HETATM   22  C11 UNK     1      18.650  -7.388  37.252  1.00  0.00     0.031 A 
BRANCH  18  23
HETATM   23  N2  UNK     1      21.806  -9.482  35.406  1.00  0.00    -0.114 N 
HETATM   24  O4  UNK     1      21.652  -9.890  34.230  1.00  0.00    -0.532 OA
HETATM   25  O5  UNK     1      22.871  -9.658  36.042  1.00  0.00    -0.532 OA
ENDBRANCH  18  23
ENDBRANCH   2  16
TORSDOF 3
ENDMDL
MODEL 3
REMARK VINA RESULT:      -9.5      3.498      8.537
REMARK  3 active torsions:
REMARK  status: ('A' for Active; 'I' for Inactive)
REMARK    1  A    between atoms: C5_13  and  N1_7 
REMARK       I    between atoms: C6_14  and  N1_7 
REMARK    2  A    between atoms: C12_20  and  N2_8 
REMARK    3  A    between atoms: C2_10  and  C6_14 
ROOT
HETATM    1  O2  UNK     1      19.719   5.433  31.003  1.00  0.00    -0.267 OA
HETATM    2  N1  UNK     1      17.998   3.898  31.482  1.00  0.00    -0.323 N 
HETATM    3  C6  UNK     1      18.679   5.105  31.571  1.00  0.00     0.262 C 
HETATM    4  H2  UNK     1      17.132   3.792  32.004  1.00  0.00     0.169 HD
ENDROOT
BRANCH   3   5
HETATM    5  C2  UNK     1      18.011   6.052  32.473  1.00  0.00     0.108 A 
HETATM    6  C4  UNK     1      16.854   6.565  32.039  1.00  0.00     0.037 A 
HETATM    7  C1  UNK     1      16.118   7.513  32.862  1.00  0.00    -0.001 A 
HETATM    8  C3  UNK     1      16.638   7.873  34.101  1.00  0.00     0.089 A 
HETATM    9  C7  UNK     1      14.907   8.073  32.450  1.00  0.00     0.014 A 
HETATM   10  C9  UNK     1      15.984   8.776  34.936  1.00  0.00     0.038 A 
HETATM   11  O1  UNK     1      17.857   7.330  34.552  1.00  0.00    -0.274 OA
HETATM   12  C14 UNK     1      14.775   9.330  34.518  1.00  0.00     0.003 A 
HETATM   13  C13 UNK     1      14.238   8.979  33.278  1.00  0.00     0.001 A 
HETATM   14  C8  UNK     1      18.583   6.421  33.787  1.00  0.00     0.304 A 
HETATM   15  O3  UNK     1      19.643   5.953  34.188  1.00  0.00    -0.259 OA
ENDBRANCH   3   5
BRANCH   2  16
HETATM   16  C5  UNK     1      18.350   2.764  30.710  1.00  0.00     0.037 A 
HETATM   17  C10 UNK     1      19.000   1.704  31.321  1.00  0.00     0.067 A 
HETATM   18  C12 UNK     1      19.346   0.587  30.559  1.00  0.00     0.126 A 
HETATM   19  C16 UNK     1      19.036   0.547  29.201  1.00  0.00     0.067 A 
HETATM   20  C15 UNK     1      18.382   1.624  28.600  1.00  0.00     0.029 A 
HETATM   21 Cl1  UNK     1      19.445  -0.813  28.214  1.00  0.00    -0.082 Cl
HETATM   22  C11 UNK     1      18.037   2.740  29.362  1.00  0.00     0.031 A 
BRANCH  18  23
HETATM   23  N2  UNK     1      20.012  -0.491  31.206  1.00  0.00    -0.114 N 
HETATM   24  O4  UNK     1      19.326  -1.415  31.703  1.00  0.00    -0.532 OA
HETATM   25  O5  UNK     1      21.264  -0.484  31.259  1.00  0.00    -0.532 OA
ENDBRANCH  18  23
ENDBRANCH   2  16
TORSDOF 3
ENDMDL
MODEL 4
REMARK VINA RESULT:      -9.4      7.999     10.011
REMARK  3 active torsions:
REMARK  status: ('A' for Active; 'I' for Inactive)
REMARK    1  A    between atoms: C5_13  and  N1_7 
REMARK       I    between atoms: C6_14  and  N1_7 
REMARK    2  A    between atoms: C12_20  and  N2_8 
REMARK    3  A    between atoms: C2_10  and  C6_14 
ROOT
HETATM    1  O2  UNK     1      21.156  -3.685  36.982  1.00  0.00    -0.267 OA
HETATM    2  N1  UNK     1      18.813  -3.698  36.742  1.00  0.00    -0.323 N 
HETATM    3  C6  UNK     1      20.076  -4.261  36.856  1.00  0.00     0.262 C 
HETATM    4  H2  UNK     1      18.012  -4.320  36.666  1.00  0.00     0.169 HD
ENDROOT
BRANCH   3   5
HETATM    5  C2  UNK     1      20.035  -5.728  36.812  1.00  0.00     0.108 A 
HETATM    6  C4  UNK     1      19.925  -6.352  37.991  1.00  0.00     0.037 A 
HETATM    7  C1  UNK     1      19.876  -7.804  38.051  1.00  0.00    -0.001 A 
HETATM    8  C3  UNK     1      19.946  -8.529  36.865  1.00  0.00     0.089 A 
HETATM    9  C7  UNK     1      19.762  -8.497  39.258  1.00  0.00     0.014 A 
HETATM   10  C9  UNK     1      19.905  -9.922  36.853  1.00  0.00     0.038 A 
HETATM   11  O1  UNK     1      20.061  -7.867  35.627  1.00  0.00    -0.274 OA
HETATM   12  C14 UNK     1      19.790 -10.605  38.062  1.00  0.00     0.003 A 
HETATM   13  C13 UNK     1      19.719  -9.894  39.262  1.00  0.00     0.001 A 
HETATM   14  C8  UNK     1      20.110  -6.479  35.539  1.00  0.00     0.304 A 
HETATM   15  O3  UNK     1      20.210  -5.911  34.457  1.00  0.00    -0.259 OA
ENDBRANCH   3   5
BRANCH   2  16
HETATM   16  C5  UNK     1      18.478  -2.322  36.747  1.00  0.00     0.037 A 
HETATM   17  C10 UNK     1      18.346  -1.653  35.541  1.00  0.00     0.067 A 
HETATM   18  C12 UNK     1      18.016  -0.298  35.546  1.00  0.00     0.126 A 
HETATM   19  C16 UNK     1      17.822   0.368  36.756  1.00  0.00     0.067 A 
HETATM   20  C15 UNK     1      17.961  -0.320  37.962  1.00  0.00     0.029 A 
HETATM   21 Cl1  UNK     1      17.414   2.047  36.816  1.00  0.00    -0.082 Cl
HETATM   22  C11 UNK     1      18.291  -1.676  37.957  1.00  0.00     0.031 A 
BRANCH  18  23
HETATM   23  N2  UNK     1      17.883   0.371  34.297  1.00  0.00    -0.114 N 
HETATM   24  O4  UNK     1      16.760   0.819  33.967  1.00  0.00    -0.532 OA
HETATM   25  O5  UNK     1      18.893   0.490  33.564  1.00  0.00    -0.532 OA
ENDBRANCH  18  23
ENDBRANCH   2  16
TORSDOF 3
ENDMDL
MODEL 5
REMARK VINA RESULT:      -9.4      1.156      1.964
REMARK  3 active torsions:
REMARK  status: ('A' for Active; 'I' for Inactive)
REMARK    1  A    between atoms: C5_13  and  N1_7 
REMARK       I    between atoms: C6_14  and  N1_7 
REMARK    2  A    between atoms: C12_20  and  N2_8 
REMARK    3  A    between atoms: C2_10  and  C6_14 
ROOT
HETATM    1  O2  UNK     1      18.268   4.415  30.364  1.00  0.00    -0.267 OA
HETATM    2  N1  UNK     1      18.533   4.503  32.703  1.00  0.00    -0.323 N 
HETATM    3  C6  UNK     1      18.490   3.894  31.456  1.00  0.00     0.262 C 
HETATM    4  H2  UNK     1      18.755   3.930  33.513  1.00  0.00     0.169 HD
ENDROOT
BRANCH   3   5
HETATM    5  C2  UNK     1      18.756   2.452  31.534  1.00  0.00     0.108 A 
HETATM    6  C4  UNK     1      19.375   1.906  30.481  1.00  0.00     0.037 A 
HETATM    7  C1  UNK     1      19.680   0.484  30.466  1.00  0.00    -0.001 A 
HETATM    8  C3  UNK     1      19.317  -0.293  31.561  1.00  0.00     0.089 A 
HETATM    9  C7  UNK     1      20.325  -0.127  29.389  1.00  0.00     0.014 A 
HETATM   10  C9  UNK     1      19.580  -1.661  31.609  1.00  0.00     0.038 A 
HETATM   11  O1  UNK     1      18.666   0.287  32.667  1.00  0.00    -0.274 OA
HETATM   12  C14 UNK     1      20.224  -2.263  30.530  1.00  0.00     0.003 A 
HETATM   13  C13 UNK     1      20.596  -1.498  29.422  1.00  0.00     0.001 A 
HETATM   14  C8  UNK     1      18.361   1.644  32.710  1.00  0.00     0.304 A 
HETATM   15  O3  UNK     1      17.794   2.141  33.677  1.00  0.00    -0.259 OA
ENDBRANCH   3   5
BRANCH   2  16
HETATM   16  C5  UNK     1      18.329   5.872  33.003  1.00  0.00     0.037 A 
HETATM   17  C10 UNK     1      17.185   6.503  32.541  1.00  0.00     0.067 A 
HETATM   18  C12 UNK     1      16.985   7.851  32.837  1.00  0.00     0.126 A 
HETATM   19  C16 UNK     1      17.929   8.548  33.589  1.00  0.00     0.067 A 
HETATM   20  C15 UNK     1      19.077   7.898  34.045  1.00  0.00     0.029 A 
HETATM   21 Cl1  UNK     1      17.728  10.220  33.980  1.00  0.00    -0.082 Cl
HETATM   22  C11 UNK     1      19.278   6.549  33.749  1.00  0.00     0.031 A 
BRANCH  18  23
HETATM   23  N2  UNK     1      15.802   8.480  32.355  1.00  0.00    -0.114 N 
HETATM   24  O4  UNK     1      14.873   8.720  33.162  1.00  0.00    -0.532 OA
HETATM   25  O5  UNK     1      15.726   8.774  31.139  1.00  0.00    -0.532 OA
ENDBRANCH  18  23
ENDBRANCH   2  16
TORSDOF 3
ENDMDL
MODEL 6
REMARK VINA RESULT:      -8.7     14.791     16.337
REMARK  3 active torsions:
REMARK  status: ('A' for Active; 'I' for Inactive)
REMARK    1  A    between atoms: C5_13  and  N1_7 
REMARK       I    between atoms: C6_14  and  N1_7 
REMARK    2  A    between atoms: C12_20  and  N2_8 
REMARK    3  A    between atoms: C2_10  and  C6_14 
ROOT
HETATM    1  O2  UNK     1      26.188  -9.218  38.878  1.00  0.00    -0.267 OA
HETATM    2  N1  UNK     1      24.711  -7.405  38.595  1.00  0.00    -0.323 N 
HETATM    3  C6  UNK     1      25.948  -8.021  38.731  1.00  0.00     0.262 C 
HETATM    4  H2  UNK     1      24.685  -6.398  38.457  1.00  0.00     0.169 HD
ENDROOT
BRANCH   3   5
HETATM    5  C2  UNK     1      27.054  -7.057  38.682  1.00  0.00     0.108 A 
HETATM    6  C4  UNK     1      28.282  -7.572  38.550  1.00  0.00     0.037 A 
HETATM    7  C1  UNK     1      29.442  -6.697  38.492  1.00  0.00    -0.001 A 
HETATM    8  C3  UNK     1      29.252  -5.321  38.576  1.00  0.00     0.089 A 
HETATM    9  C7  UNK     1      30.741  -7.190  38.354  1.00  0.00     0.014 A 
HETATM   10  C9  UNK     1      30.321  -4.428  38.528  1.00  0.00     0.038 A 
HETATM   11  O1  UNK     1      27.957  -4.784  38.715  1.00  0.00    -0.274 OA
HETATM   12  C14 UNK     1      31.614  -4.929  38.390  1.00  0.00     0.003 A 
HETATM   13  C13 UNK     1      31.824  -6.307  38.303  1.00  0.00     0.001 A 
HETATM   14  C8  UNK     1      26.828  -5.597  38.773  1.00  0.00     0.304 A 
HETATM   15  O3  UNK     1      25.705  -5.121  38.894  1.00  0.00    -0.259 OA
ENDBRANCH   3   5
BRANCH   2  16
HETATM   16  C5  UNK     1      23.436  -8.021  38.594  1.00  0.00     0.037 A 
HETATM   17  C10 UNK     1      22.949  -8.568  37.418  1.00  0.00     0.067 A 
HETATM   18  C12 UNK     1      21.692  -9.175  37.418  1.00  0.00     0.126 A 
HETATM   19  C16 UNK     1      20.943  -9.226  38.593  1.00  0.00     0.067 A 
HETATM   20  C15 UNK     1      21.447  -8.668  39.768  1.00  0.00     0.029 A 
HETATM   21 Cl1  UNK     1      19.380  -9.964  38.644  1.00  0.00    -0.082 Cl
HETATM   22  C11 UNK     1      22.704  -8.061  39.768  1.00  0.00     0.031 A 
BRANCH  18  23
HETATM   23  N2  UNK     1      21.211  -9.732  36.200  1.00  0.00    -0.114 N 
HETATM   24  O4  UNK     1      20.675  -8.974  35.358  1.00  0.00    -0.532 OA
HETATM   25  O5  UNK     1      21.336 -10.964  36.008  1.00  0.00    -0.532 OA
ENDBRANCH  18  23
ENDBRANCH   2  16
TORSDOF 3
ENDMDL
MODEL 7
REMARK VINA RESULT:      -8.5      3.216      8.458
REMARK  3 active torsions:
REMARK  status: ('A' for Active; 'I' for Inactive)
REMARK    1  A    between atoms: C5_13  and  N1_7 
REMARK       I    between atoms: C6_14  and  N1_7 
REMARK    2  A    between atoms: C12_20  and  N2_8 
REMARK    3  A    between atoms: C2_10  and  C6_14 
ROOT
HETATM    1  O2  UNK     1      19.239   5.546  33.146  1.00  0.00    -0.267 OA
HETATM    2  N1  UNK     1      17.519   4.386  32.031  1.00  0.00    -0.323 N 
HETATM    3  C6  UNK     1      18.129   5.485  32.621  1.00  0.00     0.262 C 
HETATM    4  H2  UNK     1      16.598   4.509  31.618  1.00  0.00     0.169 HD
ENDROOT
BRANCH   3   5
HETATM    5  C2  UNK     1      17.281   6.683  32.568  1.00  0.00     0.108 A 
HETATM    6  C4  UNK     1      16.803   7.121  33.739  1.00  0.00     0.037 A 
HETATM    7  C1  UNK     1      15.954   8.300  33.789  1.00  0.00    -0.001 A 
HETATM    8  C3  UNK     1      15.649   8.961  32.603  1.00  0.00     0.089 A 
HETATM    9  C7  UNK     1      15.433   8.793  34.988  1.00  0.00     0.014 A 
HETATM   10  C9  UNK     1      14.840  10.095  32.582  1.00  0.00     0.038 A 
HETATM   11  O1  UNK     1      16.155   8.495  31.374  1.00  0.00    -0.274 OA
HETATM   12  C14 UNK     1      14.326  10.581  33.782  1.00  0.00     0.003 A 
HETATM   13  C13 UNK     1      14.621   9.931  34.983  1.00  0.00     0.001 A 
HETATM   14  C8  UNK     1      16.970   7.370  31.295  1.00  0.00     0.304 A 
HETATM   15  O3  UNK     1      17.406   6.972  30.220  1.00  0.00    -0.259 OA
ENDBRANCH   3   5
BRANCH   2  16
HETATM   16  C5  UNK     1      18.041   3.077  31.900  1.00  0.00     0.037 A 
HETATM   17  C10 UNK     1      18.426   2.623  30.650  1.00  0.00     0.067 A 
HETATM   18  C12 UNK     1      18.940   1.332  30.522  1.00  0.00     0.126 A 
HETATM   19  C16 UNK     1      19.062   0.516  31.645  1.00  0.00     0.067 A 
HETATM   20  C15 UNK     1      18.668   0.988  32.898  1.00  0.00     0.029 A 
HETATM   21 Cl1  UNK     1      19.691  -1.091  31.539  1.00  0.00    -0.082 Cl
HETATM   22  C11 UNK     1      18.154   2.278  33.026  1.00  0.00     0.031 A 
BRANCH  18  23
HETATM   23  N2  UNK     1      19.332   0.886  29.228  1.00  0.00    -0.114 N 
HETATM   24  O4  UNK     1      18.543   1.048  28.268  1.00  0.00    -0.532 OA
HETATM   25  O5  UNK     1      20.453   0.342  29.090  1.00  0.00    -0.532 OA
ENDBRANCH  18  23
ENDBRANCH   2  16
TORSDOF 3
ENDMDL
MODEL 8
REMARK VINA RESULT:      -8.5      8.079     10.047
REMARK  3 active torsions:
REMARK  status: ('A' for Active; 'I' for Inactive)
REMARK    1  A    between atoms: C5_13  and  N1_7 
REMARK       I    between atoms: C6_14  and  N1_7 
REMARK    2  A    between atoms: C12_20  and  N2_8 
REMARK    3  A    between atoms: C2_10  and  C6_14 
ROOT
HETATM    1  O2  UNK     1      20.455  -4.002  35.334  1.00  0.00    -0.267 OA
HETATM    2  N1  UNK     1      18.786  -3.222  36.801  1.00  0.00    -0.323 N 
HETATM    3  C6  UNK     1      19.678  -4.147  36.276  1.00  0.00     0.262 C 
HETATM    4  H2  UNK     1      18.225  -3.494  37.604  1.00  0.00     0.169 HD
ENDROOT
BRANCH   3   5
HETATM    5  C2  UNK     1      19.629  -5.430  36.988  1.00  0.00     0.108 A 
HETATM    6  C4  UNK     1      20.742  -5.788  37.639  1.00  0.00     0.037 A 
HETATM    7  C1  UNK     1      20.790  -7.042  38.374  1.00  0.00    -0.001 A 
HETATM    8  C3  UNK     1      19.663  -7.859  38.387  1.00  0.00     0.089 A 
HETATM    9  C7  UNK     1      21.929  -7.456  39.068  1.00  0.00     0.014 A 
HETATM   10  C9  UNK     1      19.644  -9.072  39.070  1.00  0.00     0.038 A 
HETATM   11  O1  UNK     1      18.494  -7.476  37.700  1.00  0.00    -0.274 OA
HETATM   12  C14 UNK     1      20.785  -9.477  39.760  1.00  0.00     0.003 A 
HETATM   13  C13 UNK     1      21.926  -8.671  39.759  1.00  0.00     0.001 A 
HETATM   14  C8  UNK     1      18.419  -6.282  36.988  1.00  0.00     0.304 A 
HETATM   15  O3  UNK     1      17.397  -5.957  36.393  1.00  0.00    -0.259 OA
ENDBRANCH   3   5
BRANCH   2  16
HETATM   16  C5  UNK     1      18.567  -1.892  36.368  1.00  0.00     0.037 A 
HETATM   17  C10 UNK     1      18.043  -0.967  37.256  1.00  0.00     0.067 A 
HETATM   18  C12 UNK     1      17.828   0.343  36.828  1.00  0.00     0.126 A 
HETATM   19  C16 UNK     1      18.140   0.709  35.519  1.00  0.00     0.067 A 
HETATM   20  C15 UNK     1      18.665  -0.235  34.636  1.00  0.00     0.029 A 
HETATM   21 Cl1  UNK     1      17.890   2.319  34.940  1.00  0.00    -0.082 Cl
HETATM   22  C11 UNK     1      18.881  -1.545  35.064  1.00  0.00     0.031 A 
BRANCH  18  23
HETATM   23  N2  UNK     1      17.290   1.278  37.757  1.00  0.00    -0.114 N 
HETATM   24  O4  UNK     1      16.179   1.803  37.511  1.00  0.00    -0.532 OA
HETATM   25  O5  UNK     1      17.944   1.547  38.791  1.00  0.00    -0.532 OA
ENDBRANCH  18  23
ENDBRANCH   2  16
TORSDOF 3
ENDMDL
MODEL 9
REMARK VINA RESULT:      -8.5     14.898     18.379
REMARK  3 active torsions:
REMARK  status: ('A' for Active; 'I' for Inactive)
REMARK    1  A    between atoms: C5_13  and  N1_7 
REMARK       I    between atoms: C6_14  and  N1_7 
REMARK    2  A    between atoms: C12_20  and  N2_8 
REMARK    3  A    between atoms: C2_10  and  C6_14 
ROOT
HETATM    1  O2  UNK     1      20.290  -3.213  16.104  1.00  0.00    -0.267 OA
HETATM    2  N1  UNK     1      18.033  -3.029  15.455  1.00  0.00    -0.323 N 
HETATM    3  C6  UNK     1      19.259  -2.568  15.914  1.00  0.00     0.262 C 
HETATM    4  H2  UNK     1      17.281  -2.357  15.330  1.00  0.00     0.169 HD
ENDROOT
BRANCH   3   5
HETATM    5  C2  UNK     1      19.243  -1.125  16.182  1.00  0.00     0.108 A 
HETATM    6  C4  UNK     1      19.153  -0.762  17.467  1.00  0.00     0.037 A 
HETATM    7  C1  UNK     1      19.130   0.645  17.832  1.00  0.00    -0.001 A 
HETATM    8  C3  UNK     1      19.202   1.603  16.825  1.00  0.00     0.089 A 
HETATM    9  C7  UNK     1      19.038   1.069  19.160  1.00  0.00     0.014 A 
HETATM   10  C9  UNK     1      19.184   2.967  17.108  1.00  0.00     0.038 A 
HETATM   11  O1  UNK     1      19.297   1.215  15.474  1.00  0.00    -0.274 OA
HETATM   12  C14 UNK     1      19.092   3.381  18.435  1.00  0.00     0.003 A 
HETATM   13  C13 UNK     1      19.019   2.434  19.459  1.00  0.00     0.001 A 
HETATM   14  C8  UNK     1      19.321  -0.124  15.095  1.00  0.00     0.304 A 
HETATM   15  O3  UNK     1      19.404  -0.451  13.916  1.00  0.00    -0.259 OA
ENDBRANCH   3   5
BRANCH   2  16
HETATM   16  C5  UNK     1      17.688  -4.355  15.097  1.00  0.00     0.037 A 
HETATM   17  C10 UNK     1      16.763  -5.044  15.864  1.00  0.00     0.067 A 
HETATM   18  C12 UNK     1      16.424  -6.351  15.511  1.00  0.00     0.126 A 
HETATM   19  C16 UNK     1      17.014  -6.948  14.398  1.00  0.00     0.067 A 
HETATM   20  C15 UNK     1      17.946  -6.240  13.638  1.00  0.00     0.029 A 
HETATM   21 Cl1  UNK     1      16.629  -8.565  13.921  1.00  0.00    -0.082 Cl
HETATM   22  C11 UNK     1      18.285  -4.934  13.990  1.00  0.00     0.031 A 
BRANCH  18  23
HETATM   23  N2  UNK     1      15.469  -7.041  16.310  1.00  0.00    -0.114 N 
HETATM   24  O4  UNK     1      15.813  -7.450  17.444  1.00  0.00    -0.532 OA
HETATM   25  O5  UNK     1      14.315  -7.219  15.856  1.00  0.00    -0.532 OA
ENDBRANCH  18  23
ENDBRANCH   2  16
TORSDOF 3
ENDMDL
MODEL 10
REMARK VINA RESULT:      -8.4      8.009     10.381
REMARK  3 active torsions:
REMARK  status: ('A' for Active; 'I' for Inactive)
REMARK    1  A    between atoms: C5_13  and  N1_7 
REMARK       I    between atoms: C6_14  and  N1_7 
REMARK    2  A    between atoms: C12_20  and  N2_8 
REMARK    3  A    between atoms: C2_10  and  C6_14 
ROOT
HETATM    1  O2  UNK     1      18.309  -5.647  36.509  1.00  0.00    -0.267 OA
HETATM    2  N1  UNK     1      20.023  -4.041  36.677  1.00  0.00    -0.323 N 
HETATM    3  C6  UNK     1      19.489  -5.321  36.629  1.00  0.00     0.262 C 
HETATM    4  H2  UNK     1      21.032  -3.942  36.757  1.00  0.00     0.169 HD
ENDROOT
BRANCH   3   5
HETATM    5  C2  UNK     1      20.523  -6.357  36.741  1.00  0.00     0.108 A 
HETATM    6  C4  UNK     1      20.402  -7.404  35.916  1.00  0.00     0.037 A 
HETATM    7  C1  UNK     1      21.378  -8.482  35.953  1.00  0.00    -0.001 A 
HETATM    8  C3  UNK     1      22.433  -8.405  36.857  1.00  0.00     0.089 A 
HETATM    9  C7  UNK     1      21.292  -9.593  35.110  1.00  0.00     0.014 A 
HETATM   10  C9  UNK     1      23.400  -9.404  36.942  1.00  0.00     0.038 A 
HETATM   11  O1  UNK     1      22.554  -7.301  37.722  1.00  0.00    -0.274 OA
HETATM   12  C14 UNK     1      23.307 -10.509  36.098  1.00  0.00     0.003 A 
HETATM   13  C13 UNK     1      22.255 -10.604  35.184  1.00  0.00     0.001 A 
HETATM   14  C8  UNK     1      21.636  -6.254  37.710  1.00  0.00     0.304 A 
HETATM   15  O3  UNK     1      21.750  -5.297  38.468  1.00  0.00    -0.259 OA
ENDBRANCH   3   5
BRANCH   2  16
HETATM   16  C5  UNK     1      19.326  -2.811  36.596  1.00  0.00     0.037 A 
HETATM   17  C10 UNK     1      19.156  -2.208  35.361  1.00  0.00     0.067 A 
HETATM   18  C12 UNK     1      18.470  -0.996  35.283  1.00  0.00     0.126 A 
HETATM   19  C16 UNK     1      17.963  -0.406  36.441  1.00  0.00     0.067 A 
HETATM   20  C15 UNK     1      18.145  -1.026  37.678  1.00  0.00     0.029 A 
HETATM   21 Cl1  UNK     1      17.107   1.096  36.397  1.00  0.00    -0.082 Cl
HETATM   22  C11 UNK     1      18.832  -2.237  37.756  1.00  0.00     0.031 A 
BRANCH  18  23
HETATM   23  N2  UNK     1      18.304  -0.394  34.004  1.00  0.00    -0.114 N 
HETATM   24  O4  UNK     1      17.510  -0.917  33.188  1.00  0.00    -0.532 OA
HETATM   25  O5  UNK     1      18.958   0.640  33.733  1.00  0.00    -0.532 OA
ENDBRANCH  18  23
ENDBRANCH   2  16
TORSDOF 3
ENDMDL
