MODEL 1
REMARK VINA RESULT:      -7.0      0.000      0.000
REMARK  0 active torsions:
REMARK  status: ('A' for Active; 'I' for Inactive)
ROOT
HETATM    1  O1  UNK     1      19.150   1.271  28.724  1.00  0.00    -0.274 OA
HETATM    2  O2  UNK     1      18.261   3.374  28.684  1.00  0.00    -0.258 OA
HETATM    3  N1  UNK     1      17.649   4.467  32.066  1.00  0.00    -0.191 NA
HETATM    4  C1  UNK     1      19.525   0.161  30.852  1.00  0.00    -0.001 A 
HETATM    5  C2  UNK     1      19.589   0.156  29.463  1.00  0.00     0.089 A 
HETATM    6  C3  UNK     1      18.998   1.337  31.524  1.00  0.00     0.043 A 
HETATM    7  C4  UNK     1      19.969  -0.964  31.551  1.00  0.00     0.014 A 
HETATM    8  C5  UNK     1      20.082  -0.938  28.754  1.00  0.00     0.038 A 
HETATM    9  C6  UNK     1      18.580   2.400  30.825  1.00  0.00     0.120 A 
HETATM   10  C7  UNK     1      20.466  -2.069  30.854  1.00  0.00     0.001 A 
HETATM   11  C8  UNK     1      20.523  -2.056  29.459  1.00  0.00     0.003 A 
HETATM   12  C9  UNK     1      18.641   2.411  29.342  1.00  0.00     0.309 A 
HETATM   13  C10 UNK     1      18.067   3.539  31.510  1.00  0.00     0.105 C 
ENDROOT
TORSDOF 0
ENDMDL
MODEL 2
REMARK VINA RESULT:      -7.0      2.022      2.595
REMARK  0 active torsions:
REMARK  status: ('A' for Active; 'I' for Inactive)
ROOT
HETATM    1  O1  UNK     1      18.759   0.355  32.696  1.00  0.00    -0.274 OA
HETATM    2  O2  UNK     1      17.803   1.994  33.965  1.00  0.00    -0.258 OA
HETATM    3  N1  UNK     1      17.510   5.000  31.993  1.00  0.00    -0.191 NA
HETATM    4  C1  UNK     1      19.390   0.822  30.397  1.00  0.00    -0.001 A 
HETATM    5  C2  UNK     1      19.309  -0.060  31.468  1.00  0.00     0.089 A 
HETATM    6  C3  UNK     1      18.897   2.179  30.569  1.00  0.00     0.043 A 
HETATM    7  C4  UNK     1      19.942   0.375  29.195  1.00  0.00     0.014 A 
HETATM    8  C5  UNK     1      19.764  -1.374  31.372  1.00  0.00     0.038 A 
HETATM    9  C6  UNK     1      18.372   2.578  31.735  1.00  0.00     0.120 A 
HETATM   10  C7  UNK     1      20.403  -0.940  29.084  1.00  0.00     0.001 A 
HETATM   11  C8  UNK     1      20.313  -1.813  30.170  1.00  0.00     0.003 A 
HETATM   12  C9  UNK     1      18.279   1.648  32.889  1.00  0.00     0.309 A 
HETATM   13  C10 UNK     1      17.898   3.913  31.877  1.00  0.00     0.105 C 
ENDROOT
TORSDOF 0
ENDMDL
MODEL 3
REMARK VINA RESULT:      -6.9      2.936      3.586
REMARK  0 active torsions:
REMARK  status: ('A' for Active; 'I' for Inactive)
ROOT
HETATM    1  O1  UNK     1      18.708   1.194  31.800  1.00  0.00    -0.274 OA
HETATM    2  O2  UNK     1      17.649   1.861  33.709  1.00  0.00    -0.258 OA
HETATM    3  N1  UNK     1      17.527  -0.903  36.023  1.00  0.00    -0.191 NA
HETATM    4  C1  UNK     1      19.532  -1.083  31.609  1.00  0.00    -0.001 A 
HETATM    5  C2  UNK     1      19.359   0.185  31.065  1.00  0.00     0.089 A 
HETATM    6  C3  UNK     1      19.027  -1.346  32.947  1.00  0.00     0.043 A 
HETATM    7  C4  UNK     1      20.182  -2.059  30.851  1.00  0.00     0.014 A 
HETATM    8  C5  UNK     1      19.817   0.504  29.788  1.00  0.00     0.038 A 
HETATM    9  C6  UNK     1      18.408  -0.388  33.649  1.00  0.00     0.120 A 
HETATM   10  C7  UNK     1      20.647  -1.754  29.569  1.00  0.00     0.001 A 
HETATM   11  C8  UNK     1      20.466  -0.475  29.039  1.00  0.00     0.003 A 
HETATM   12  C9  UNK     1      18.215   0.971  33.083  1.00  0.00     0.309 A 
HETATM   13  C10 UNK     1      17.922  -0.673  34.957  1.00  0.00     0.105 C 
ENDROOT
TORSDOF 0
ENDMDL
MODEL 4
REMARK VINA RESULT:      -6.6     22.734     24.255
REMARK  0 active torsions:
REMARK  status: ('A' for Active; 'I' for Inactive)
ROOT
HETATM    1  O1  UNK     1      11.275   7.161   9.574  1.00  0.00    -0.274 OA
HETATM    2  O2  UNK     1      13.206   7.153  10.791  1.00  0.00    -0.258 OA
HETATM    3  N1  UNK     1      15.810   5.556   8.874  1.00  0.00    -0.191 NA
HETATM    4  C1  UNK     1      11.246   6.179   7.352  1.00  0.00    -0.001 A 
HETATM    5  C2  UNK     1      10.588   6.829   8.390  1.00  0.00     0.089 A 
HETATM    6  C3  UNK     1      12.653   5.849   7.512  1.00  0.00     0.043 A 
HETATM    7  C4  UNK     1      10.532   5.865   6.194  1.00  0.00     0.014 A 
HETATM    8  C5  UNK     1       9.241   7.174   8.304  1.00  0.00     0.038 A 
HETATM    9  C6  UNK     1      13.310   6.164   8.636  1.00  0.00     0.120 A 
HETATM   10  C7  UNK     1       9.179   6.204   6.093  1.00  0.00     0.001 A 
HETATM   11  C8  UNK     1       8.536   6.858   7.145  1.00  0.00     0.003 A 
HETATM   12  C9  UNK     1      12.623   6.858   9.754  1.00  0.00     0.309 A 
HETATM   13  C10 UNK     1      14.688   5.828   8.766  1.00  0.00     0.105 C 
ENDROOT
TORSDOF 0
ENDMDL
MODEL 5
REMARK VINA RESULT:      -6.6     12.870     14.283
REMARK  0 active torsions:
REMARK  status: ('A' for Active; 'I' for Inactive)
ROOT
HETATM    1  O1  UNK     1      19.368   1.067  15.441  1.00  0.00    -0.274 OA
HETATM    2  O2  UNK     1      19.406  -0.536  13.815  1.00  0.00    -0.258 OA
HETATM    3  N1  UNK     1      18.722  -3.749  15.304  1.00  0.00    -0.191 NA
HETATM    4  C1  UNK     1      18.914   0.440  17.743  1.00  0.00    -0.001 A 
HETATM    5  C2  UNK     1      19.201   1.415  16.794  1.00  0.00     0.089 A 
HETATM    6  C3  UNK     1      18.791  -0.942  17.311  1.00  0.00     0.043 A 
HETATM    7  C4  UNK     1      18.755   0.823  19.077  1.00  0.00     0.014 A 
HETATM    8  C5  UNK     1      19.334   2.759  17.140  1.00  0.00     0.038 A 
HETATM    9  C6  UNK     1      18.949  -1.277  16.024  1.00  0.00     0.120 A 
HETATM   10  C7  UNK     1      18.885   2.167  19.439  1.00  0.00     0.001 A 
HETATM   11  C8  UNK     1      19.173   3.133  18.472  1.00  0.00     0.003 A 
HETATM   12  C9  UNK     1      19.256  -0.249  14.998  1.00  0.00     0.309 A 
HETATM   13  C10 UNK     1      18.824  -2.640  15.628  1.00  0.00     0.105 C 
ENDROOT
TORSDOF 0
ENDMDL
MODEL 6
REMARK VINA RESULT:      -6.6      6.079      6.922
REMARK  0 active torsions:
REMARK  status: ('A' for Active; 'I' for Inactive)
ROOT
HETATM    1  O1  UNK     1      18.207   7.061  33.914  1.00  0.00    -0.274 OA
HETATM    2  O2  UNK     1      16.088   7.510  34.634  1.00  0.00    -0.258 OA
HETATM    3  N1  UNK     1      13.776   6.990  31.914  1.00  0.00    -0.191 NA
HETATM    4  C1  UNK     1      18.576   6.357  31.618  1.00  0.00    -0.001 A 
HETATM    5  C2  UNK     1      19.075   6.664  32.879  1.00  0.00     0.089 A 
HETATM    6  C3  UNK     1      17.144   6.455  31.389  1.00  0.00     0.043 A 
HETATM    7  C4  UNK     1      19.469   5.968  30.616  1.00  0.00     0.014 A 
HETATM    8  C5  UNK     1      20.437   6.593  33.167  1.00  0.00     0.038 A 
HETATM    9  C6  UNK     1      16.315   6.831  32.371  1.00  0.00     0.120 A 
HETATM   10  C7  UNK     1      20.838   5.892  30.890  1.00  0.00     0.001 A 
HETATM   11  C8  UNK     1      21.320   6.203  32.163  1.00  0.00     0.003 A 
HETATM   12  C9  UNK     1      16.831   7.162  33.722  1.00  0.00     0.309 A 
HETATM   13  C10 UNK     1      14.915   6.919  32.118  1.00  0.00     0.105 C 
ENDROOT
TORSDOF 0
ENDMDL
MODEL 7
REMARK VINA RESULT:      -6.5      3.033      5.869
REMARK  0 active torsions:
REMARK  status: ('A' for Active; 'I' for Inactive)
ROOT
HETATM    1  O1  UNK     1      18.199   2.981  32.845  1.00  0.00    -0.274 OA
HETATM    2  O2  UNK     1      18.399   0.816  32.146  1.00  0.00    -0.258 OA
HETATM    3  N1  UNK     1      19.199   0.775  28.629  1.00  0.00    -0.191 NA
HETATM    4  C1  UNK     1      18.524   4.794  31.262  1.00  0.00    -0.001 A 
HETATM    5  C2  UNK     1      18.240   4.357  32.550  1.00  0.00     0.089 A 
HETATM    6  C3  UNK     1      18.778   3.805  30.227  1.00  0.00     0.043 A 
HETATM    7  C4  UNK     1      18.555   6.167  31.007  1.00  0.00     0.014 A 
HETATM    8  C5  UNK     1      17.985   5.250  33.589  1.00  0.00     0.038 A 
HETATM    9  C6  UNK     1      18.742   2.495  30.503  1.00  0.00     0.120 A 
HETATM   10  C7  UNK     1      18.302   7.075  32.039  1.00  0.00     0.001 A 
HETATM   11  C8  UNK     1      18.018   6.618  33.327  1.00  0.00     0.003 A 
HETATM   12  C9  UNK     1      18.439   2.012  31.873  1.00  0.00     0.309 A 
HETATM   13  C10 UNK     1      18.993   1.548  29.470  1.00  0.00     0.105 C 
ENDROOT
TORSDOF 0
ENDMDL
MODEL 8
REMARK VINA RESULT:      -6.5      5.808      7.001
REMARK  0 active torsions:
REMARK  status: ('A' for Active; 'I' for Inactive)
ROOT
HETATM    1  O1  UNK     1      16.919   7.387  30.988  1.00  0.00    -0.274 OA
HETATM    2  O2  UNK     1      15.135   8.538  31.826  1.00  0.00    -0.258 OA
HETATM    3  N1  UNK     1      15.844   9.511  35.226  1.00  0.00    -0.191 NA
HETATM    4  C1  UNK     1      18.873   7.010  32.380  1.00  0.00    -0.001 A 
HETATM    5  C2  UNK     1      18.210   6.854  31.168  1.00  0.00     0.089 A 
HETATM    6  C3  UNK     1      18.210   7.730  33.454  1.00  0.00     0.043 A 
HETATM    7  C4  UNK     1      20.152   6.467  32.522  1.00  0.00     0.014 A 
HETATM    8  C5  UNK     1      18.786   6.174  30.097  1.00  0.00     0.038 A 
HETATM    9  C6  UNK     1      16.983   8.239  33.286  1.00  0.00     0.120 A 
HETATM   10  C7  UNK     1      20.744   5.782  31.457  1.00  0.00     0.001 A 
HETATM   11  C8  UNK     1      20.063   5.637  30.247  1.00  0.00     0.003 A 
HETATM   12  C9  UNK     1      16.260   8.081  31.999  1.00  0.00     0.309 A 
HETATM   13  C10 UNK     1      16.355   8.939  34.356  1.00  0.00     0.105 C 
ENDROOT
TORSDOF 0
ENDMDL
MODEL 9
REMARK VINA RESULT:      -6.4      6.645      8.666
REMARK  0 active torsions:
REMARK  status: ('A' for Active; 'I' for Inactive)
ROOT
HETATM    1  O1  UNK     1      18.431   6.622  33.208  1.00  0.00    -0.274 OA
HETATM    2  O2  UNK     1      16.919   5.161  32.319  1.00  0.00    -0.258 OA
HETATM    3  N1  UNK     1      13.853   6.919  31.599  1.00  0.00    -0.191 NA
HETATM    4  C1  UNK     1      17.818   8.952  33.518  1.00  0.00    -0.001 A 
HETATM    5  C2  UNK     1      18.752   7.927  33.626  1.00  0.00     0.089 A 
HETATM    6  C3  UNK     1      16.507   8.649  32.968  1.00  0.00     0.043 A 
HETATM    7  C4  UNK     1      18.172  10.234  33.943  1.00  0.00     0.014 A 
HETATM    8  C5  UNK     1      20.026   8.147  34.145  1.00  0.00     0.038 A 
HETATM    9  C6  UNK     1      16.198   7.409  32.569  1.00  0.00     0.120 A 
HETATM   10  C7  UNK     1      19.447  10.470  34.466  1.00  0.00     0.001 A 
HETATM   11  C8  UNK     1      20.372   9.429  34.566  1.00  0.00     0.003 A 
HETATM   12  C9  UNK     1      17.183   6.303  32.677  1.00  0.00     0.309 A 
HETATM   13  C10 UNK     1      14.905   7.139  32.035  1.00  0.00     0.105 C 
ENDROOT
TORSDOF 0
ENDMDL
MODEL 10
REMARK VINA RESULT:      -6.3      3.464      4.641
REMARK  0 active torsions:
REMARK  status: ('A' for Active; 'I' for Inactive)
ROOT
HETATM    1  O1  UNK     1      20.664  -2.392  32.084  1.00  0.00    -0.274 OA
HETATM    2  O2  UNK     1      20.477  -3.194  34.214  1.00  0.00    -0.258 OA
HETATM    3  N1  UNK     1      18.242  -1.072  36.087  1.00  0.00    -0.191 NA
HETATM    4  C1  UNK     1      19.440  -0.397  31.435  1.00  0.00    -0.001 A 
HETATM    5  C2  UNK     1      20.313  -1.432  31.117  1.00  0.00     0.089 A 
HETATM    6  C3  UNK     1      18.898  -0.327  32.782  1.00  0.00     0.043 A 
HETATM    7  C4  UNK     1      19.115   0.538  30.450  1.00  0.00     0.014 A 
HETATM    8  C5  UNK     1      20.869  -1.558  29.845  1.00  0.00     0.038 A 
HETATM    9  C6  UNK     1      19.229  -1.240  33.705  1.00  0.00     0.120 A 
HETATM   10  C7  UNK     1      19.665   0.424  29.169  1.00  0.00     0.001 A 
HETATM   11  C8  UNK     1      20.540  -0.621  28.868  1.00  0.00     0.003 A 
HETATM   12  C9  UNK     1      20.160  -2.350  33.382  1.00  0.00     0.309 A 
HETATM   13  C10 UNK     1      18.685  -1.147  35.018  1.00  0.00     0.105 C 
ENDROOT
TORSDOF 0
ENDMDL
