MODEL 1
REMARK VINA RESULT:      -8.5      0.000      0.000
REMARK  2 active torsions:
REMARK  status: ('A' for Active; 'I' for Inactive)
REMARK    1  A    between atoms: C4_8  and  N1_3 
REMARK    2  A    between atoms: C10_14  and  N2_4 
ROOT
HETATM    1  O1  UNK     1      17.701   7.846  31.683  1.00  0.00    -0.275 OA
HETATM    2  O2  UNK     1      16.812   9.268  33.243  1.00  0.00    -0.260 OA
HETATM    3  C1  UNK     1      17.935   5.486  32.230  1.00  0.00     0.000 A 
HETATM    4  C2  UNK     1      18.091   6.537  31.331  1.00  0.00     0.089 A 
HETATM    5  C3  UNK     1      18.332   4.203  31.845  1.00  0.00     0.047 A 
HETATM    6  C4  UNK     1      18.876   3.993  30.575  1.00  0.00     0.080 A 
HETATM    7  C5  UNK     1      18.630   6.342  30.061  1.00  0.00     0.040 A 
HETATM    8  C6  UNK     1      17.366   5.761  33.538  1.00  0.00     0.020 A 
HETATM    9  C7  UNK     1      19.024   5.059  29.684  1.00  0.00     0.036 A 
HETATM   10  C8  UNK     1      16.998   7.003  33.864  1.00  0.00     0.083 A 
HETATM   11  C9  UNK     1      17.152   8.132  32.928  1.00  0.00     0.288 A 
ENDROOT
BRANCH   6  12
HETATM   12  N1  UNK     1      19.274   2.707  30.192  1.00  0.00    -0.150 NA
HETATM   13  N2  UNK     1      19.044   1.855  31.084  1.00  0.00    -0.150 NA
BRANCH  13  14
HETATM   14  C10 UNK     1      19.462   0.582  30.659  1.00  0.00     0.079 A 
HETATM   15  C11 UNK     1      19.839   0.386  29.333  1.00  0.00     0.033 A 
HETATM   16  C13 UNK     1      20.254  -0.877  28.911  1.00  0.00     0.002 A 
HETATM   17  C15 UNK     1      20.289  -1.938  29.816  1.00  0.00     0.000 A 
HETATM   18  C14 UNK     1      19.909  -1.736  31.142  1.00  0.00     0.002 A 
HETATM   19  C12 UNK     1      19.494  -0.473  31.564  1.00  0.00     0.033 A 
ENDBRANCH  13  14
ENDBRANCH   6  12
TORSDOF 2
ENDMDL
MODEL 2
REMARK VINA RESULT:      -8.3     15.243     18.189
REMARK  2 active torsions:
REMARK  status: ('A' for Active; 'I' for Inactive)
REMARK    1  A    between atoms: C4_8  and  N1_3 
REMARK    2  A    between atoms: C10_14  and  N2_4 
ROOT
HETATM    1  O1  UNK     1      18.675  -4.155  12.105  1.00  0.00    -0.275 OA
HETATM    2  O2  UNK     1      19.157  -4.301   9.871  1.00  0.00    -0.260 OA
HETATM    3  C1  UNK     1      19.094  -2.060  13.271  1.00  0.00     0.000 A 
HETATM    4  C2  UNK     1      18.653  -3.381  13.283  1.00  0.00     0.089 A 
HETATM    5  C3  UNK     1      19.056  -1.324  14.458  1.00  0.00     0.047 A 
HETATM    6  C4  UNK     1      18.581  -1.917  15.632  1.00  0.00     0.080 A 
HETATM    7  C5  UNK     1      18.176  -3.983  14.446  1.00  0.00     0.040 A 
HETATM    8  C6  UNK     1      19.579  -1.494  12.024  1.00  0.00     0.020 A 
HETATM    9  C7  UNK     1      18.142  -3.243  15.625  1.00  0.00     0.036 A 
HETATM   10  C8  UNK     1      19.596  -2.234  10.912  1.00  0.00     0.083 A 
HETATM   11  C9  UNK     1      19.133  -3.634  10.900  1.00  0.00     0.288 A 
ENDROOT
BRANCH   6  12
HETATM   12  N1  UNK     1      18.546  -1.177  16.820  1.00  0.00    -0.150 NA
HETATM   13  N2  UNK     1      19.039  -0.032  16.680  1.00  0.00    -0.150 NA
BRANCH  13  14
HETATM   14  C10 UNK     1      18.985   0.671  17.895  1.00  0.00     0.079 A 
HETATM   15  C11 UNK     1      19.104   2.058  17.897  1.00  0.00     0.033 A 
HETATM   16  C13 UNK     1      19.050   2.756  19.104  1.00  0.00     0.002 A 
HETATM   17  C15 UNK     1      18.878   2.063  20.302  1.00  0.00     0.000 A 
HETATM   18  C14 UNK     1      18.760   0.674  20.294  1.00  0.00     0.002 A 
HETATM   19  C12 UNK     1      18.814  -0.024  19.088  1.00  0.00     0.033 A 
ENDBRANCH  13  14
ENDBRANCH   6  12
TORSDOF 2
ENDMDL
MODEL 3
REMARK VINA RESULT:      -8.0     14.868     17.929
REMARK  2 active torsions:
REMARK  status: ('A' for Active; 'I' for Inactive)
REMARK    1  A    between atoms: C4_8  and  N1_3 
REMARK    2  A    between atoms: C10_14  and  N2_4 
ROOT
HETATM    1  O1  UNK     1      18.636  -4.845  12.604  1.00  0.00    -0.275 OA
HETATM    2  O2  UNK     1      18.135  -7.039  12.178  1.00  0.00    -0.260 OA
HETATM    3  C1  UNK     1      18.260  -3.958  14.840  1.00  0.00     0.000 A 
HETATM    4  C2  UNK     1      18.680  -3.777  13.524  1.00  0.00     0.089 A 
HETATM    5  C3  UNK     1      18.319  -2.876  15.721  1.00  0.00     0.047 A 
HETATM    6  C4  UNK     1      18.792  -1.638  15.278  1.00  0.00     0.080 A 
HETATM    7  C5  UNK     1      19.155  -2.549  13.068  1.00  0.00     0.040 A 
HETATM    8  C6  UNK     1      17.776  -5.265  15.247  1.00  0.00     0.020 A 
HETATM    9  C7  UNK     1      19.210  -1.475  13.955  1.00  0.00     0.036 A 
HETATM   10  C8  UNK     1      17.738  -6.272  14.370  1.00  0.00     0.083 A 
HETATM   11  C9  UNK     1      18.178  -6.105  12.972  1.00  0.00     0.288 A 
ENDROOT
BRANCH   6  12
HETATM   12  N1  UNK     1      18.849  -0.556  16.164  1.00  0.00    -0.150 NA
HETATM   13  N2  UNK     1      19.065  -0.922  17.345  1.00  0.00    -0.150 NA
BRANCH  13  14
HETATM   14  C10 UNK     1      19.111   0.194  18.198  1.00  0.00     0.079 A 
HETATM   15  C11 UNK     1      19.110   1.477  17.657  1.00  0.00     0.033 A 
HETATM   16  C13 UNK     1      19.155   2.584  18.504  1.00  0.00     0.002 A 
HETATM   17  C15 UNK     1      19.200   2.404  19.886  1.00  0.00     0.000 A 
HETATM   18  C14 UNK     1      19.201   1.116  20.422  1.00  0.00     0.002 A 
HETATM   19  C12 UNK     1      19.156   0.009  19.575  1.00  0.00     0.033 A 
ENDBRANCH  13  14
ENDBRANCH   6  12
TORSDOF 2
ENDMDL
MODEL 4
REMARK VINA RESULT:      -8.0      1.841      3.005
REMARK  2 active torsions:
REMARK  status: ('A' for Active; 'I' for Inactive)
REMARK    1  A    between atoms: C4_8  and  N1_3 
REMARK    2  A    between atoms: C10_14  and  N2_4 
ROOT
HETATM    1  O1  UNK     1      16.991   9.185  34.491  1.00  0.00    -0.275 OA
HETATM    2  O2  UNK     1      15.351  10.408  35.520  1.00  0.00    -0.260 OA
HETATM    3  C1  UNK     1      16.368   7.209  33.212  1.00  0.00     0.000 A 
HETATM    4  C2  UNK     1      17.345   8.077  33.693  1.00  0.00     0.089 A 
HETATM    5  C3  UNK     1      16.758   6.124  32.424  1.00  0.00     0.047 A 
HETATM    6  C4  UNK     1      18.109   5.924  32.130  1.00  0.00     0.080 A 
HETATM    7  C5  UNK     1      18.696   7.891  33.406  1.00  0.00     0.040 A 
HETATM    8  C6  UNK     1      14.978   7.463  33.550  1.00  0.00     0.020 A 
HETATM    9  C7  UNK     1      19.076   6.806  32.619  1.00  0.00     0.036 A 
HETATM   10  C8  UNK     1      14.651   8.515  34.306  1.00  0.00     0.083 A 
HETATM   11  C9  UNK     1      15.668   9.448  34.825  1.00  0.00     0.288 A 
ENDROOT
BRANCH   6  12
HETATM   12  N1  UNK     1      18.496   4.835  31.341  1.00  0.00    -0.150 NA
HETATM   13  N2  UNK     1      17.855   3.794  31.623  1.00  0.00    -0.150 NA
BRANCH  13  14
HETATM   14  C10 UNK     1      18.278   2.728  30.810  1.00  0.00     0.079 A 
HETATM   15  C11 UNK     1      19.059   1.712  31.353  1.00  0.00     0.033 A 
HETATM   16  C13 UNK     1      19.479   0.655  30.546  1.00  0.00     0.002 A 
HETATM   17  C15 UNK     1      19.116   0.619  29.200  1.00  0.00     0.000 A 
HETATM   18  C14 UNK     1      18.333   1.640  28.661  1.00  0.00     0.002 A 
HETATM   19  C12 UNK     1      17.914   2.697  29.468  1.00  0.00     0.033 A 
ENDBRANCH  13  14
ENDBRANCH   6  12
TORSDOF 2
ENDMDL
MODEL 5
REMARK VINA RESULT:      -7.9      3.647      7.831
REMARK  2 active torsions:
REMARK  status: ('A' for Active; 'I' for Inactive)
REMARK    1  A    between atoms: C4_8  and  N1_3 
REMARK    2  A    between atoms: C10_14  and  N2_4 
ROOT
HETATM    1  O1  UNK     1      19.754  -1.133  31.513  1.00  0.00    -0.275 OA
HETATM    2  O2  UNK     1      20.705  -2.791  30.251  1.00  0.00    -0.260 OA
HETATM    3  C1  UNK     1      19.255   1.009  30.471  1.00  0.00     0.000 A 
HETATM    4  C2  UNK     1      19.253   0.182  31.592  1.00  0.00     0.089 A 
HETATM    5  C3  UNK     1      18.749   2.306  30.589  1.00  0.00     0.047 A 
HETATM    6  C4  UNK     1      18.252   2.754  31.815  1.00  0.00     0.080 A 
HETATM    7  C5  UNK     1      18.758   0.614  32.821  1.00  0.00     0.040 A 
HETATM    8  C6  UNK     1      19.786   0.494  29.222  1.00  0.00     0.020 A 
HETATM    9  C7  UNK     1      18.255   1.909  32.929  1.00  0.00     0.036 A 
HETATM   10  C8  UNK     1      20.259  -0.754  29.155  1.00  0.00     0.083 A 
HETATM   11  C9  UNK     1      20.265  -1.648  30.328  1.00  0.00     0.288 A 
ENDROOT
BRANCH   6  12
HETATM   12  N1  UNK     1      17.746   4.054  31.929  1.00  0.00    -0.150 NA
HETATM   13  N2  UNK     1      18.420   4.756  32.721  1.00  0.00    -0.150 NA
BRANCH  13  14
HETATM   14  C10 UNK     1      17.875   6.049  32.806  1.00  0.00     0.079 A 
HETATM   15  C11 UNK     1      16.585   6.287  32.341  1.00  0.00     0.033 A 
HETATM   16  C13 UNK     1      16.044   7.570  32.425  1.00  0.00     0.002 A 
HETATM   17  C15 UNK     1      16.795   8.608  32.975  1.00  0.00     0.000 A 
HETATM   18  C14 UNK     1      18.088   8.364  33.438  1.00  0.00     0.002 A 
HETATM   19  C12 UNK     1      18.629   7.081  33.354  1.00  0.00     0.033 A 
ENDBRANCH  13  14
ENDBRANCH   6  12
TORSDOF 2
ENDMDL
MODEL 6
REMARK VINA RESULT:      -7.8     13.653     15.829
REMARK  2 active torsions:
REMARK  status: ('A' for Active; 'I' for Inactive)
REMARK    1  A    between atoms: C4_8  and  N1_3 
REMARK    2  A    between atoms: C10_14  and  N2_4 
ROOT
HETATM    1  O1  UNK     1      30.444  -6.583  38.549  1.00  0.00    -0.275 OA
HETATM    2  O2  UNK     1      32.239  -5.160  38.561  1.00  0.00    -0.260 OA
HETATM    3  C1  UNK     1      28.197  -5.653  38.652  1.00  0.00     0.000 A 
HETATM    4  C2  UNK     1      29.045  -6.755  38.581  1.00  0.00     0.089 A 
HETATM    5  C3  UNK     1      26.816  -5.865  38.682  1.00  0.00     0.047 A 
HETATM    6  C4  UNK     1      26.308  -7.166  38.640  1.00  0.00     0.080 A 
HETATM    7  C5  UNK     1      28.552  -8.058  38.536  1.00  0.00     0.040 A 
HETATM    8  C6  UNK     1      28.779  -4.323  38.696  1.00  0.00     0.020 A 
HETATM    9  C7  UNK     1      27.174  -8.260  38.566  1.00  0.00     0.036 A 
HETATM   10  C8  UNK     1      30.105  -4.167  38.664  1.00  0.00     0.083 A 
HETATM   11  C9  UNK     1      31.023  -5.319  38.587  1.00  0.00     0.288 A 
ENDROOT
BRANCH   6  12
HETATM   12  N1  UNK     1      24.924  -7.374  38.670  1.00  0.00    -0.150 NA
HETATM   13  N2  UNK     1      24.293  -6.325  38.947  1.00  0.00    -0.150 NA
BRANCH  13  14
HETATM   14  C10 UNK     1      22.912  -6.582  38.969  1.00  0.00     0.079 A 
HETATM   15  C11 UNK     1      22.432  -7.725  39.603  1.00  0.00     0.033 A 
HETATM   16  C13 UNK     1      21.060  -7.979  39.625  1.00  0.00     0.002 A 
HETATM   17  C15 UNK     1      20.176  -7.090  39.014  1.00  0.00     0.000 A 
HETATM   18  C14 UNK     1      20.663  -5.947  38.380  1.00  0.00     0.002 A 
HETATM   19  C12 UNK     1      22.034  -5.692  38.358  1.00  0.00     0.033 A 
ENDBRANCH  13  14
ENDBRANCH   6  12
TORSDOF 2
ENDMDL
MODEL 7
REMARK VINA RESULT:      -7.8      7.363      9.337
REMARK  2 active torsions:
REMARK  status: ('A' for Active; 'I' for Inactive)
REMARK    1  A    between atoms: C4_8  and  N1_3 
REMARK    2  A    between atoms: C10_14  and  N2_4 
ROOT
HETATM    1  O1  UNK     1      18.710  -0.121  33.989  1.00  0.00    -0.275 OA
HETATM    2  O2  UNK     1      17.552   1.800  33.519  1.00  0.00    -0.260 OA
HETATM    3  C1  UNK     1      18.583  -1.061  36.230  1.00  0.00     0.000 A 
HETATM    4  C2  UNK     1      19.068  -1.111  34.926  1.00  0.00     0.089 A 
HETATM    5  C3  UNK     1      18.960  -2.061  37.130  1.00  0.00     0.047 A 
HETATM    6  C4  UNK     1      19.810  -3.089  36.715  1.00  0.00     0.080 A 
HETATM    7  C5  UNK     1      19.915  -2.131  34.498  1.00  0.00     0.040 A 
HETATM    8  C6  UNK     1      17.703   0.031  36.609  1.00  0.00     0.020 A 
HETATM    9  C7  UNK     1      20.287  -3.125  35.402  1.00  0.00     0.036 A 
HETATM   10  C8  UNK     1      17.368   0.966  35.715  1.00  0.00     0.083 A 
HETATM   11  C9  UNK     1      17.868   0.933  34.328  1.00  0.00     0.288 A 
ENDROOT
BRANCH   6  12
HETATM   12  N1  UNK     1      20.186  -4.089  37.619  1.00  0.00    -0.150 NA
HETATM   13  N2  UNK     1      20.968  -4.924  37.103  1.00  0.00    -0.150 NA
BRANCH  13  14
HETATM   14  C10 UNK     1      21.315  -5.909  38.044  1.00  0.00     0.079 A 
HETATM   15  C11 UNK     1      22.605  -5.942  38.566  1.00  0.00     0.033 A 
HETATM   16  C13 UNK     1      22.949  -6.919  39.500  1.00  0.00     0.002 A 
HETATM   17  C15 UNK     1      22.002  -7.859  39.907  1.00  0.00     0.000 A 
HETATM   18  C14 UNK     1      20.711  -7.821  39.380  1.00  0.00     0.002 A 
HETATM   19  C12 UNK     1      20.367  -6.844  38.446  1.00  0.00     0.033 A 
ENDBRANCH  13  14
ENDBRANCH   6  12
TORSDOF 2
ENDMDL
MODEL 8
REMARK VINA RESULT:      -7.7      6.669      9.308
REMARK  2 active torsions:
REMARK  status: ('A' for Active; 'I' for Inactive)
REMARK    1  A    between atoms: C4_8  and  N1_3 
REMARK    2  A    between atoms: C10_14  and  N2_4 
ROOT
HETATM    1  O1  UNK     1      18.678  -0.143  32.949  1.00  0.00    -0.275 OA
HETATM    2  O2  UNK     1      18.690   0.712  30.824  1.00  0.00    -0.260 OA
HETATM    3  C1  UNK     1      20.078  -2.068  33.458  1.00  0.00     0.000 A 
HETATM    4  C2  UNK     1      19.157  -1.105  33.862  1.00  0.00     0.089 A 
HETATM    5  C3  UNK     1      20.530  -3.003  34.392  1.00  0.00     0.047 A 
HETATM    6  C4  UNK     1      20.056  -2.963  35.706  1.00  0.00     0.080 A 
HETATM    7  C5  UNK     1      18.677  -1.052  35.169  1.00  0.00     0.040 A 
HETATM    8  C6  UNK     1      20.536  -2.065  32.079  1.00  0.00     0.020 A 
HETATM    9  C7  UNK     1      19.133  -1.989  36.094  1.00  0.00     0.036 A 
HETATM   10  C8  UNK     1      20.078  -1.150  31.221  1.00  0.00     0.083 A 
HETATM   11  C9  UNK     1      19.103  -0.120  31.625  1.00  0.00     0.288 A 
ENDROOT
BRANCH   6  12
HETATM   12  N1  UNK     1      20.511  -3.902  36.639  1.00  0.00    -0.150 NA
HETATM   13  N2  UNK     1      19.778  -4.921  36.681  1.00  0.00    -0.150 NA
BRANCH  13  14
HETATM   14  C10 UNK     1      20.269  -5.832  37.631  1.00  0.00     0.079 A 
HETATM   15  C11 UNK     1      19.427  -6.813  38.148  1.00  0.00     0.033 A 
HETATM   16  C13 UNK     1      19.915  -7.717  39.091  1.00  0.00     0.002 A 
HETATM   17  C15 UNK     1      21.242  -7.638  39.512  1.00  0.00     0.000 A 
HETATM   18  C14 UNK     1      22.081  -6.653  38.991  1.00  0.00     0.002 A 
HETATM   19  C12 UNK     1      21.593  -5.749  38.048  1.00  0.00     0.033 A 
ENDBRANCH  13  14
ENDBRANCH   6  12
TORSDOF 2
ENDMDL
MODEL 9
REMARK VINA RESULT:      -7.6     12.435     14.471
REMARK  2 active torsions:
REMARK  status: ('A' for Active; 'I' for Inactive)
REMARK    1  A    between atoms: C4_8  and  N1_3 
REMARK    2  A    between atoms: C10_14  and  N2_4 
ROOT
HETATM    1  O1  UNK     1      18.509  -6.729  37.747  1.00  0.00    -0.275 OA
HETATM    2  O2  UNK     1      16.758  -6.473  36.292  1.00  0.00    -0.260 OA
HETATM    3  C1  UNK     1      20.680  -7.406  36.878  1.00  0.00     0.000 A 
HETATM    4  C2  UNK     1      19.866  -7.052  37.952  1.00  0.00     0.089 A 
HETATM    5  C3  UNK     1      22.020  -7.719  37.121  1.00  0.00     0.047 A 
HETATM    6  C4  UNK     1      22.522  -7.674  38.425  1.00  0.00     0.080 A 
HETATM    7  C5  UNK     1      20.354  -7.002  39.256  1.00  0.00     0.040 A 
HETATM    8  C6  UNK     1      20.106  -7.438  35.544  1.00  0.00     0.020 A 
HETATM    9  C7  UNK     1      21.691  -7.316  39.489  1.00  0.00     0.036 A 
HETATM   10  C8  UNK     1      18.819  -7.130  35.358  1.00  0.00     0.083 A 
HETATM   11  C9  UNK     1      17.938  -6.751  36.479  1.00  0.00     0.288 A 
ENDROOT
BRANCH   6  12
HETATM   12  N1  UNK     1      23.864  -7.989  38.664  1.00  0.00    -0.150 NA
HETATM   13  N2  UNK     1      24.451  -8.385  37.628  1.00  0.00    -0.150 NA
BRANCH  13  14
HETATM   14  C10 UNK     1      25.791  -8.691  37.916  1.00  0.00     0.079 A 
HETATM   15  C11 UNK     1      26.683  -8.936  36.876  1.00  0.00     0.033 A 
HETATM   16  C13 UNK     1      28.014  -9.241  37.162  1.00  0.00     0.002 A 
HETATM   17  C15 UNK     1      28.446  -9.299  38.487  1.00  0.00     0.000 A 
HETATM   18  C14 UNK     1      27.548  -9.053  39.525  1.00  0.00     0.002 A 
HETATM   19  C12 UNK     1      26.217  -8.749  39.239  1.00  0.00     0.033 A 
ENDBRANCH  13  14
ENDBRANCH   6  12
TORSDOF 2
ENDMDL
MODEL 10
REMARK VINA RESULT:      -7.5      3.593      7.635
REMARK  2 active torsions:
REMARK  status: ('A' for Active; 'I' for Inactive)
REMARK    1  A    between atoms: C4_8  and  N1_3 
REMARK    2  A    between atoms: C10_14  and  N2_4 
ROOT
HETATM    1  O1  UNK     1      19.922  -0.548  29.542  1.00  0.00    -0.275 OA
HETATM    2  O2  UNK     1      20.724  -2.681  29.777  1.00  0.00    -0.260 OA
HETATM    3  C1  UNK     1      19.092   0.628  31.505  1.00  0.00     0.000 A 
HETATM    4  C2  UNK     1      19.357   0.598  30.138  1.00  0.00     0.089 A 
HETATM    5  C3  UNK     1      18.532   1.781  32.058  1.00  0.00     0.047 A 
HETATM    6  C4  UNK     1      18.247   2.880  31.243  1.00  0.00     0.080 A 
HETATM    7  C5  UNK     1      19.079   1.686  29.313  1.00  0.00     0.040 A 
HETATM    8  C6  UNK     1      19.406  -0.543  32.305  1.00  0.00     0.020 A 
HETATM    9  C7  UNK     1      18.520   2.833  29.874  1.00  0.00     0.036 A 
HETATM   10  C8  UNK     1      19.943  -1.625  31.733  1.00  0.00     0.083 A 
HETATM   11  C9  UNK     1      20.233  -1.679  30.288  1.00  0.00     0.288 A 
ENDROOT
BRANCH   6  12
HETATM   12  N1  UNK     1      17.685   4.034  31.802  1.00  0.00    -0.150 NA
HETATM   13  N2  UNK     1      18.511   4.675  32.495  1.00  0.00    -0.150 NA
BRANCH  13  14
HETATM   14  C10 UNK     1      17.904   5.821  33.037  1.00  0.00     0.079 A 
HETATM   15  C11 UNK     1      18.550   6.535  34.043  1.00  0.00     0.033 A 
HETATM   16  C13 UNK     1      17.947   7.672  34.581  1.00  0.00     0.002 A 
HETATM   17  C15 UNK     1      16.702   8.089  34.110  1.00  0.00     0.000 A 
HETATM   18  C14 UNK     1      16.060   7.370  33.103  1.00  0.00     0.002 A 
HETATM   19  C12 UNK     1      16.663   6.233  32.565  1.00  0.00     0.033 A 
ENDBRANCH  13  14
ENDBRANCH   6  12
TORSDOF 2
ENDMDL
