MODEL 1
REMARK VINA RESULT:      -9.3      0.000      0.000
REMARK  6 active torsions:
REMARK  status: ('A' for Active; 'I' for Inactive)
REMARK    1  A    between atoms: C14_19  and  O4_4 
REMARK    2  A    between atoms: C12_17  and  N1_5 
REMARK       I    between atoms: C9_14  and  N1_5 
REMARK    3  A    between atoms: C1_6  and  C2_7 
REMARK    4  A    between atoms: C2_7  and  C5_10 
REMARK    5  A    between atoms: C5_10  and  C9_14 
REMARK    6  A    between atoms: C12_17  and  C15_20 
ROOT
HETATM    1  O1  UNK     1      16.828   8.062  32.999  1.00  0.00    -0.274 OA
HETATM    2  O2  UNK     1      15.891   6.139  32.236  1.00  0.00    -0.259 OA
HETATM    3  C1  UNK     1      18.182   6.015  32.879  1.00  0.00     0.025 A 
HETATM    4  C3  UNK     1      19.271   6.672  33.328  1.00  0.00    -0.037 A 
HETATM    5  C4  UNK     1      19.163   8.103  33.679  1.00  0.00     0.005 A 
HETATM    6  C6  UNK     1      17.943   8.749  33.500  1.00  0.00     0.092 A 
HETATM    7  C7  UNK     1      16.881   6.716  32.678  1.00  0.00     0.295 A 
HETATM    8  C8  UNK     1      20.630   6.033  33.485  1.00  0.00     0.050 C 
HETATM    9  C10 UNK     1      20.220   8.867  34.198  1.00  0.00     0.017 A 
HETATM   10  C11 UNK     1      17.755  10.099  33.806  1.00  0.00     0.074 A 
HETATM   11  C13 UNK     1      20.050  10.222  34.511  1.00  0.00     0.037 A 
HETATM   12  C14 UNK     1      18.817  10.837  34.313  1.00  0.00     0.068 A 
ENDROOT
BRANCH   3  13
HETATM   13  C2  UNK     1      18.138   4.544  32.546  1.00  0.00     0.055 C 
BRANCH  13  14
HETATM   14  C5  UNK     1      18.801   4.231  31.213  1.00  0.00     0.107 C 
BRANCH  14  15
HETATM   15  C9  UNK     1      18.260   2.983  30.533  1.00  0.00     0.218 C 
HETATM   16  O3  UNK     1      17.099   2.600  30.649  1.00  0.00    -0.274 OA
HETATM   17  N1  UNK     1      19.242   2.340  29.793  1.00  0.00    -0.357 N 
HETATM   18  H12 UNK     1      20.182   2.723  29.773  1.00  0.00     0.162 HD
BRANCH  17  19
HETATM   19  C12 UNK     1      18.991   1.120  29.061  1.00  0.00     0.161 C 
BRANCH  19  20
HETATM   20  C15 UNK     1      19.560  -0.043  29.815  1.00  0.00    -0.041 A 
HETATM   21  C16 UNK     1      20.181  -1.078  29.123  1.00  0.00     0.009 A 
HETATM   22  C18 UNK     1      20.710  -2.161  29.825  1.00  0.00     0.001 A 
HETATM   23  C20 UNK     1      20.615  -2.204  31.216  1.00  0.00     0.000 A 
HETATM   24  C19 UNK     1      19.991  -1.164  31.905  1.00  0.00     0.001 A 
HETATM   25  C17 UNK     1      19.462  -0.081  31.202  1.00  0.00     0.009 A 
ENDBRANCH  19  20
ENDBRANCH  17  19
ENDBRANCH  14  15
ENDBRANCH  13  14
ENDBRANCH   3  13
BRANCH  12  26
HETATM   26  O4  UNK     1      18.654  12.153  34.619  1.00  0.00    -0.361 OA
HETATM   27  H19 UNK     1      18.399  12.229  35.555  1.00  0.00     0.217 HD
ENDBRANCH  12  26
TORSDOF 6
ENDMDL
MODEL 2
REMARK VINA RESULT:      -9.1      2.130      2.769
REMARK  6 active torsions:
REMARK  status: ('A' for Active; 'I' for Inactive)
REMARK    1  A    between atoms: C14_19  and  O4_4 
REMARK    2  A    between atoms: C12_17  and  N1_5 
REMARK       I    between atoms: C9_14  and  N1_5 
REMARK    3  A    between atoms: C1_6  and  C2_7 
REMARK    4  A    between atoms: C2_7  and  C5_10 
REMARK    5  A    between atoms: C5_10  and  C9_14 
REMARK    6  A    between atoms: C12_17  and  C15_20 
ROOT
HETATM    1  O1  UNK     1      15.987   8.472  31.343  1.00  0.00    -0.274 OA
HETATM    2  O2  UNK     1      17.344   7.183  30.057  1.00  0.00    -0.259 OA
HETATM    3  C1  UNK     1      17.893   7.311  32.372  1.00  0.00     0.025 A 
HETATM    4  C3  UNK     1      17.606   7.843  33.578  1.00  0.00    -0.037 A 
HETATM    5  C4  UNK     1      16.424   8.718  33.723  1.00  0.00     0.005 A 
HETATM    6  C6  UNK     1      15.656   9.003  32.598  1.00  0.00     0.092 A 
HETATM    7  C7  UNK     1      17.073   7.631  31.168  1.00  0.00     0.295 A 
HETATM    8  C8  UNK     1      18.438   7.612  34.816  1.00  0.00     0.050 C 
HETATM    9  C10 UNK     1      16.009   9.283  34.940  1.00  0.00     0.017 A 
HETATM   10  C11 UNK     1      14.524   9.820  32.647  1.00  0.00     0.074 A 
HETATM   11  C13 UNK     1      14.877  10.104  35.008  1.00  0.00     0.037 A 
HETATM   12  C14 UNK     1      14.136  10.374  33.861  1.00  0.00     0.068 A 
ENDROOT
BRANCH   3  13
HETATM   13  C2  UNK     1      19.028   6.356  32.099  1.00  0.00     0.055 C 
BRANCH  13  14
HETATM   14  C5  UNK     1      18.570   4.905  32.073  1.00  0.00     0.107 C 
BRANCH  14  15
HETATM   15  C9  UNK     1      18.720   4.236  30.715  1.00  0.00     0.218 C 
HETATM   16  O3  UNK     1      19.357   4.726  29.787  1.00  0.00    -0.274 OA
HETATM   17  N1  UNK     1      18.040   3.027  30.665  1.00  0.00    -0.357 N 
HETATM   18  H12 UNK     1      17.523   2.712  31.481  1.00  0.00     0.162 HD
BRANCH  17  19
HETATM   19  C12 UNK     1      18.011   2.198  29.482  1.00  0.00     0.161 C 
BRANCH  19  20
HETATM   20  C15 UNK     1      18.928   1.029  29.665  1.00  0.00    -0.041 A 
HETATM   21  C16 UNK     1      19.304   0.266  28.564  1.00  0.00     0.009 A 
HETATM   22  C18 UNK     1      20.158  -0.823  28.735  1.00  0.00     0.001 A 
HETATM   23  C20 UNK     1      20.631  -1.146  30.007  1.00  0.00     0.000 A 
HETATM   24  C19 UNK     1      20.251  -0.378  31.108  1.00  0.00     0.001 A 
HETATM   25  C17 UNK     1      19.397   0.712  30.937  1.00  0.00     0.009 A 
ENDBRANCH  19  20
ENDBRANCH  17  19
ENDBRANCH  14  15
ENDBRANCH  13  14
ENDBRANCH   3  13
BRANCH  12  26
HETATM   26  O4  UNK     1      13.036  11.171  33.931  1.00  0.00    -0.361 OA
HETATM   27  H19 UNK     1      12.348  10.715  34.446  1.00  0.00     0.217 HD
ENDBRANCH  12  26
TORSDOF 6
ENDMDL
MODEL 3
REMARK VINA RESULT:      -9.1      3.508      8.034
REMARK  6 active torsions:
REMARK  status: ('A' for Active; 'I' for Inactive)
REMARK    1  A    between atoms: C14_19  and  O4_4 
REMARK    2  A    between atoms: C12_17  and  N1_5 
REMARK       I    between atoms: C9_14  and  N1_5 
REMARK    3  A    between atoms: C1_6  and  C2_7 
REMARK    4  A    between atoms: C2_7  and  C5_10 
REMARK    5  A    between atoms: C5_10  and  C9_14 
REMARK    6  A    between atoms: C12_17  and  C15_20 
ROOT
HETATM    1  O1  UNK     1      19.080  -1.774  33.501  1.00  0.00    -0.274 OA
HETATM    2  O2  UNK     1      19.856  -1.862  31.370  1.00  0.00    -0.259 OA
HETATM    3  C1  UNK     1      19.137   0.273  32.143  1.00  0.00     0.025 A 
HETATM    4  C3  UNK     1      18.592   0.992  33.147  1.00  0.00    -0.037 A 
HETATM    5  C4  UNK     1      18.293   0.330  34.434  1.00  0.00     0.005 A 
HETATM    6  C6  UNK     1      18.546  -1.032  34.565  1.00  0.00     0.092 A 
HETATM    7  C7  UNK     1      19.394  -1.189  32.286  1.00  0.00     0.295 A 
HETATM    8  C8  UNK     1      18.245   2.456  33.036  1.00  0.00     0.050 C 
HETATM    9  C10 UNK     1      17.771   0.994  35.555  1.00  0.00     0.017 A 
HETATM   10  C11 UNK     1      18.292  -1.734  35.746  1.00  0.00     0.074 A 
HETATM   11  C13 UNK     1      17.510   0.307  36.747  1.00  0.00     0.037 A 
HETATM   12  C14 UNK     1      17.770  -1.057  36.841  1.00  0.00     0.068 A 
ENDROOT
BRANCH   3  13
HETATM   13  C2  UNK     1      19.549   0.835  30.805  1.00  0.00     0.055 C 
BRANCH  13  14
HETATM   14  C5  UNK     1      18.357   1.109  29.900  1.00  0.00     0.107 C 
BRANCH  14  15
HETATM   15  C9  UNK     1      18.364   2.495  29.273  1.00  0.00     0.218 C 
HETATM   16  O3  UNK     1      17.910   2.734  28.157  1.00  0.00    -0.274 OA
HETATM   17  N1  UNK     1      18.954   3.430  30.111  1.00  0.00    -0.357 N 
HETATM   18  H12 UNK     1      19.320   3.133  31.011  1.00  0.00     0.162 HD
BRANCH  17  19
HETATM   19  C12 UNK     1      19.101   4.820  29.746  1.00  0.00     0.161 C 
BRANCH  19  20
HETATM   20  C15 UNK     1      19.315   5.643  30.979  1.00  0.00    -0.041 A 
HETATM   21  C16 UNK     1      18.247   6.336  31.541  1.00  0.00     0.009 A 
HETATM   22  C18 UNK     1      18.446   7.102  32.689  1.00  0.00     0.001 A 
HETATM   23  C20 UNK     1      19.713   7.173  33.270  1.00  0.00     0.000 A 
HETATM   24  C19 UNK     1      20.780   6.476  32.702  1.00  0.00     0.001 A 
HETATM   25  C17 UNK     1      20.580   5.709  31.554  1.00  0.00     0.009 A 
ENDBRANCH  19  20
ENDBRANCH  17  19
ENDBRANCH  14  15
ENDBRANCH  13  14
ENDBRANCH   3  13
BRANCH  12  26
HETATM   26  O4  UNK     1      17.517  -1.722  38.001  1.00  0.00    -0.361 OA
HETATM   27  H19 UNK     1      16.832  -2.393  37.837  1.00  0.00     0.217 HD
ENDBRANCH  12  26
TORSDOF 6
ENDMDL
MODEL 4
REMARK VINA RESULT:      -9.0      2.643      9.378
REMARK  6 active torsions:
REMARK  status: ('A' for Active; 'I' for Inactive)
REMARK    1  A    between atoms: C14_19  and  O4_4 
REMARK    2  A    between atoms: C12_17  and  N1_5 
REMARK       I    between atoms: C9_14  and  N1_5 
REMARK    3  A    between atoms: C1_6  and  C2_7 
REMARK    4  A    between atoms: C2_7  and  C5_10 
REMARK    5  A    between atoms: C5_10  and  C9_14 
REMARK    6  A    between atoms: C12_17  and  C15_20 
ROOT
HETATM    1  O1  UNK     1      18.897   0.637  32.713  1.00  0.00    -0.274 OA
HETATM    2  O2  UNK     1      18.043   2.285  34.020  1.00  0.00    -0.259 OA
HETATM    3  C1  UNK     1      18.301   2.799  31.708  1.00  0.00     0.025 A 
HETATM    4  C3  UNK     1      18.725   2.386  30.495  1.00  0.00    -0.037 A 
HETATM    5  C4  UNK     1      19.238   1.010  30.334  1.00  0.00     0.005 A 
HETATM    6  C6  UNK     1      19.308   0.183  31.451  1.00  0.00     0.092 A 
HETATM    7  C7  UNK     1      18.391   1.911  32.903  1.00  0.00     0.295 A 
HETATM    8  C8  UNK     1      18.723   3.261  29.265  1.00  0.00     0.050 C 
HETATM    9  C10 UNK     1      19.658   0.467  29.109  1.00  0.00     0.017 A 
HETATM   10  C11 UNK     1      19.781  -1.130  31.387  1.00  0.00     0.074 A 
HETATM   11  C13 UNK     1      20.135  -0.848  29.026  1.00  0.00     0.037 A 
HETATM   12  C14 UNK     1      20.197  -1.645  30.165  1.00  0.00     0.068 A 
ENDROOT
BRANCH   3  13
HETATM   13  C2  UNK     1      17.698   4.150  31.997  1.00  0.00     0.055 C 
BRANCH  13  14
HETATM   14  C5  UNK     1      18.755   5.217  32.236  1.00  0.00     0.107 C 
BRANCH  14  15
HETATM   15  C9  UNK     1      18.527   6.041  33.494  1.00  0.00     0.218 C 
HETATM   16  O3  UNK     1      19.434   6.407  34.236  1.00  0.00    -0.274 OA
HETATM   17  N1  UNK     1      17.179   6.303  33.694  1.00  0.00    -0.357 N 
HETATM   18  H12 UNK     1      16.497   5.940  33.034  1.00  0.00     0.162 HD
BRANCH  17  19
HETATM   19  C12 UNK     1      16.691   7.055  34.827  1.00  0.00     0.161 C 
BRANCH  19  20
HETATM   20  C15 UNK     1      16.046   8.320  34.350  1.00  0.00    -0.041 A 
HETATM   21  C16 UNK     1      14.727   8.299  33.907  1.00  0.00     0.009 A 
HETATM   22  C18 UNK     1      14.127   9.476  33.463  1.00  0.00     0.001 A 
HETATM   23  C20 UNK     1      14.848  10.670  33.463  1.00  0.00     0.000 A 
HETATM   24  C19 UNK     1      16.171  10.686  33.909  1.00  0.00     0.001 A 
HETATM   25  C17 UNK     1      16.770   9.508  34.353  1.00  0.00     0.009 A 
ENDBRANCH  19  20
ENDBRANCH  17  19
ENDBRANCH  14  15
ENDBRANCH  13  14
ENDBRANCH   3  13
BRANCH  12  26
HETATM   26  O4  UNK     1      20.659  -2.921  30.081  1.00  0.00    -0.361 OA
HETATM   27  H19 UNK     1      20.391  -3.298  29.225  1.00  0.00     0.217 HD
ENDBRANCH  12  26
TORSDOF 6
ENDMDL
MODEL 5
REMARK VINA RESULT:      -9.0      7.557     12.967
REMARK  6 active torsions:
REMARK  status: ('A' for Active; 'I' for Inactive)
REMARK    1  A    between atoms: C14_19  and  O4_4 
REMARK    2  A    between atoms: C12_17  and  N1_5 
REMARK       I    between atoms: C9_14  and  N1_5 
REMARK    3  A    between atoms: C1_6  and  C2_7 
REMARK    4  A    between atoms: C2_7  and  C5_10 
REMARK    5  A    between atoms: C5_10  and  C9_14 
REMARK    6  A    between atoms: C12_17  and  C15_20 
ROOT
HETATM    1  O1  UNK     1      21.877  -6.876  37.931  1.00  0.00    -0.274 OA
HETATM    2  O2  UNK     1      22.546  -4.707  37.965  1.00  0.00    -0.259 OA
HETATM    3  C1  UNK     1      20.288  -5.104  37.316  1.00  0.00     0.025 A 
HETATM    4  C3  UNK     1      19.326  -6.014  37.060  1.00  0.00    -0.037 A 
HETATM    5  C4  UNK     1      19.606  -7.449  37.274  1.00  0.00     0.005 A 
HETATM    6  C6  UNK     1      20.875  -7.830  37.701  1.00  0.00     0.092 A 
HETATM    7  C7  UNK     1      21.650  -5.521  37.762  1.00  0.00     0.295 A 
HETATM    8  C8  UNK     1      17.954  -5.658  36.541  1.00  0.00     0.050 C 
HETATM    9  C10 UNK     1      18.663  -8.471  37.084  1.00  0.00     0.017 A 
HETATM   10  C11 UNK     1      21.223  -9.164  37.928  1.00  0.00     0.074 A 
HETATM   11  C13 UNK     1      18.994  -9.813  37.306  1.00  0.00     0.037 A 
HETATM   12  C14 UNK     1      20.275 -10.159  37.726  1.00  0.00     0.068 A 
ENDROOT
BRANCH   3  13
HETATM   13  C2  UNK     1      20.116  -3.610  37.202  1.00  0.00     0.055 C 
BRANCH  13  14
HETATM   14  C5  UNK     1      20.516  -3.085  35.831  1.00  0.00     0.107 C 
BRANCH  14  15
HETATM   15  C9  UNK     1      19.558  -2.047  35.265  1.00  0.00     0.218 C 
HETATM   16  O3  UNK     1      18.790  -1.387  35.960  1.00  0.00    -0.274 OA
HETATM   17  N1  UNK     1      19.658  -1.961  33.884  1.00  0.00    -0.357 N 
HETATM   18  H12 UNK     1      20.311  -2.564  33.393  1.00  0.00     0.162 HD
BRANCH  17  19
HETATM   19  C12 UNK     1      18.845  -1.061  33.099  1.00  0.00     0.161 C 
BRANCH  19  20
HETATM   20  C15 UNK     1      19.424  -0.932  31.724  1.00  0.00    -0.041 A 
HETATM   21  C16 UNK     1      19.408   0.302  31.080  1.00  0.00     0.009 A 
HETATM   22  C18 UNK     1      19.947   0.422  29.799  1.00  0.00     0.001 A 
HETATM   23  C20 UNK     1      20.500  -0.693  29.168  1.00  0.00     0.000 A 
HETATM   24  C19 UNK     1      20.514  -1.927  29.818  1.00  0.00     0.001 A 
HETATM   25  C17 UNK     1      19.975  -2.047  31.099  1.00  0.00     0.009 A 
ENDBRANCH  19  20
ENDBRANCH  17  19
ENDBRANCH  14  15
ENDBRANCH  13  14
ENDBRANCH   3  13
BRANCH  12  26
HETATM   26  O4  UNK     1      20.594 -11.463  37.943  1.00  0.00    -0.361 OA
HETATM   27  H19 UNK     1      21.348 -11.506  38.555  1.00  0.00     0.217 HD
ENDBRANCH  12  26
TORSDOF 6
ENDMDL
MODEL 6
REMARK VINA RESULT:      -8.9     16.066     18.206
REMARK  6 active torsions:
REMARK  status: ('A' for Active; 'I' for Inactive)
REMARK    1  A    between atoms: C14_19  and  O4_4 
REMARK    2  A    between atoms: C12_17  and  N1_5 
REMARK       I    between atoms: C9_14  and  N1_5 
REMARK    3  A    between atoms: C1_6  and  C2_7 
REMARK    4  A    between atoms: C2_7  and  C5_10 
REMARK    5  A    between atoms: C5_10  and  C9_14 
REMARK    6  A    between atoms: C12_17  and  C15_20 
ROOT
HETATM    1  O1  UNK     1      28.541  -5.951  39.745  1.00  0.00    -0.274 OA
HETATM    2  O2  UNK     1      29.546  -3.920  39.878  1.00  0.00    -0.259 OA
HETATM    3  C1  UNK     1      29.628  -5.001  37.756  1.00  0.00     0.025 A 
HETATM    4  C3  UNK     1      29.324  -6.096  37.029  1.00  0.00    -0.037 A 
HETATM    5  C4  UNK     1      28.552  -7.190  37.651  1.00  0.00     0.005 A 
HETATM    6  C6  UNK     1      28.188  -7.080  38.990  1.00  0.00     0.092 A 
HETATM    7  C7  UNK     1      29.246  -4.895  39.194  1.00  0.00     0.295 A 
HETATM    8  C8  UNK     1      29.743  -6.290  35.592  1.00  0.00     0.050 C 
HETATM    9  C10 UNK     1      28.143  -8.349  36.972  1.00  0.00     0.017 A 
HETATM   10  C11 UNK     1      27.458  -8.068  39.656  1.00  0.00     0.074 A 
HETATM   11  C13 UNK     1      27.411  -9.350  37.622  1.00  0.00     0.037 A 
HETATM   12  C14 UNK     1      27.070  -9.210  38.965  1.00  0.00     0.068 A 
ENDROOT
BRANCH   3  13
HETATM   13  C2  UNK     1      30.353  -3.788  37.228  1.00  0.00     0.055 C 
BRANCH  13  14
HETATM   14  C5  UNK     1      31.811  -3.752  37.659  1.00  0.00     0.107 C 
BRANCH  14  15
HETATM   15  C9  UNK     1      32.657  -4.869  37.066  1.00  0.00     0.218 C 
HETATM   16  O3  UNK     1      32.967  -4.925  35.879  1.00  0.00    -0.274 OA
HETATM   17  N1  UNK     1      33.012  -5.805  38.028  1.00  0.00    -0.357 N 
HETATM   18  H12 UNK     1      32.691  -5.683  38.984  1.00  0.00     0.162 HD
BRANCH  17  19
HETATM   19  C12 UNK     1      33.802  -6.975  37.722  1.00  0.00     0.161 C 
BRANCH  19  20
HETATM   20  C15 UNK     1      32.901  -8.092  37.294  1.00  0.00    -0.041 A 
HETATM   21  C16 UNK     1      32.023  -8.661  38.211  1.00  0.00     0.009 A 
HETATM   22  C18 UNK     1      31.185  -9.702  37.813  1.00  0.00     0.001 A 
HETATM   23  C20 UNK     1      31.228 -10.169  36.499  1.00  0.00     0.000 A 
HETATM   24  C19 UNK     1      32.111  -9.595  35.584  1.00  0.00     0.001 A 
HETATM   25  C17 UNK     1      32.949  -8.554  35.982  1.00  0.00     0.009 A 
ENDBRANCH  19  20
ENDBRANCH  17  19
ENDBRANCH  14  15
ENDBRANCH  13  14
ENDBRANCH   3  13
BRANCH  12  26
HETATM   26  O4  UNK     1      26.358 -10.183  39.594  1.00  0.00    -0.361 OA
HETATM   27  H19 UNK     1      26.178 -10.901  38.962  1.00  0.00     0.217 HD
ENDBRANCH  12  26
TORSDOF 6
ENDMDL
MODEL 7
REMARK VINA RESULT:      -8.9      2.315      9.384
REMARK  6 active torsions:
REMARK  status: ('A' for Active; 'I' for Inactive)
REMARK    1  A    between atoms: C14_19  and  O4_4 
REMARK    2  A    between atoms: C12_17  and  N1_5 
REMARK       I    between atoms: C9_14  and  N1_5 
REMARK    3  A    between atoms: C1_6  and  C2_7 
REMARK    4  A    between atoms: C2_7  and  C5_10 
REMARK    5  A    between atoms: C5_10  and  C9_14 
REMARK    6  A    between atoms: C12_17  and  C15_20 
ROOT
HETATM    1  O1  UNK     1      18.977   0.546  32.613  1.00  0.00    -0.274 OA
HETATM    2  O2  UNK     1      18.085   2.204  33.882  1.00  0.00    -0.259 OA
HETATM    3  C1  UNK     1      18.268   2.644  31.548  1.00  0.00     0.025 A 
HETATM    4  C3  UNK     1      18.679   2.206  30.340  1.00  0.00    -0.037 A 
HETATM    5  C4  UNK     1      19.246   0.847  30.214  1.00  0.00     0.005 A 
HETATM    6  C6  UNK     1      19.376   0.064  31.358  1.00  0.00     0.092 A 
HETATM    7  C7  UNK     1      18.422   1.805  32.771  1.00  0.00     0.295 A 
HETATM    8  C8  UNK     1      18.613   3.035  29.081  1.00  0.00     0.050 C 
HETATM    9  C10 UNK     1      19.659   0.277  29.000  1.00  0.00     0.017 A 
HETATM   10  C11 UNK     1      19.902  -1.230  31.328  1.00  0.00     0.074 A 
HETATM   11  C13 UNK     1      20.188  -1.019  28.950  1.00  0.00     0.037 A 
HETATM   12  C14 UNK     1      20.310  -1.771  30.115  1.00  0.00     0.068 A 
ENDROOT
BRANCH   3  13
HETATM   13  C2  UNK     1      17.615   3.979  31.804  1.00  0.00     0.055 C 
BRANCH  13  14
HETATM   14  C5  UNK     1      18.614   5.127  31.778  1.00  0.00     0.107 C 
BRANCH  14  15
HETATM   15  C9  UNK     1      18.801   5.813  33.123  1.00  0.00     0.218 C 
HETATM   16  O3  UNK     1      18.351   5.369  34.176  1.00  0.00    -0.274 OA
HETATM   17  N1  UNK     1      19.522   6.992  32.997  1.00  0.00    -0.357 N 
HETATM   18  H12 UNK     1      19.837   7.288  32.078  1.00  0.00     0.162 HD
BRANCH  17  19
HETATM   19  C12 UNK     1      19.825   7.843  34.124  1.00  0.00     0.161 C 
BRANCH  19  20
HETATM   20  C15 UNK     1      18.902   9.022  34.125  1.00  0.00    -0.041 A 
HETATM   21  C16 UNK     1      17.526   8.823  34.150  1.00  0.00     0.009 A 
HETATM   22  C18 UNK     1      16.666   9.921  34.150  1.00  0.00     0.001 A 
HETATM   23  C20 UNK     1      17.188  11.215  34.125  1.00  0.00     0.000 A 
HETATM   24  C19 UNK     1      18.569  11.410  34.100  1.00  0.00     0.001 A 
HETATM   25  C17 UNK     1      19.428  10.310  34.100  1.00  0.00     0.009 A 
ENDBRANCH  19  20
ENDBRANCH  17  19
ENDBRANCH  14  15
ENDBRANCH  13  14
ENDBRANCH   3  13
BRANCH  12  26
HETATM   26  O4  UNK     1      20.823  -3.030  30.064  1.00  0.00    -0.361 OA
HETATM   27  H19 UNK     1      20.766  -3.430  30.949  1.00  0.00     0.217 HD
ENDBRANCH  12  26
TORSDOF 6
ENDMDL
MODEL 8
REMARK VINA RESULT:      -8.9      1.302      2.265
REMARK  6 active torsions:
REMARK  status: ('A' for Active; 'I' for Inactive)
REMARK    1  A    between atoms: C14_19  and  O4_4 
REMARK    2  A    between atoms: C12_17  and  N1_5 
REMARK       I    between atoms: C9_14  and  N1_5 
REMARK    3  A    between atoms: C1_6  and  C2_7 
REMARK    4  A    between atoms: C2_7  and  C5_10 
REMARK    5  A    between atoms: C5_10  and  C9_14 
REMARK    6  A    between atoms: C12_17  and  C15_20 
ROOT
HETATM    1  O1  UNK     1      20.129   8.014  33.829  1.00  0.00    -0.274 OA
HETATM    2  O2  UNK     1      20.869   5.901  33.451  1.00  0.00    -0.259 OA
HETATM    3  C1  UNK     1      18.536   6.273  33.145  1.00  0.00     0.025 A 
HETATM    4  C3  UNK     1      17.507   7.143  33.216  1.00  0.00    -0.037 A 
HETATM    5  C4  UNK     1      17.770   8.552  33.575  1.00  0.00     0.005 A 
HETATM    6  C6  UNK     1      19.074   8.938  33.872  1.00  0.00     0.092 A 
HETATM    7  C7  UNK     1      19.929   6.690  33.476  1.00  0.00     0.295 A 
HETATM    8  C8  UNK     1      16.069   6.763  32.960  1.00  0.00     0.050 C 
HETATM    9  C10 UNK     1      16.781   9.546  33.630  1.00  0.00     0.017 A 
HETATM   10  C11 UNK     1      19.410  10.248  34.221  1.00  0.00     0.074 A 
HETATM   11  C13 UNK     1      17.099  10.865  33.978  1.00  0.00     0.037 A 
HETATM   12  C14 UNK     1      18.414  11.215  34.275  1.00  0.00     0.068 A 
ENDROOT
BRANCH   3  13
HETATM   13  C2  UNK     1      18.416   4.828  32.730  1.00  0.00     0.055 C 
BRANCH  13  14
HETATM   14  C5  UNK     1      18.793   4.611  31.272  1.00  0.00     0.107 C 
BRANCH  14  15
HETATM   15  C9  UNK     1      18.183   3.361  30.656  1.00  0.00     0.218 C 
HETATM   16  O3  UNK     1      17.080   2.922  30.971  1.00  0.00    -0.274 OA
HETATM   17  N1  UNK     1      19.032   2.787  29.720  1.00  0.00    -0.357 N 
HETATM   18  H12 UNK     1      19.937   3.214  29.541  1.00  0.00     0.162 HD
BRANCH  17  19
HETATM   19  C12 UNK     1      18.697   1.581  29.000  1.00  0.00     0.161 C 
BRANCH  19  20
HETATM   20  C15 UNK     1      19.375   0.409  29.641  1.00  0.00    -0.041 A 
HETATM   21  C16 UNK     1      19.247   0.200  31.011  1.00  0.00     0.009 A 
HETATM   22  C18 UNK     1      19.879  -0.890  31.607  1.00  0.00     0.001 A 
HETATM   23  C20 UNK     1      20.637  -1.767  30.831  1.00  0.00     0.000 A 
HETATM   24  C19 UNK     1      20.763  -1.553  29.458  1.00  0.00     0.001 A 
HETATM   25  C17 UNK     1      20.130  -0.462  28.862  1.00  0.00     0.009 A 
ENDBRANCH  19  20
ENDBRANCH  17  19
ENDBRANCH  14  15
ENDBRANCH  13  14
ENDBRANCH   3  13
BRANCH  12  26
HETATM   26  O4  UNK     1      18.719  12.497  34.612  1.00  0.00    -0.361 OA
HETATM   27  H19 UNK     1      19.264  12.887  33.906  1.00  0.00     0.217 HD
ENDBRANCH  12  26
TORSDOF 6
ENDMDL
MODEL 9
REMARK VINA RESULT:      -8.8      4.269      8.655
REMARK  6 active torsions:
REMARK  status: ('A' for Active; 'I' for Inactive)
REMARK    1  A    between atoms: C14_19  and  O4_4 
REMARK    2  A    between atoms: C12_17  and  N1_5 
REMARK       I    between atoms: C9_14  and  N1_5 
REMARK    3  A    between atoms: C1_6  and  C2_7 
REMARK    4  A    between atoms: C2_7  and  C5_10 
REMARK    5  A    between atoms: C5_10  and  C9_14 
REMARK    6  A    between atoms: C12_17  and  C15_20 
ROOT
HETATM    1  O1  UNK     1      20.540  -2.902  34.425  1.00  0.00    -0.274 OA
HETATM    2  O2  UNK     1      21.454  -3.470  32.426  1.00  0.00    -0.259 OA
HETATM    3  C1  UNK     1      19.782  -1.774  32.378  1.00  0.00     0.025 A 
HETATM    4  C3  UNK     1      18.886  -1.044  33.075  1.00  0.00    -0.037 A 
HETATM    5  C4  UNK     1      18.807  -1.198  34.542  1.00  0.00     0.005 A 
HETATM    6  C6  UNK     1      19.637  -2.125  35.167  1.00  0.00     0.092 A 
HETATM    7  C7  UNK     1      20.659  -2.774  33.052  1.00  0.00     0.295 A 
HETATM    8  C8  UNK     1      17.925  -0.069  32.440  1.00  0.00     0.050 C 
HETATM    9  C10 UNK     1      17.946  -0.456  35.365  1.00  0.00     0.017 A 
HETATM   10  C11 UNK     1      19.627  -2.333  36.548  1.00  0.00     0.074 A 
HETATM   11  C13 UNK     1      17.922  -0.651  36.752  1.00  0.00     0.037 A 
HETATM   12  C14 UNK     1      18.762  -1.591  37.342  1.00  0.00     0.068 A 
ENDROOT
BRANCH   3  13
HETATM   13  C2  UNK     1      20.009  -1.668  30.891  1.00  0.00     0.055 C 
BRANCH  13  14
HETATM   14  C5  UNK     1      20.683  -0.362  30.499  1.00  0.00     0.107 C 
BRANCH  14  15
HETATM   15  C9  UNK     1      19.802   0.562  29.671  1.00  0.00     0.218 C 
HETATM   16  O3  UNK     1      19.430   0.298  28.531  1.00  0.00    -0.274 OA
HETATM   17  N1  UNK     1      19.496   1.727  30.361  1.00  0.00    -0.357 N 
HETATM   18  H12 UNK     1      19.867   1.865  31.296  1.00  0.00     0.162 HD
BRANCH  17  19
HETATM   19  C12 UNK     1      18.685   2.779  29.792  1.00  0.00     0.161 C 
BRANCH  19  20
HETATM   20  C15 UNK     1      18.759   3.996  30.661  1.00  0.00    -0.041 A 
HETATM   21  C16 UNK     1      19.452   5.119  30.220  1.00  0.00     0.009 A 
HETATM   22  C18 UNK     1      19.521   6.252  31.029  1.00  0.00     0.001 A 
HETATM   23  C20 UNK     1      18.899   6.257  32.278  1.00  0.00     0.000 A 
HETATM   24  C19 UNK     1      18.206   5.128  32.716  1.00  0.00     0.001 A 
HETATM   25  C17 UNK     1      18.136   3.995  31.905  1.00  0.00     0.009 A 
ENDBRANCH  19  20
ENDBRANCH  17  19
ENDBRANCH  14  15
ENDBRANCH  13  14
ENDBRANCH   3  13
BRANCH  12  26
HETATM   26  O4  UNK     1      18.737  -1.778  38.689  1.00  0.00    -0.361 OA
HETATM   27  H19 UNK     1      19.624  -1.601  39.048  1.00  0.00     0.217 HD
ENDBRANCH  12  26
TORSDOF 6
ENDMDL
MODEL 10
REMARK VINA RESULT:      -8.8      3.962      8.620
REMARK  6 active torsions:
REMARK  status: ('A' for Active; 'I' for Inactive)
REMARK    1  A    between atoms: C14_19  and  O4_4 
REMARK    2  A    between atoms: C12_17  and  N1_5 
REMARK       I    between atoms: C9_14  and  N1_5 
REMARK    3  A    between atoms: C1_6  and  C2_7 
REMARK    4  A    between atoms: C2_7  and  C5_10 
REMARK    5  A    between atoms: C5_10  and  C9_14 
REMARK    6  A    between atoms: C12_17  and  C15_20 
ROOT
HETATM    1  O1  UNK     1      18.401  -0.524  34.142  1.00  0.00    -0.274 OA
HETATM    2  O2  UNK     1      18.143   0.184  32.001  1.00  0.00    -0.259 OA
HETATM    3  C1  UNK     1      19.662  -1.620  32.340  1.00  0.00     0.025 A 
HETATM    4  C3  UNK     1      20.274  -2.437  33.222  1.00  0.00    -0.037 A 
HETATM    5  C4  UNK     1      19.928  -2.347  34.656  1.00  0.00     0.005 A 
HETATM    6  C6  UNK     1      19.004  -1.391  35.066  1.00  0.00     0.092 A 
HETATM    7  C7  UNK     1      18.681  -0.590  32.788  1.00  0.00     0.295 A 
HETATM    8  C8  UNK     1      21.323  -3.450  32.837  1.00  0.00     0.050 C 
HETATM    9  C10 UNK     1      20.469  -3.179  35.648  1.00  0.00     0.017 A 
HETATM   10  C11 UNK     1      18.621  -1.238  36.401  1.00  0.00     0.074 A 
HETATM   11  C13 UNK     1      20.098  -3.041  36.992  1.00  0.00     0.037 A 
HETATM   12  C14 UNK     1      19.175  -2.069  37.367  1.00  0.00     0.068 A 
ENDROOT
BRANCH   3  13
HETATM   13  C2  UNK     1      19.873  -1.651  30.846  1.00  0.00     0.055 C 
BRANCH  13  14
HETATM   14  C5  UNK     1      20.673  -0.456  30.350  1.00  0.00     0.107 C 
BRANCH  14  15
HETATM   15  C9  UNK     1      19.884   0.486  29.453  1.00  0.00     0.218 C 
HETATM   16  O3  UNK     1      19.581   0.218  28.293  1.00  0.00    -0.274 OA
HETATM   17  N1  UNK     1      19.573   1.670  30.105  1.00  0.00    -0.357 N 
HETATM   18  H12 UNK     1      19.885   1.809  31.062  1.00  0.00     0.162 HD
BRANCH  17  19
HETATM   19  C12 UNK     1      18.841   2.741  29.469  1.00  0.00     0.161 C 
BRANCH  19  20
HETATM   20  C15 UNK     1      18.748   3.909  30.402  1.00  0.00    -0.041 A 
HETATM   21  C16 UNK     1      18.195   3.741  31.668  1.00  0.00     0.009 A 
HETATM   22  C18 UNK     1      18.109   4.829  32.536  1.00  0.00     0.001 A 
HETATM   23  C20 UNK     1      18.576   6.081  32.134  1.00  0.00     0.000 A 
HETATM   24  C19 UNK     1      19.130   6.244  30.864  1.00  0.00     0.001 A 
HETATM   25  C17 UNK     1      19.216   5.155  29.996  1.00  0.00     0.009 A 
ENDBRANCH  19  20
ENDBRANCH  17  19
ENDBRANCH  14  15
ENDBRANCH  13  14
ENDBRANCH   3  13
BRANCH  12  26
HETATM   26  O4  UNK     1      18.815  -1.938  38.672  1.00  0.00    -0.361 OA
HETATM   27  H19 UNK     1      19.505  -1.438  39.141  1.00  0.00     0.217 HD
ENDBRANCH  12  26
TORSDOF 6
ENDMDL
