MODEL 1
REMARK VINA RESULT:      -8.9      0.000      0.000
REMARK  3 active torsions:
REMARK  status: ('A' for Active; 'I' for Inactive)
REMARK    1  A    between atoms: C11_14  and  C8_11 
REMARK    2  A    between atoms: C11_14  and  C12_15 
REMARK    3  A    between atoms: C13_16  and  C14_17 
ROOT
HETATM    1  O1  UNK     1      19.152  -0.094  33.156  1.00  0.00    -0.348 OA
HETATM    2  O2  UNK     1      20.409  -2.188  31.462  1.00  0.00    -0.348 OA
HETATM    3  C1  UNK     1      19.565  -2.036  34.523  1.00  0.00     0.029 C 
HETATM    4  C2  UNK     1      20.624  -2.844  33.770  1.00  0.00     0.029 C 
HETATM    5  C3  UNK     1      18.567  -1.312  33.627  1.00  0.00     0.176 C 
HETATM    6  C4  UNK     1      21.268  -2.109  32.602  1.00  0.00     0.176 C 
HETATM    7  C5  UNK     1      19.327  -0.012  31.804  1.00  0.00     0.102 A 
HETATM    8  C6  UNK     1      19.925  -0.993  31.008  1.00  0.00     0.102 A 
HETATM    9  C7  UNK     1      18.902   1.188  31.220  1.00  0.00     0.055 A 
HETATM   10  C8  UNK     1      19.017   1.383  29.844  1.00  0.00     0.017 A 
HETATM   11  C9  UNK     1      20.011  -0.802  29.624  1.00  0.00     0.040 A 
HETATM   12  C10 UNK     1      19.563   0.384  29.044  1.00  0.00     0.018 A 
ENDROOT
BRANCH  10  13
HETATM   13  C11 UNK     1      18.557   2.626  29.245  1.00  0.00     0.182 C 
HETATM   14  O3  UNK     1      17.973   2.670  28.153  1.00  0.00    -0.288 OA
BRANCH  13  15
HETATM   15  C12 UNK     1      18.835   3.922  29.958  1.00  0.00     0.056 C 
HETATM   16  C13 UNK     1      18.272   4.185  31.148  1.00  0.00     0.015 C 
BRANCH  16  17
HETATM   17  C14 UNK     1      18.473   5.432  31.909  1.00  0.00    -0.036 A 
HETATM   18  C15 UNK     1      17.382   6.237  32.192  1.00  0.00     0.011 A 
HETATM   19  C17 UNK     1      17.573   7.417  32.911  1.00  0.00     0.001 A 
HETATM   20  C19 UNK     1      18.852   7.774  33.338  1.00  0.00     0.000 A 
HETATM   21  C18 UNK     1      19.940   6.953  33.044  1.00  0.00     0.001 A 
HETATM   22  C16 UNK     1      19.749   5.773  32.325  1.00  0.00     0.011 A 
ENDBRANCH  16  17
ENDBRANCH  13  15
ENDBRANCH  10  13
TORSDOF 3
ENDMDL
MODEL 2
REMARK VINA RESULT:      -8.8      3.930      9.845
REMARK  3 active torsions:
REMARK  status: ('A' for Active; 'I' for Inactive)
REMARK    1  A    between atoms: C11_14  and  C8_11 
REMARK    2  A    between atoms: C11_14  and  C12_15 
REMARK    3  A    between atoms: C13_16  and  C14_17 
ROOT
HETATM    1  O1  UNK     1      20.872  -2.112  31.600  1.00  0.00    -0.348 OA
HETATM    2  O2  UNK     1      18.693  -0.091  31.606  1.00  0.00    -0.348 OA
HETATM    3  C1  UNK     1      20.558  -1.322  29.345  1.00  0.00     0.029 C 
HETATM    4  C2  UNK     1      19.825   0.014  29.482  1.00  0.00     0.029 C 
HETATM    5  C3  UNK     1      20.166  -2.367  30.382  1.00  0.00     0.176 C 
HETATM    6  C4  UNK     1      19.758   0.556  30.904  1.00  0.00     0.176 C 
HETATM    7  C5  UNK     1      20.091  -1.800  32.677  1.00  0.00     0.102 A 
HETATM    8  C6  UNK     1      19.072  -0.844  32.682  1.00  0.00     0.102 A 
HETATM    9  C7  UNK     1      20.406  -2.481  33.859  1.00  0.00     0.055 A 
HETATM   10  C8  UNK     1      19.669  -2.257  35.021  1.00  0.00     0.017 A 
HETATM   11  C9  UNK     1      18.318  -0.643  33.845  1.00  0.00     0.040 A 
HETATM   12  C10 UNK     1      18.618  -1.344  35.012  1.00  0.00     0.018 A 
ENDROOT
BRANCH  10  13
HETATM   13  C11 UNK     1      19.993  -2.982  36.239  1.00  0.00     0.182 C 
HETATM   14  O3  UNK     1      20.594  -2.463  37.191  1.00  0.00    -0.288 OA
BRANCH  13  15
HETATM   15  C12 UNK     1      19.617  -4.437  36.340  1.00  0.00     0.056 C 
HETATM   16  C13 UNK     1      19.967  -5.163  37.412  1.00  0.00     0.015 C 
BRANCH  16  17
HETATM   17  C14 UNK     1      19.658  -6.594  37.588  1.00  0.00    -0.036 A 
HETATM   18  C15 UNK     1      19.891  -7.193  38.815  1.00  0.00     0.011 A 
HETATM   19  C17 UNK     1      19.599  -8.547  38.980  1.00  0.00     0.001 A 
HETATM   20  C19 UNK     1      19.077  -9.282  37.916  1.00  0.00     0.000 A 
HETATM   21  C18 UNK     1      18.847  -8.664  36.687  1.00  0.00     0.001 A 
HETATM   22  C16 UNK     1      19.140  -7.311  36.522  1.00  0.00     0.011 A 
ENDBRANCH  16  17
ENDBRANCH  13  15
ENDBRANCH  10  13
TORSDOF 3
ENDMDL
MODEL 3
REMARK VINA RESULT:      -8.6      2.821      8.109
REMARK  3 active torsions:
REMARK  status: ('A' for Active; 'I' for Inactive)
REMARK    1  A    between atoms: C11_14  and  C8_11 
REMARK    2  A    between atoms: C11_14  and  C12_15 
REMARK    3  A    between atoms: C13_16  and  C14_17 
ROOT
HETATM    1  O1  UNK     1      15.554   7.419  32.534  1.00  0.00    -0.348 OA
HETATM    2  O2  UNK     1      17.527   7.996  34.679  1.00  0.00    -0.348 OA
HETATM    3  C1  UNK     1      14.516   8.871  34.154  1.00  0.00     0.029 C 
HETATM    4  C2  UNK     1      15.674   9.517  34.919  1.00  0.00     0.029 C 
HETATM    5  C3  UNK     1      14.766   7.429  33.728  1.00  0.00     0.176 C 
HETATM    6  C4  UNK     1      17.047   9.288  34.300  1.00  0.00     0.176 C 
HETATM    7  C5  UNK     1      16.785   6.838  32.647  1.00  0.00     0.102 A 
HETATM    8  C6  UNK     1      17.716   7.115  33.652  1.00  0.00     0.102 A 
HETATM    9  C7  UNK     1      17.115   5.938  31.627  1.00  0.00     0.055 A 
HETATM   10  C8  UNK     1      18.341   5.272  31.642  1.00  0.00     0.017 A 
HETATM   11  C9  UNK     1      18.933   6.423  33.676  1.00  0.00     0.040 A 
HETATM   12  C10 UNK     1      19.246   5.507  32.672  1.00  0.00     0.018 A 
ENDROOT
BRANCH  10  13
HETATM   13  C11 UNK     1      18.668   4.326  30.587  1.00  0.00     0.182 C 
HETATM   14  O3  UNK     1      18.631   4.621  29.384  1.00  0.00    -0.288 OA
BRANCH  13  15
HETATM   15  C12 UNK     1      19.031   2.914  30.965  1.00  0.00     0.056 C 
HETATM   16  C13 UNK     1      19.182   1.969  30.025  1.00  0.00     0.015 C 
BRANCH  16  17
HETATM   17  C14 UNK     1      19.519   0.561  30.303  1.00  0.00    -0.036 A 
HETATM   18  C15 UNK     1      19.139  -0.002  31.511  1.00  0.00     0.011 A 
HETATM   19  C17 UNK     1      19.459  -1.333  31.773  1.00  0.00     0.001 A 
HETATM   20  C19 UNK     1      20.154  -2.083  30.825  1.00  0.00     0.000 A 
HETATM   21  C18 UNK     1      20.530  -1.502  29.614  1.00  0.00     0.001 A 
HETATM   22  C16 UNK     1      20.210  -0.171  29.351  1.00  0.00     0.011 A 
ENDBRANCH  16  17
ENDBRANCH  13  15
ENDBRANCH  10  13
TORSDOF 3
ENDMDL
MODEL 4
REMARK VINA RESULT:      -8.6      4.596      8.228
REMARK  3 active torsions:
REMARK  status: ('A' for Active; 'I' for Inactive)
REMARK    1  A    between atoms: C11_14  and  C8_11 
REMARK    2  A    between atoms: C11_14  and  C12_15 
REMARK    3  A    between atoms: C13_16  and  C14_17 
ROOT
HETATM    1  O1  UNK     1      20.068  -7.521  35.465  1.00  0.00    -0.348 OA
HETATM    2  O2  UNK     1      21.472  -7.384  38.081  1.00  0.00    -0.348 OA
HETATM    3  C1  UNK     1      20.821  -9.736  36.043  1.00  0.00     0.029 C 
HETATM    4  C2  UNK     1      21.065  -9.700  37.553  1.00  0.00     0.029 C 
HETATM    5  C3  UNK     1      21.155  -8.439  35.317  1.00  0.00     0.176 C 
HETATM    6  C4  UNK     1      20.536  -8.453  38.250  1.00  0.00     0.176 C 
HETATM    7  C5  UNK     1      20.358  -6.371  36.143  1.00  0.00     0.102 A 
HETATM    8  C6  UNK     1      21.012  -6.307  37.377  1.00  0.00     0.102 A 
HETATM    9  C7  UNK     1      19.903  -5.193  35.540  1.00  0.00     0.055 A 
HETATM   10  C8  UNK     1      20.151  -3.954  36.131  1.00  0.00     0.017 A 
HETATM   11  C9  UNK     1      21.282  -5.060  37.952  1.00  0.00     0.040 A 
HETATM   12  C10 UNK     1      20.850  -3.887  37.333  1.00  0.00     0.018 A 
ENDROOT
BRANCH  10  13
HETATM   13  C11 UNK     1      19.690  -2.735  35.488  1.00  0.00     0.182 C 
HETATM   14  O3  UNK     1      18.919  -1.935  36.039  1.00  0.00    -0.288 OA
BRANCH  13  15
HETATM   15  C12 UNK     1      20.134  -2.444  34.079  1.00  0.00     0.056 C 
HETATM   16  C13 UNK     1      19.391  -1.672  33.271  1.00  0.00     0.015 C 
BRANCH  16  17
HETATM   17  C14 UNK     1      19.738  -1.349  31.875  1.00  0.00    -0.036 A 
HETATM   18  C15 UNK     1      19.506  -0.069  31.397  1.00  0.00     0.011 A 
HETATM   19  C17 UNK     1      19.834   0.236  30.077  1.00  0.00     0.001 A 
HETATM   20  C19 UNK     1      20.390  -0.743  29.253  1.00  0.00     0.000 A 
HETATM   21  C18 UNK     1      20.617  -2.026  29.748  1.00  0.00     0.001 A 
HETATM   22  C16 UNK     1      20.289  -2.331  31.069  1.00  0.00     0.011 A 
ENDBRANCH  16  17
ENDBRANCH  13  15
ENDBRANCH  10  13
TORSDOF 3
ENDMDL
MODEL 5
REMARK VINA RESULT:      -8.6      3.536      9.045
REMARK  3 active torsions:
REMARK  status: ('A' for Active; 'I' for Inactive)
REMARK    1  A    between atoms: C11_14  and  C8_11 
REMARK    2  A    between atoms: C11_14  and  C12_15 
REMARK    3  A    between atoms: C13_16  and  C14_17 
ROOT
HETATM    1  O1  UNK     1      18.600   0.024  31.507  1.00  0.00    -0.348 OA
HETATM    2  O2  UNK     1      20.859  -1.527  30.357  1.00  0.00    -0.348 OA
HETATM    3  C1  UNK     1      19.057   0.868  29.296  1.00  0.00     0.029 C 
HETATM    4  C2  UNK     1      19.838  -0.244  28.592  1.00  0.00     0.029 C 
HETATM    5  C3  UNK     1      19.354   1.003  30.785  1.00  0.00     0.176 C 
HETATM    6  C4  UNK     1      19.858  -1.572  29.337  1.00  0.00     0.176 C 
HETATM    7  C5  UNK     1      19.339  -0.906  32.181  1.00  0.00     0.102 A 
HETATM    8  C6  UNK     1      20.396  -1.641  31.638  1.00  0.00     0.102 A 
HETATM    9  C7  UNK     1      18.938  -1.144  33.501  1.00  0.00     0.055 A 
HETATM   10  C8  UNK     1      19.625  -2.062  34.294  1.00  0.00     0.017 A 
HETATM   11  C9  UNK     1      21.100  -2.542  32.447  1.00  0.00     0.040 A 
HETATM   12  C10 UNK     1      20.713  -2.755  33.770  1.00  0.00     0.018 A 
ENDROOT
BRANCH  10  13
HETATM   13  C11 UNK     1      19.212  -2.289  35.669  1.00  0.00     0.182 C 
HETATM   14  O3  UNK     1      18.228  -1.732  36.176  1.00  0.00    -0.288 OA
BRANCH  13  15
HETATM   15  C12 UNK     1      20.034  -3.211  36.532  1.00  0.00     0.056 C 
HETATM   16  C13 UNK     1      19.583  -4.433  36.854  1.00  0.00     0.015 C 
BRANCH  16  17
HETATM   17  C14 UNK     1      20.309  -5.393  37.704  1.00  0.00    -0.036 A 
HETATM   18  C15 UNK     1      19.634  -6.485  38.225  1.00  0.00     0.011 A 
HETATM   19  C17 UNK     1      20.322  -7.393  39.029  1.00  0.00     0.001 A 
HETATM   20  C19 UNK     1      21.676  -7.196  39.303  1.00  0.00     0.000 A 
HETATM   21  C18 UNK     1      22.341  -6.091  38.772  1.00  0.00     0.001 A 
HETATM   22  C16 UNK     1      21.653  -5.184  37.967  1.00  0.00     0.011 A 
ENDBRANCH  16  17
ENDBRANCH  13  15
ENDBRANCH  10  13
TORSDOF 3
ENDMDL
MODEL 6
REMARK VINA RESULT:      -8.5      3.512      8.978
REMARK  3 active torsions:
REMARK  status: ('A' for Active; 'I' for Inactive)
REMARK    1  A    between atoms: C11_14  and  C8_11 
REMARK    2  A    between atoms: C11_14  and  C12_15 
REMARK    3  A    between atoms: C13_16  and  C14_17 
ROOT
HETATM    1  O1  UNK     1      18.575   9.367  34.449  1.00  0.00    -0.348 OA
HETATM    2  O2  UNK     1      16.049   9.989  33.011  1.00  0.00    -0.348 OA
HETATM    3  C1  UNK     1      18.244  11.754  34.487  1.00  0.00     0.029 C 
HETATM    4  C2  UNK     1      16.754  11.961  34.203  1.00  0.00     0.029 C 
HETATM    5  C3  UNK     1      18.871  10.578  33.748  1.00  0.00     0.176 C 
HETATM    6  C4  UNK     1      15.918  10.688  34.252  1.00  0.00     0.176 C 
HETATM    7  C5  UNK     1      17.816   8.462  33.763  1.00  0.00     0.102 A 
HETATM    8  C6  UNK     1      16.625   8.753  33.093  1.00  0.00     0.102 A 
HETATM    9  C7  UNK     1      18.283   7.142  33.802  1.00  0.00     0.055 A 
HETATM   10  C8  UNK     1      17.600   6.130  33.127  1.00  0.00     0.017 A 
HETATM   11  C9  UNK     1      15.959   7.738  32.394  1.00  0.00     0.040 A 
HETATM   12  C10 UNK     1      16.443   6.430  32.414  1.00  0.00     0.018 A 
ENDROOT
BRANCH  10  13
HETATM   13  C11 UNK     1      18.102   4.766  33.159  1.00  0.00     0.182 C 
HETATM   14  O3  UNK     1      18.485   4.216  34.202  1.00  0.00    -0.288 OA
BRANCH  13  15
HETATM   15  C12 UNK     1      18.198   3.997  31.868  1.00  0.00     0.056 C 
HETATM   16  C13 UNK     1      18.567   2.707  31.864  1.00  0.00     0.015 C 
BRANCH  16  17
HETATM   17  C14 UNK     1      18.704   1.882  30.649  1.00  0.00    -0.036 A 
HETATM   18  C15 UNK     1      17.908   2.157  29.549  1.00  0.00     0.011 A 
HETATM   19  C17 UNK     1      18.038   1.376  28.401  1.00  0.00     0.001 A 
HETATM   20  C19 UNK     1      18.962   0.332  28.369  1.00  0.00     0.000 A 
HETATM   21  C18 UNK     1      19.755   0.067  29.485  1.00  0.00     0.001 A 
HETATM   22  C16 UNK     1      19.625   0.848  30.633  1.00  0.00     0.011 A 
ENDBRANCH  16  17
ENDBRANCH  13  15
ENDBRANCH  10  13
TORSDOF 3
ENDMDL
MODEL 7
REMARK VINA RESULT:      -8.5      1.767      2.516
REMARK  3 active torsions:
REMARK  status: ('A' for Active; 'I' for Inactive)
REMARK    1  A    between atoms: C11_14  and  C8_11 
REMARK    2  A    between atoms: C11_14  and  C12_15 
REMARK    3  A    between atoms: C13_16  and  C14_17 
ROOT
HETATM    1  O1  UNK     1      17.688   1.205  35.260  1.00  0.00    -0.348 OA
HETATM    2  O2  UNK     1      18.772  -1.314  34.114  1.00  0.00    -0.348 OA
HETATM    3  C1  UNK     1      17.388  -0.559  36.875  1.00  0.00     0.029 C 
HETATM    4  C2  UNK     1      18.374  -1.655  36.466  1.00  0.00     0.029 C 
HETATM    5  C3  UNK     1      16.771   0.203  35.709  1.00  0.00     0.176 C 
HETATM    6  C4  UNK     1      19.383  -1.234  35.405  1.00  0.00     0.176 C 
HETATM    7  C5  UNK     1      18.142   1.054  33.981  1.00  0.00     0.102 A 
HETATM    8  C6  UNK     1      18.659  -0.129  33.444  1.00  0.00     0.102 A 
HETATM    9  C7  UNK     1      18.114   2.214  33.197  1.00  0.00     0.055 A 
HETATM   10  C8  UNK     1      18.540   2.181  31.870  1.00  0.00     0.017 A 
HETATM   11  C9  UNK     1      19.060  -0.162  32.103  1.00  0.00     0.040 A 
HETATM   12  C10 UNK     1      19.004   0.990  31.319  1.00  0.00     0.018 A 
ENDROOT
BRANCH  10  13
HETATM   13  C11 UNK     1      18.491   3.387  31.059  1.00  0.00     0.182 C 
HETATM   14  O3  UNK     1      18.708   3.386  29.839  1.00  0.00    -0.288 OA
BRANCH  13  15
HETATM   15  C12 UNK     1      18.202   4.703  31.732  1.00  0.00     0.056 C 
HETATM   16  C13 UNK     1      19.201   5.516  32.107  1.00  0.00     0.015 C 
BRANCH  16  17
HETATM   17  C14 UNK     1      19.013   6.811  32.786  1.00  0.00    -0.036 A 
HETATM   18  C15 UNK     1      17.815   7.490  32.632  1.00  0.00     0.011 A 
HETATM   19  C17 UNK     1      17.638   8.716  33.273  1.00  0.00     0.001 A 
HETATM   20  C19 UNK     1      18.661   9.245  34.059  1.00  0.00     0.000 A 
HETATM   21  C18 UNK     1      19.861   8.550  34.204  1.00  0.00     0.001 A 
HETATM   22  C16 UNK     1      20.038   7.325  33.562  1.00  0.00     0.011 A 
ENDBRANCH  16  17
ENDBRANCH  13  15
ENDBRANCH  10  13
TORSDOF 3
ENDMDL
MODEL 8
REMARK VINA RESULT:      -8.3      3.441      8.341
REMARK  3 active torsions:
REMARK  status: ('A' for Active; 'I' for Inactive)
REMARK    1  A    between atoms: C11_14  and  C8_11 
REMARK    2  A    between atoms: C11_14  and  C12_15 
REMARK    3  A    between atoms: C13_16  and  C14_17 
ROOT
HETATM    1  O1  UNK     1      19.655   7.553  34.496  1.00  0.00    -0.348 OA
HETATM    2  O2  UNK     1      17.738   8.947  32.703  1.00  0.00    -0.348 OA
HETATM    3  C1  UNK     1      20.049   9.926  34.654  1.00  0.00     0.029 C 
HETATM    4  C2  UNK     1      18.767  10.585  34.139  1.00  0.00     0.029 C 
HETATM    5  C3  UNK     1      20.421   8.629  33.946  1.00  0.00     0.176 C 
HETATM    6  C4  UNK     1      17.596   9.629  33.952  1.00  0.00     0.176 C 
HETATM    7  C5  UNK     1      18.801   6.937  33.626  1.00  0.00     0.102 A 
HETATM    8  C6  UNK     1      17.893   7.592  32.789  1.00  0.00     0.102 A 
HETATM    9  C7  UNK     1      18.837   5.538  33.646  1.00  0.00     0.055 A 
HETATM   10  C8  UNK     1      18.020   4.797  32.792  1.00  0.00     0.017 A 
HETATM   11  C9  UNK     1      17.095   6.844  31.914  1.00  0.00     0.040 A 
HETATM   12  C10 UNK     1      17.155   5.451  31.919  1.00  0.00     0.018 A 
ENDROOT
BRANCH  10  13
HETATM   13  C11 UNK     1      18.078   3.344  32.807  1.00  0.00     0.182 C 
HETATM   14  O3  UNK     1      17.977   2.657  31.781  1.00  0.00    -0.288 OA
BRANCH  13  15
HETATM   15  C12 UNK     1      18.229   2.637  34.129  1.00  0.00     0.056 C 
HETATM   16  C13 UNK     1      17.748   1.397  34.302  1.00  0.00     0.015 C 
BRANCH  16  17
HETATM   17  C14 UNK     1      17.836   0.637  35.562  1.00  0.00    -0.036 A 
HETATM   18  C15 UNK     1      18.179  -0.705  35.524  1.00  0.00     0.011 A 
HETATM   19  C17 UNK     1      18.260  -1.423  36.716  1.00  0.00     0.001 A 
HETATM   20  C19 UNK     1      17.998  -0.790  37.930  1.00  0.00     0.000 A 
HETATM   21  C18 UNK     1      17.653   0.561  37.953  1.00  0.00     0.001 A 
HETATM   22  C16 UNK     1      17.572   1.280  36.761  1.00  0.00     0.011 A 
ENDBRANCH  16  17
ENDBRANCH  13  15
ENDBRANCH  10  13
TORSDOF 3
ENDMDL
MODEL 9
REMARK VINA RESULT:      -8.3      1.554      2.571
REMARK  3 active torsions:
REMARK  status: ('A' for Active; 'I' for Inactive)
REMARK    1  A    between atoms: C11_14  and  C8_11 
REMARK    2  A    between atoms: C11_14  and  C12_15 
REMARK    3  A    between atoms: C13_16  and  C14_17 
ROOT
HETATM    1  O1  UNK     1      18.471  -0.501  34.445  1.00  0.00    -0.348 OA
HETATM    2  O2  UNK     1      20.306  -2.839  34.432  1.00  0.00    -0.348 OA
HETATM    3  C1  UNK     1      18.297  -1.619  36.573  1.00  0.00     0.029 C 
HETATM    4  C2  UNK     1      19.571  -2.459  36.695  1.00  0.00     0.029 C 
HETATM    5  C3  UNK     1      17.746  -1.508  35.157  1.00  0.00     0.176 C 
HETATM    6  C4  UNK     1      20.632  -2.155  35.645  1.00  0.00     0.176 C 
HETATM    7  C5  UNK     1      19.177  -0.941  33.362  1.00  0.00     0.102 A 
HETATM    8  C6  UNK     1      20.046  -2.035  33.357  1.00  0.00     0.102 A 
HETATM    9  C7  UNK     1      19.025  -0.174  32.200  1.00  0.00     0.055 A 
HETATM   10  C8  UNK     1      19.685  -0.533  31.025  1.00  0.00     0.017 A 
HETATM   11  C9  UNK     1      20.684  -2.407  32.168  1.00  0.00     0.040 A 
HETATM   12  C10 UNK     1      20.508  -1.656  31.006  1.00  0.00     0.018 A 
ENDROOT
BRANCH  10  13
HETATM   13  C11 UNK     1      19.506   0.259  29.819  1.00  0.00     0.182 C 
HETATM   14  O3  UNK     1      19.409  -0.246  28.691  1.00  0.00    -0.288 OA
BRANCH  13  15
HETATM   15  C12 UNK     1      19.476   1.760  29.934  1.00  0.00     0.056 C 
HETATM   16  C13 UNK     1      18.681   2.364  30.830  1.00  0.00     0.015 C 
BRANCH  16  17
HETATM   17  C14 UNK     1      18.575   3.825  31.000  1.00  0.00    -0.036 A 
HETATM   18  C15 UNK     1      19.098   4.662  30.028  1.00  0.00     0.011 A 
HETATM   19  C17 UNK     1      18.997   6.043  30.191  1.00  0.00     0.001 A 
HETATM   20  C19 UNK     1      18.375   6.568  31.323  1.00  0.00     0.000 A 
HETATM   21  C18 UNK     1      17.854   5.712  32.293  1.00  0.00     0.001 A 
HETATM   22  C16 UNK     1      17.954   4.331  32.130  1.00  0.00     0.011 A 
ENDBRANCH  16  17
ENDBRANCH  13  15
ENDBRANCH  10  13
TORSDOF 3
ENDMDL
MODEL 10
REMARK VINA RESULT:      -8.3     22.457     24.999
REMARK  3 active torsions:
REMARK  status: ('A' for Active; 'I' for Inactive)
REMARK    1  A    between atoms: C11_14  and  C8_11 
REMARK    2  A    between atoms: C11_14  and  C12_15 
REMARK    3  A    between atoms: C13_16  and  C14_17 
ROOT
HETATM    1  O1  UNK     1      15.098  10.465   9.058  1.00  0.00    -0.348 OA
HETATM    2  O2  UNK     1      17.975  10.147   9.731  1.00  0.00    -0.348 OA
HETATM    3  C1  UNK     1      16.117  12.649   9.102  1.00  0.00     0.029 C 
HETATM    4  C2  UNK     1      17.619  12.398   8.950  1.00  0.00     0.029 C 
HETATM    5  C3  UNK     1      15.377  11.585   9.903  1.00  0.00     0.176 C 
HETATM    6  C4  UNK     1      17.986  10.971   8.563  1.00  0.00     0.176 C 
HETATM    7  C5  UNK     1      15.696   9.292   9.421  1.00  0.00     0.102 A 
HETATM    8  C6  UNK     1      17.051   9.141   9.730  1.00  0.00     0.102 A 
HETATM    9  C7  UNK     1      14.858   8.171   9.423  1.00  0.00     0.055 A 
HETATM   10  C8  UNK     1      15.351   6.919   9.790  1.00  0.00     0.017 A 
HETATM   11  C9  UNK     1      17.534   7.887  10.125  1.00  0.00     0.040 A 
HETATM   12  C10 UNK     1      16.688   6.779  10.151  1.00  0.00     0.018 A 
ENDROOT
BRANCH  10  13
HETATM   13  C11 UNK     1      14.468   5.764   9.805  1.00  0.00     0.182 C 
HETATM   14  O3  UNK     1      14.847   4.633  10.139  1.00  0.00    -0.288 OA
BRANCH  13  15
HETATM   15  C12 UNK     1      13.040   5.936   9.360  1.00  0.00     0.056 C 
HETATM   16  C13 UNK     1      12.698   5.774   8.073  1.00  0.00     0.015 C 
BRANCH  16  17
HETATM   17  C14 UNK     1      11.331   5.938   7.546  1.00  0.00    -0.036 A 
HETATM   18  C15 UNK     1      10.258   5.922   8.423  1.00  0.00     0.011 A 
HETATM   19  C17 UNK     1       8.966   6.077   7.923  1.00  0.00     0.001 A 
HETATM   20  C19 UNK     1       8.764   6.246   6.554  1.00  0.00     0.000 A 
HETATM   21  C18 UNK     1       9.853   6.261   5.683  1.00  0.00     0.001 A 
HETATM   22  C16 UNK     1      11.146   6.106   6.183  1.00  0.00     0.011 A 
ENDBRANCH  16  17
ENDBRANCH  13  15
ENDBRANCH  10  13
TORSDOF 3
ENDMDL
