MODEL 1
REMARK VINA RESULT:      -9.5      0.000      0.000
REMARK  4 active torsions:
REMARK  status: ('A' for Active; 'I' for Inactive)
REMARK       I    between atoms: C10_22  and  N1_9 
REMARK    1  A    between atoms: C4_16  and  N1_9 
REMARK    2  A    between atoms: C11_23  and  N4_12 
REMARK    3  A    between atoms: C12_24  and  C3_15 
REMARK    4  A    between atoms: C10_22  and  C8_20 
ROOT
HETATM    1  O1  UNK     1      18.993  -3.020  11.539  1.00  0.00    -0.275 OA
HETATM    2  O3  UNK     1      18.809  -3.715   9.368  1.00  0.00    -0.260 OA
HETATM    3  C1  UNK     1      19.061  -4.684  13.326  1.00  0.00     0.013 A 
HETATM    4  C2  UNK     1      19.080  -3.353  12.906  1.00  0.00     0.092 A 
HETATM    5  C3  UNK     1      18.948  -5.741  12.312  1.00  0.00     0.066 A 
HETATM    6  C4  UNK     1      19.274  -2.556  15.165  1.00  0.00     0.037 A 
HETATM    7  C5  UNK     1      19.185  -2.289  13.803  1.00  0.00     0.067 A 
HETATM    8  C6  UNK     1      19.152  -4.932  14.702  1.00  0.00     0.017 A 
HETATM    9  C7  UNK     1      19.257  -3.876  15.614  1.00  0.00     0.030 A 
HETATM   10  C9  UNK     1      18.866  -5.394  11.019  1.00  0.00     0.099 A 
HETATM   11  C14 UNK     1      18.886  -3.995  10.560  1.00  0.00     0.289 A 
ENDROOT
BRANCH   6  12
HETATM   12  N1  UNK     1      19.381  -1.508  16.080  1.00  0.00    -0.321 N 
HETATM   13  C10 UNK     1      18.402  -1.031  16.962  1.00  0.00     0.279 C 
HETATM   14  O2  UNK     1      17.258  -1.454  17.090  1.00  0.00    -0.265 OA
HETATM   15  H4  UNK     1      20.282  -1.037  16.100  1.00  0.00     0.169 HD
BRANCH  13  16
HETATM   16  C8  UNK     1      18.810   0.127  17.800  1.00  0.00     0.179 A 
HETATM   17  C11 UNK     1      19.213   1.362  17.340  1.00  0.00     0.155 A 
HETATM   18  C13 UNK     1      19.474   2.049  18.500  1.00  0.00     0.150 A 
HETATM   19  N2  UNK     1      19.208   1.179  19.516  1.00  0.00    -0.282 N 
HETATM   20  C15 UNK     1      19.337   1.447  20.929  1.00  0.00     0.179 C 
HETATM   21  N3  UNK     1      18.792  -0.029  19.101  1.00  0.00    -0.165 NA
BRANCH  17  22
HETATM   22  N4  UNK     1      19.349   1.871  16.038  1.00  0.00    -0.112 N 
HETATM   23  O4  UNK     1      19.832   1.135  15.135  1.00  0.00    -0.532 OA
HETATM   24  O5  UNK     1      18.986   3.053  15.796  1.00  0.00    -0.532 OA
ENDBRANCH  17  22
ENDBRANCH  13  16
ENDBRANCH   6  12
BRANCH   5  25
HETATM   25  C12 UNK     1      18.925  -7.182  12.731  1.00  0.00     0.418 C 
HETATM   26  F1  UNK     1      20.116  -7.549  13.244  1.00  0.00    -0.166 F 
HETATM   27  F2  UNK     1      17.984  -7.395  13.671  1.00  0.00    -0.166 F 
HETATM   28  F3  UNK     1      18.657  -7.986  11.685  1.00  0.00    -0.166 F 
ENDBRANCH   5  25
TORSDOF 4
ENDMDL
MODEL 2
REMARK VINA RESULT:      -9.5      1.934      2.549
REMARK  4 active torsions:
REMARK  status: ('A' for Active; 'I' for Inactive)
REMARK       I    between atoms: C10_22  and  N1_9 
REMARK    1  A    between atoms: C4_16  and  N1_9 
REMARK    2  A    between atoms: C11_23  and  N4_12 
REMARK    3  A    between atoms: C12_24  and  C3_15 
REMARK    4  A    between atoms: C10_22  and  C8_20 
ROOT
HETATM    1  O1  UNK     1      21.318  -6.074  14.659  1.00  0.00    -0.275 OA
HETATM    2  O3  UNK     1      22.137  -8.116  14.033  1.00  0.00    -0.260 OA
HETATM    3  C1  UNK     1      19.626  -4.989  13.272  1.00  0.00     0.013 A 
HETATM    4  C2  UNK     1      20.452  -4.994  14.397  1.00  0.00     0.092 A 
HETATM    5  C3  UNK     1      19.675  -6.138  12.357  1.00  0.00     0.066 A 
HETATM    6  C4  UNK     1      19.632  -2.850  15.110  1.00  0.00     0.037 A 
HETATM    7  C5  UNK     1      20.467  -3.944  15.316  1.00  0.00     0.067 A 
HETATM    8  C6  UNK     1      18.792  -3.878  13.082  1.00  0.00     0.017 A 
HETATM    9  C7  UNK     1      18.797  -2.818  13.995  1.00  0.00     0.030 A 
HETATM   10  C9  UNK     1      20.510  -7.150  12.631  1.00  0.00     0.099 A 
HETATM   11  C14 UNK     1      21.387  -7.171  13.815  1.00  0.00     0.289 A 
ENDROOT
BRANCH   6  12
HETATM   12  N1  UNK     1      19.630  -1.789  16.016  1.00  0.00    -0.321 N 
HETATM   13  C10 UNK     1      18.564  -1.329  16.802  1.00  0.00     0.279 C 
HETATM   14  O2  UNK     1      17.425  -1.782  16.836  1.00  0.00    -0.265 OA
HETATM   15  H4  UNK     1      20.513  -1.293  16.109  1.00  0.00     0.169 HD
BRANCH  13  16
HETATM   16  C8  UNK     1      18.867  -0.151  17.656  1.00  0.00     0.179 A 
HETATM   17  C11 UNK     1      19.198   1.112  17.214  1.00  0.00     0.155 A 
HETATM   18  C13 UNK     1      19.375   1.808  18.385  1.00  0.00     0.150 A 
HETATM   19  N2  UNK     1      19.139   0.916  19.389  1.00  0.00    -0.282 N 
HETATM   20  C15 UNK     1      19.205   1.184  20.806  1.00  0.00     0.179 C 
HETATM   21  N3  UNK     1      18.819  -0.316  18.956  1.00  0.00    -0.165 NA
BRANCH  17  22
HETATM   22  N4  UNK     1      19.340   1.636  15.919  1.00  0.00    -0.112 N 
HETATM   23  O4  UNK     1      19.125   2.864  15.723  1.00  0.00    -0.532 OA
HETATM   24  O5  UNK     1      19.679   0.872  14.977  1.00  0.00    -0.532 OA
ENDBRANCH  17  22
ENDBRANCH  13  16
ENDBRANCH   6  12
BRANCH   5  25
HETATM   25  C12 UNK     1      18.799  -6.163  11.138  1.00  0.00     0.418 C 
HETATM   26  F1  UNK     1      19.278  -7.030  10.224  1.00  0.00    -0.166 F 
HETATM   27  F2  UNK     1      17.546  -6.542  11.454  1.00  0.00    -0.166 F 
HETATM   28  F3  UNK     1      18.734  -4.947  10.564  1.00  0.00    -0.166 F 
ENDBRANCH   5  25
TORSDOF 4
ENDMDL
MODEL 3
REMARK VINA RESULT:      -9.3     16.403     20.593
REMARK  4 active torsions:
REMARK  status: ('A' for Active; 'I' for Inactive)
REMARK       I    between atoms: C10_22  and  N1_9 
REMARK    1  A    between atoms: C4_16  and  N1_9 
REMARK    2  A    between atoms: C11_23  and  N4_12 
REMARK    3  A    between atoms: C12_24  and  C3_15 
REMARK    4  A    between atoms: C10_22  and  C8_20 
ROOT
HETATM    1  O1  UNK     1      20.262   7.984  33.710  1.00  0.00    -0.275 OA
HETATM    2  O3  UNK     1      20.978   9.875  34.779  1.00  0.00    -0.260 OA
HETATM    3  C1  UNK     1      17.881   7.706  33.241  1.00  0.00     0.013 A 
HETATM    4  C2  UNK     1      19.193   7.234  33.179  1.00  0.00     0.092 A 
HETATM    5  C3  UNK     1      17.629   9.007  33.874  1.00  0.00     0.066 A 
HETATM    6  C4  UNK     1      18.506   5.225  32.052  1.00  0.00     0.037 A 
HETATM    7  C5  UNK     1      19.520   6.010  32.595  1.00  0.00     0.067 A 
HETATM    8  C6  UNK     1      16.875   6.901  32.689  1.00  0.00     0.017 A 
HETATM    9  C7  UNK     1      17.186   5.670  32.101  1.00  0.00     0.030 A 
HETATM   10  C9  UNK     1      18.665   9.698  34.372  1.00  0.00     0.099 A 
HETATM   11  C14 UNK     1      20.056   9.215  34.314  1.00  0.00     0.289 A 
ENDROOT
BRANCH   6  12
HETATM   12  N1  UNK     1      18.809   3.998  31.463  1.00  0.00    -0.321 N 
HETATM   13  C10 UNK     1      18.374   2.724  31.852  1.00  0.00     0.279 C 
HETATM   14  O2  UNK     1      17.638   2.454  32.794  1.00  0.00    -0.265 OA
HETATM   15  H4  UNK     1      19.424   4.043  30.653  1.00  0.00     0.169 HD
BRANCH  13  16
HETATM   16  C8  UNK     1      18.895   1.597  31.034  1.00  0.00     0.179 A 
HETATM   17  C11 UNK     1      18.829   1.488  29.662  1.00  0.00     0.155 A 
HETATM   18  C13 UNK     1      19.441   0.282  29.422  1.00  0.00     0.150 A 
HETATM   19  N2  UNK     1      19.804  -0.202  30.644  1.00  0.00    -0.282 N 
HETATM   20  C15 UNK     1      20.481  -1.450  30.904  1.00  0.00     0.179 C 
HETATM   21  N3  UNK     1      19.472   0.604  31.667  1.00  0.00    -0.165 NA
BRANCH  17  22
HETATM   22  N4  UNK     1      18.293   2.344  28.686  1.00  0.00    -0.112 N 
HETATM   23  O4  UNK     1      17.588   1.859  27.759  1.00  0.00    -0.532 OA
HETATM   24  O5  UNK     1      18.525   3.581  28.754  1.00  0.00    -0.532 OA
ENDBRANCH  17  22
ENDBRANCH  13  16
ENDBRANCH   6  12
BRANCH   5  25
HETATM   25  C12 UNK     1      16.229   9.542  33.957  1.00  0.00     0.418 C 
HETATM   26  F1  UNK     1      16.216  10.756  34.541  1.00  0.00    -0.166 F 
HETATM   27  F2  UNK     1      15.688   9.665  32.730  1.00  0.00    -0.166 F 
HETATM   28  F3  UNK     1      15.441   8.723  34.679  1.00  0.00    -0.166 F 
ENDBRANCH   5  25
TORSDOF 4
ENDMDL
MODEL 4
REMARK VINA RESULT:      -9.2     20.487     22.064
REMARK  4 active torsions:
REMARK  status: ('A' for Active; 'I' for Inactive)
REMARK       I    between atoms: C10_22  and  N1_9 
REMARK    1  A    between atoms: C4_16  and  N1_9 
REMARK    2  A    between atoms: C11_23  and  N4_12 
REMARK    3  A    between atoms: C12_24  and  C3_15 
REMARK    4  A    between atoms: C10_22  and  C8_20 
ROOT
HETATM    1  O1  UNK     1      21.053  -8.388  34.859  1.00  0.00    -0.275 OA
HETATM    2  O3  UNK     1      22.047 -10.335  34.185  1.00  0.00    -0.260 OA
HETATM    3  C1  UNK     1      19.862  -8.329  36.990  1.00  0.00     0.013 A 
HETATM    4  C2  UNK     1      20.299  -7.695  35.826  1.00  0.00     0.092 A 
HETATM    5  C3  UNK     1      20.203  -9.744  37.191  1.00  0.00     0.066 A 
HETATM    6  C4  UNK     1      19.278  -5.618  36.476  1.00  0.00     0.037 A 
HETATM    7  C5  UNK     1      20.018  -6.354  35.557  1.00  0.00     0.067 A 
HETATM    8  C6  UNK     1      19.117  -7.571  37.903  1.00  0.00     0.017 A 
HETATM    9  C7  UNK     1      18.827  -6.226  37.647  1.00  0.00     0.030 A 
HETATM   10  C9  UNK     1      20.921 -10.378  36.254  1.00  0.00     0.099 A 
HETATM   11  C14 UNK     1      21.391  -9.722  35.021  1.00  0.00     0.289 A 
ENDROOT
BRANCH   6  12
HETATM   12  N1  UNK     1      18.986  -4.277  36.228  1.00  0.00    -0.321 N 
HETATM   13  C10 UNK     1      19.562  -3.145  36.823  1.00  0.00     0.279 C 
HETATM   14  O2  UNK     1      20.438  -3.130  37.680  1.00  0.00    -0.265 OA
HETATM   15  H4  UNK     1      18.265  -4.108  35.531  1.00  0.00     0.169 HD
BRANCH  13  16
HETATM   16  C8  UNK     1      19.017  -1.840  36.366  1.00  0.00     0.179 A 
HETATM   17  C11 UNK     1      19.119  -1.315  35.096  1.00  0.00     0.155 A 
HETATM   18  C13 UNK     1      18.462  -0.114  35.209  1.00  0.00     0.150 A 
HETATM   19  N2  UNK     1      18.040  -0.040  36.504  1.00  0.00    -0.282 N 
HETATM   20  C15 UNK     1      17.301   1.046  37.103  1.00  0.00     0.179 C 
HETATM   21  N3  UNK     1      18.377  -1.108  37.246  1.00  0.00    -0.165 NA
BRANCH  17  22
HETATM   22  N4  UNK     1      19.723  -1.812  33.929  1.00  0.00    -0.112 N 
HETATM   23  O4  UNK     1      19.446  -1.284  32.818  1.00  0.00    -0.532 OA
HETATM   24  O5  UNK     1      20.530  -2.776  34.014  1.00  0.00    -0.532 OA
ENDBRANCH  17  22
ENDBRANCH  13  16
ENDBRANCH   6  12
BRANCH   5  25
HETATM   25  C12 UNK     1      19.747 -10.455  38.432  1.00  0.00     0.418 C 
HETATM   26  F1  UNK     1      19.894 -11.788  38.300  1.00  0.00    -0.166 F 
HETATM   27  F2  UNK     1      20.465 -10.062  39.503  1.00  0.00    -0.166 F 
HETATM   28  F3  UNK     1      18.449 -10.202  38.686  1.00  0.00    -0.166 F 
ENDBRANCH   5  25
TORSDOF 4
ENDMDL
MODEL 5
REMARK VINA RESULT:      -9.2     16.219     18.585
REMARK  4 active torsions:
REMARK  status: ('A' for Active; 'I' for Inactive)
REMARK       I    between atoms: C10_22  and  N1_9 
REMARK    1  A    between atoms: C4_16  and  N1_9 
REMARK    2  A    between atoms: C11_23  and  N4_12 
REMARK    3  A    between atoms: C12_24  and  C3_15 
REMARK    4  A    between atoms: C10_22  and  C8_20 
ROOT
HETATM    1  O1  UNK     1      18.649   0.481  33.178  1.00  0.00    -0.275 OA
HETATM    2  O3  UNK     1      19.057  -1.714  33.674  1.00  0.00    -0.260 OA
HETATM    3  C1  UNK     1      19.024   1.282  30.901  1.00  0.00     0.013 A 
HETATM    4  C2  UNK     1      18.637   1.516  32.222  1.00  0.00     0.092 A 
HETATM    5  C3  UNK     1      19.448  -0.072  30.521  1.00  0.00     0.066 A 
HETATM    6  C4  UNK     1      18.188   3.833  31.766  1.00  0.00     0.037 A 
HETATM    7  C5  UNK     1      18.221   2.772  32.666  1.00  0.00     0.067 A 
HETATM    8  C6  UNK     1      18.985   2.363  30.011  1.00  0.00     0.017 A 
HETATM    9  C7  UNK     1      18.570   3.629  30.441  1.00  0.00     0.030 A 
HETATM   10  C9  UNK     1      19.450  -1.037  31.453  1.00  0.00     0.099 A 
HETATM   11  C14 UNK     1      19.043  -0.806  32.850  1.00  0.00     0.289 A 
ENDROOT
BRANCH   6  12
HETATM   12  N1  UNK     1      17.775   5.097  32.187  1.00  0.00    -0.321 N 
HETATM   13  C10 UNK     1      18.531   6.276  32.246  1.00  0.00     0.279 C 
HETATM   14  O2  UNK     1      19.709   6.411  31.934  1.00  0.00    -0.265 OA
HETATM   15  H4  UNK     1      16.805   5.161  32.489  1.00  0.00     0.169 HD
BRANCH  13  16
HETATM   16  C8  UNK     1      17.812   7.467  32.771  1.00  0.00     0.179 A 
HETATM   17  C11 UNK     1      18.242   8.298  33.782  1.00  0.00     0.155 A 
HETATM   18  C13 UNK     1      17.228   9.219  33.872  1.00  0.00     0.150 A 
HETATM   19  N2  UNK     1      16.311   8.858  32.929  1.00  0.00    -0.282 N 
HETATM   20  C15 UNK     1      15.064   9.528  32.646  1.00  0.00     0.179 C 
HETATM   21  N3  UNK     1      16.656   7.765  32.228  1.00  0.00    -0.165 NA
BRANCH  17  22
HETATM   22  N4  UNK     1      19.405   8.279  34.569  1.00  0.00    -0.112 N 
HETATM   23  O4  UNK     1      20.410   8.948  34.202  1.00  0.00    -0.532 OA
HETATM   24  O5  UNK     1      19.424   7.597  35.628  1.00  0.00    -0.532 OA
ENDBRANCH  17  22
ENDBRANCH  13  16
ENDBRANCH   6  12
BRANCH   5  25
HETATM   25  C12 UNK     1      19.871  -0.357  29.110  1.00  0.00     0.418 C 
HETATM   26  F1  UNK     1      19.026   0.220  28.233  1.00  0.00    -0.166 F 
HETATM   27  F2  UNK     1      21.108   0.121  28.872  1.00  0.00    -0.166 F 
HETATM   28  F3  UNK     1      19.884  -1.681  28.866  1.00  0.00    -0.166 F 
ENDBRANCH   5  25
TORSDOF 4
ENDMDL
MODEL 6
REMARK VINA RESULT:      -9.2     19.987     21.883
REMARK  4 active torsions:
REMARK  status: ('A' for Active; 'I' for Inactive)
REMARK       I    between atoms: C10_22  and  N1_9 
REMARK    1  A    between atoms: C4_16  and  N1_9 
REMARK    2  A    between atoms: C11_23  and  N4_12 
REMARK    3  A    between atoms: C12_24  and  C3_15 
REMARK    4  A    between atoms: C10_22  and  C8_20 
ROOT
HETATM    1  O1  UNK     1      20.621  -7.614  35.213  1.00  0.00    -0.275 OA
HETATM    2  O3  UNK     1      21.413  -9.704  34.727  1.00  0.00    -0.260 OA
HETATM    3  C1  UNK     1      21.355  -6.504  37.261  1.00  0.00     0.013 A 
HETATM    4  C2  UNK     1      20.600  -6.509  36.087  1.00  0.00     0.092 A 
HETATM    5  C3  UNK     1      22.178  -7.680  37.575  1.00  0.00     0.066 A 
HETATM    6  C4  UNK     1      19.732  -4.313  36.538  1.00  0.00     0.037 A 
HETATM    7  C5  UNK     1      19.792  -5.433  35.715  1.00  0.00     0.067 A 
HETATM    8  C6  UNK     1      21.279  -5.367  38.077  1.00  0.00     0.017 A 
HETATM    9  C7  UNK     1      20.474  -4.281  37.718  1.00  0.00     0.030 A 
HETATM   10  C9  UNK     1      22.177  -8.717  36.725  1.00  0.00     0.099 A 
HETATM   11  C14 UNK     1      21.388  -8.737  35.481  1.00  0.00     0.289 A 
ENDROOT
BRANCH   6  12
HETATM   12  N1  UNK     1      18.932  -3.226  36.186  1.00  0.00    -0.321 N 
HETATM   13  C10 UNK     1      19.340  -1.976  35.700  1.00  0.00     0.279 C 
HETATM   14  O2  UNK     1      20.491  -1.608  35.495  1.00  0.00    -0.265 OA
HETATM   15  H4  UNK     1      17.930  -3.366  36.301  1.00  0.00     0.169 HD
BRANCH  13  16
HETATM   16  C8  UNK     1      18.245  -1.006  35.439  1.00  0.00     0.179 A 
HETATM   17  C11 UNK     1      17.976  -0.386  34.239  1.00  0.00     0.155 A 
HETATM   18  C13 UNK     1      16.886   0.395  34.537  1.00  0.00     0.150 A 
HETATM   19  N2  UNK     1      16.615   0.170  35.855  1.00  0.00    -0.282 N 
HETATM   20  C15 UNK     1      15.553   0.772  36.625  1.00  0.00     0.179 C 
HETATM   21  N3  UNK     1      17.453  -0.702  36.440  1.00  0.00    -0.165 NA
BRANCH  17  22
HETATM   22  N4  UNK     1      18.604  -0.472  32.986  1.00  0.00    -0.112 N 
HETATM   23  O4  UNK     1      18.806  -1.607  32.473  1.00  0.00    -0.532 OA
HETATM   24  O5  UNK     1      18.953   0.585  32.395  1.00  0.00    -0.532 OA
ENDBRANCH  17  22
ENDBRANCH  13  16
ENDBRANCH   6  12
BRANCH   5  25
HETATM   25  C12 UNK     1      23.000  -7.706  38.830  1.00  0.00     0.418 C 
HETATM   26  F1  UNK     1      23.992  -8.613  38.732  1.00  0.00    -0.166 F 
HETATM   27  F2  UNK     1      23.559  -6.503  39.065  1.00  0.00    -0.166 F 
HETATM   28  F3  UNK     1      22.244  -8.029  39.897  1.00  0.00    -0.166 F 
ENDBRANCH   5  25
TORSDOF 4
ENDMDL
MODEL 7
REMARK VINA RESULT:      -9.1     20.326     22.769
REMARK  4 active torsions:
REMARK  status: ('A' for Active; 'I' for Inactive)
REMARK       I    between atoms: C10_22  and  N1_9 
REMARK    1  A    between atoms: C4_16  and  N1_9 
REMARK    2  A    between atoms: C11_23  and  N4_12 
REMARK    3  A    between atoms: C12_24  and  C3_15 
REMARK    4  A    between atoms: C10_22  and  C8_20 
ROOT
HETATM    1  O1  UNK     1      19.058  -0.617  33.836  1.00  0.00    -0.275 OA
HETATM    2  O3  UNK     1      18.469   1.254  32.660  1.00  0.00    -0.260 OA
HETATM    3  C1  UNK     1      18.441  -0.791  36.193  1.00  0.00     0.013 A 
HETATM    4  C2  UNK     1      19.050  -1.323  35.055  1.00  0.00     0.092 A 
HETATM    5  C3  UNK     1      17.805   0.530  36.098  1.00  0.00     0.066 A 
HETATM    6  C4  UNK     1      19.698  -3.315  36.234  1.00  0.00     0.037 A 
HETATM    7  C5  UNK     1      19.676  -2.571  35.059  1.00  0.00     0.067 A 
HETATM    8  C6  UNK     1      18.475  -1.556  37.366  1.00  0.00     0.017 A 
HETATM    9  C7  UNK     1      19.100  -2.808  37.386  1.00  0.00     0.030 A 
HETATM   10  C9  UNK     1      17.830   1.180  34.926  1.00  0.00     0.099 A 
HETATM   11  C14 UNK     1      18.467   0.631  33.716  1.00  0.00     0.289 A 
ENDROOT
BRANCH   6  12
HETATM   12  N1  UNK     1      20.318  -4.565  36.260  1.00  0.00    -0.321 N 
HETATM   13  C10 UNK     1      19.715  -5.823  36.393  1.00  0.00     0.279 C 
HETATM   14  O2  UNK     1      18.517  -6.056  36.513  1.00  0.00    -0.265 OA
HETATM   15  H4  UNK     1      21.332  -4.552  36.175  1.00  0.00     0.169 HD
BRANCH  13  16
HETATM   16  C8  UNK     1      20.651  -6.978  36.415  1.00  0.00     0.179 A 
HETATM   17  C11 UNK     1      21.643  -7.204  37.345  1.00  0.00     0.155 A 
HETATM   18  C13 UNK     1      22.203  -8.381  36.913  1.00  0.00     0.150 A 
HETATM   19  N2  UNK     1      21.508  -8.736  35.794  1.00  0.00    -0.282 N 
HETATM   20  C15 UNK     1      21.734  -9.908  34.981  1.00  0.00     0.179 C 
HETATM   21  N3  UNK     1      20.533  -7.873  35.464  1.00  0.00    -0.165 NA
BRANCH  17  22
HETATM   22  N4  UNK     1      22.044  -6.471  38.473  1.00  0.00    -0.112 N 
HETATM   23  O4  UNK     1      21.833  -6.943  39.624  1.00  0.00    -0.532 OA
HETATM   24  O5  UNK     1      22.610  -5.356  38.317  1.00  0.00    -0.532 OA
ENDBRANCH  17  22
ENDBRANCH  13  16
ENDBRANCH   6  12
BRANCH   5  25
HETATM   25  C12 UNK     1      17.143   1.131  37.304  1.00  0.00     0.418 C 
HETATM   26  F1  UNK     1      16.844   2.427  37.088  1.00  0.00    -0.166 F 
HETATM   27  F2  UNK     1      15.999   0.484  37.597  1.00  0.00    -0.166 F 
HETATM   28  F3  UNK     1      17.947   1.063  38.382  1.00  0.00    -0.166 F 
ENDBRANCH   5  25
TORSDOF 4
ENDMDL
MODEL 8
REMARK VINA RESULT:      -9.1     19.593     21.865
REMARK  4 active torsions:
REMARK  status: ('A' for Active; 'I' for Inactive)
REMARK       I    between atoms: C10_22  and  N1_9 
REMARK    1  A    between atoms: C4_16  and  N1_9 
REMARK    2  A    between atoms: C11_23  and  N4_12 
REMARK    3  A    between atoms: C12_24  and  C3_15 
REMARK    4  A    between atoms: C10_22  and  C8_20 
ROOT
HETATM    1  O1  UNK     1      22.443  -6.226  38.427  1.00  0.00    -0.275 OA
HETATM    2  O3  UNK     1      23.986  -7.549  39.475  1.00  0.00    -0.260 OA
HETATM    3  C1  UNK     1      20.952  -7.215  36.764  1.00  0.00     0.013 A 
HETATM    4  C2  UNK     1      21.396  -6.110  37.491  1.00  0.00     0.092 A 
HETATM    5  C3  UNK     1      21.601  -8.514  36.991  1.00  0.00     0.066 A 
HETATM    6  C4  UNK     1      19.796  -4.665  36.428  1.00  0.00     0.037 A 
HETATM    7  C5  UNK     1      20.834  -4.841  37.337  1.00  0.00     0.067 A 
HETATM    8  C6  UNK     1      19.906  -7.017  35.853  1.00  0.00     0.017 A 
HETATM    9  C7  UNK     1      19.334  -5.751  35.687  1.00  0.00     0.030 A 
HETATM   10  C9  UNK     1      22.596  -8.594  37.887  1.00  0.00     0.099 A 
HETATM   11  C14 UNK     1      23.074  -7.437  38.663  1.00  0.00     0.289 A 
ENDROOT
BRANCH   6  12
HETATM   12  N1  UNK     1      19.219  -3.406  36.258  1.00  0.00    -0.321 N 
HETATM   13  C10 UNK     1      19.754  -2.295  35.591  1.00  0.00     0.279 C 
HETATM   14  O2  UNK     1      20.842  -2.229  35.028  1.00  0.00    -0.265 OA
HETATM   15  H4  UNK     1      18.299  -3.288  36.675  1.00  0.00     0.169 HD
BRANCH  13  16
HETATM   16  C8  UNK     1      18.905  -1.076  35.603  1.00  0.00     0.179 A 
HETATM   17  C11 UNK     1      18.418  -0.411  34.499  1.00  0.00     0.155 A 
HETATM   18  C13 UNK     1      17.710   0.626  35.054  1.00  0.00     0.150 A 
HETATM   19  N2  UNK     1      17.839   0.484  36.405  1.00  0.00    -0.282 N 
HETATM   20  C15 UNK     1      17.266   1.343  37.414  1.00  0.00     0.179 C 
HETATM   21  N3  UNK     1      18.582  -0.573  36.771  1.00  0.00    -0.165 NA
BRANCH  17  22
HETATM   22  N4  UNK     1      18.562  -0.662  33.124  1.00  0.00    -0.112 N 
HETATM   23  O4  UNK     1      17.715  -1.390  32.538  1.00  0.00    -0.532 OA
HETATM   24  O5  UNK     1      19.532  -0.155  32.502  1.00  0.00    -0.532 OA
ENDBRANCH  17  22
ENDBRANCH  13  16
ENDBRANCH   6  12
BRANCH   5  25
HETATM   25  C12 UNK     1      21.149  -9.722  36.224  1.00  0.00     0.418 C 
HETATM   26  F1  UNK     1      21.818 -10.820  36.625  1.00  0.00    -0.166 F 
HETATM   27  F2  UNK     1      19.833  -9.946  36.412  1.00  0.00    -0.166 F 
HETATM   28  F3  UNK     1      21.359  -9.564  34.904  1.00  0.00    -0.166 F 
ENDBRANCH   5  25
TORSDOF 4
ENDMDL
MODEL 9
REMARK VINA RESULT:      -9.0     19.488     22.811
REMARK  4 active torsions:
REMARK  status: ('A' for Active; 'I' for Inactive)
REMARK       I    between atoms: C10_22  and  N1_9 
REMARK    1  A    between atoms: C4_16  and  N1_9 
REMARK    2  A    between atoms: C11_23  and  N4_12 
REMARK    3  A    between atoms: C12_24  and  C3_15 
REMARK    4  A    between atoms: C10_22  and  C8_20 
ROOT
HETATM    1  O1  UNK     1      19.235  -8.489  37.081  1.00  0.00    -0.275 OA
HETATM    2  O3  UNK     1      19.072 -10.709  37.607  1.00  0.00    -0.260 OA
HETATM    3  C1  UNK     1      20.937  -7.122  38.177  1.00  0.00     0.013 A 
HETATM    4  C2  UNK     1      19.878  -7.250  37.277  1.00  0.00     0.092 A 
HETATM    5  C3  UNK     1      21.374  -8.310  38.924  1.00  0.00     0.066 A 
HETATM    6  C4  UNK     1      19.997  -4.926  36.679  1.00  0.00     0.037 A 
HETATM    7  C5  UNK     1      19.401  -6.174  36.528  1.00  0.00     0.067 A 
HETATM    8  C6  UNK     1      21.523  -5.857  38.315  1.00  0.00     0.017 A 
HETATM    9  C7  UNK     1      21.056  -4.768  37.571  1.00  0.00     0.030 A 
HETATM   10  C9  UNK     1      20.743  -9.475  38.718  1.00  0.00     0.099 A 
HETATM   11  C14 UNK     1      19.625  -9.626  37.770  1.00  0.00     0.289 A 
ENDROOT
BRANCH   6  12
HETATM   12  N1  UNK     1      19.538  -3.835  35.940  1.00  0.00    -0.321 N 
HETATM   13  C10 UNK     1      20.278  -2.748  35.456  1.00  0.00     0.279 C 
HETATM   14  O2  UNK     1      21.480  -2.555  35.598  1.00  0.00    -0.265 OA
HETATM   15  H4  UNK     1      18.541  -3.837  35.733  1.00  0.00     0.169 HD
BRANCH  13  16
HETATM   16  C8  UNK     1      19.494  -1.721  34.720  1.00  0.00     0.179 A 
HETATM   17  C11 UNK     1      18.499  -0.926  35.246  1.00  0.00     0.155 A 
HETATM   18  C13 UNK     1      18.110  -0.171  34.166  1.00  0.00     0.150 A 
HETATM   19  N2  UNK     1      18.891  -0.579  33.125  1.00  0.00    -0.282 N 
HETATM   20  C15 UNK     1      18.849  -0.074  31.774  1.00  0.00     0.179 C 
HETATM   21  N3  UNK     1      19.764  -1.548  33.449  1.00  0.00    -0.165 NA
BRANCH  17  22
HETATM   22  N4  UNK     1      17.960  -0.843  36.540  1.00  0.00    -0.112 N 
HETATM   23  O4  UNK     1      17.960   0.267  37.139  1.00  0.00    -0.532 OA
HETATM   24  O5  UNK     1      17.486  -1.878  37.079  1.00  0.00    -0.532 OA
ENDBRANCH  17  22
ENDBRANCH  13  16
ENDBRANCH   6  12
BRANCH   5  25
HETATM   25  C12 UNK     1      22.509  -8.205  39.900  1.00  0.00     0.418 C 
HETATM   26  F1  UNK     1      22.475  -9.223  40.783  1.00  0.00    -0.166 F 
HETATM   27  F2  UNK     1      23.696  -8.246  39.264  1.00  0.00    -0.166 F 
HETATM   28  F3  UNK     1      22.448  -7.051  40.591  1.00  0.00    -0.166 F 
ENDBRANCH   5  25
TORSDOF 4
ENDMDL
MODEL 10
REMARK VINA RESULT:      -8.9     19.980     21.980
REMARK  4 active torsions:
REMARK  status: ('A' for Active; 'I' for Inactive)
REMARK       I    between atoms: C10_22  and  N1_9 
REMARK    1  A    between atoms: C4_16  and  N1_9 
REMARK    2  A    between atoms: C11_23  and  N4_12 
REMARK    3  A    between atoms: C12_24  and  C3_15 
REMARK    4  A    between atoms: C10_22  and  C8_20 
ROOT
HETATM    1  O1  UNK     1      19.167  -8.815  38.244  1.00  0.00    -0.275 OA
HETATM    2  O3  UNK     1      19.137 -10.825  39.335  1.00  0.00    -0.260 OA
HETATM    3  C1  UNK     1      20.482  -8.583  36.199  1.00  0.00     0.013 A 
HETATM    4  C2  UNK     1      19.630  -8.040  37.162  1.00  0.00     0.092 A 
HETATM    5  C3  UNK     1      20.892  -9.988  36.333  1.00  0.00     0.066 A 
HETATM    6  C4  UNK     1      19.618  -5.902  36.064  1.00  0.00     0.037 A 
HETATM    7  C5  UNK     1      19.193  -6.716  37.110  1.00  0.00     0.067 A 
HETATM    8  C6  UNK     1      20.899  -7.748  35.155  1.00  0.00     0.017 A 
HETATM    9  C7  UNK     1      20.469  -6.417  35.089  1.00  0.00     0.030 A 
HETATM   10  C9  UNK     1      20.435 -10.701  37.373  1.00  0.00     0.099 A 
HETATM   11  C14 UNK     1      19.535 -10.142  38.397  1.00  0.00     0.289 A 
ENDROOT
BRANCH   6  12
HETATM   12  N1  UNK     1      19.193  -4.576  35.991  1.00  0.00    -0.321 N 
HETATM   13  C10 UNK     1      19.668  -3.477  36.721  1.00  0.00     0.279 C 
HETATM   14  O2  UNK     1      20.555  -3.484  37.567  1.00  0.00    -0.265 OA
HETATM   15  H4  UNK     1      18.444  -4.393  35.327  1.00  0.00     0.169 HD
BRANCH  13  16
HETATM   16  C8  UNK     1      18.990  -2.184  36.438  1.00  0.00     0.179 A 
HETATM   17  C11 UNK     1      19.053  -1.474  35.259  1.00  0.00     0.155 A 
HETATM   18  C13 UNK     1      18.267  -0.379  35.521  1.00  0.00     0.150 A 
HETATM   19  N2  UNK     1      17.822  -0.537  36.801  1.00  0.00    -0.282 N 
HETATM   20  C15 UNK     1      16.960   0.367  37.526  1.00  0.00     0.179 C 
HETATM   21  N3  UNK     1      18.262  -1.660  37.393  1.00  0.00    -0.165 NA
BRANCH  17  22
HETATM   22  N4  UNK     1      19.723  -1.731  34.052  1.00  0.00    -0.112 N 
HETATM   23  O4  UNK     1      20.752  -2.460  34.060  1.00  0.00    -0.532 OA
HETATM   24  O5  UNK     1      19.283  -1.231  32.982  1.00  0.00    -0.532 OA
ENDBRANCH  17  22
ENDBRANCH  13  16
ENDBRANCH   6  12
BRANCH   5  25
HETATM   25  C12 UNK     1      21.807 -10.602  35.315  1.00  0.00     0.418 C 
HETATM   26  F1  UNK     1      21.608 -10.053  34.100  1.00  0.00    -0.166 F 
HETATM   27  F2  UNK     1      23.098 -10.411  35.651  1.00  0.00    -0.166 F 
HETATM   28  F3  UNK     1      21.597 -11.928  35.212  1.00  0.00    -0.166 F 
ENDBRANCH   5  25
TORSDOF 4
ENDMDL
