MODEL 1
REMARK VINA RESULT:     -11.1      0.000      0.000
REMARK  4 active torsions:
REMARK  status: ('A' for Active; 'I' for Inactive)
REMARK       I    between atoms: C17_27  and  N1_9 
REMARK    1  A    between atoms: C6_16  and  N1_9 
REMARK    2  A    between atoms: C10_20  and  C3_13 
REMARK    3  A    between atoms: C19_29  and  C9_19 
REMARK    4  A    between atoms: C15_25  and  C17_27 
ROOT
HETATM    1  N2  UNK     1      19.872   6.020  29.558  1.00  0.00    -0.191 NA
HETATM    2  C10 UNK     1      17.747   4.935  32.106  1.00  0.00     0.045 C 
HETATM    3  C15 UNK     1      18.418   4.470  31.035  1.00  0.00     0.113 C 
HETATM    4  C20 UNK     1      19.219   5.328  30.223  1.00  0.00     0.105 C 
ENDROOT
BRANCH   3   5
HETATM    5  C17 UNK     1      18.276   2.993  30.728  1.00  0.00     0.266 C 
HETATM    6  O3  UNK     1      17.169   2.459  30.741  1.00  0.00    -0.267 OA
HETATM    7  N1  UNK     1      19.483   2.364  30.448  1.00  0.00    -0.322 N 
HETATM    8  H6  UNK     1      20.338   2.914  30.471  1.00  0.00     0.169 HD
BRANCH   7   9
HETATM    9  C6  UNK     1      19.690   0.998  30.125  1.00  0.00     0.035 A 
HETATM   10  C11 UNK     1      20.084   0.122  31.120  1.00  0.00     0.045 A 
HETATM   11  C9  UNK     1      20.287  -1.221  30.802  1.00  0.00     0.050 A 
HETATM   12  C16 UNK     1      20.094  -1.665  29.493  1.00  0.00     0.016 A 
HETATM   13  C18 UNK     1      19.696  -0.766  28.504  1.00  0.00     0.003 A 
HETATM   14  C14 UNK     1      19.493   0.577  28.822  1.00  0.00     0.029 A 
BRANCH  11  15
HETATM   15  C19 UNK     1      20.711  -2.183  31.860  1.00  0.00     0.417 C 
HETATM   16  F1  UNK     1      21.843  -1.801  32.524  1.00  0.00    -0.166 F 
HETATM   17  F2  UNK     1      19.773  -2.370  32.835  1.00  0.00    -0.166 F 
HETATM   18  F3  UNK     1      20.978  -3.425  31.365  1.00  0.00    -0.166 F 
ENDBRANCH  11  15
ENDBRANCH   7   9
ENDBRANCH   3   5
BRANCH   2  19
HETATM   19  C3  UNK     1      17.730   6.294  32.584  1.00  0.00     0.039 A 
HETATM   20  C8  UNK     1      18.842   6.892  33.026  1.00  0.00     0.158 A 
HETATM   21  O1  UNK     1      18.937   8.179  33.501  1.00  0.00    -0.319 OA
HETATM   22  C2  UNK     1      17.789   8.931  33.532  1.00  0.00     0.111 A 
HETATM   23  C1  UNK     1      16.553   8.442  33.104  1.00  0.00     0.052 A 
HETATM   24  C7  UNK     1      17.895  10.236  34.016  1.00  0.00     0.070 A 
HETATM   25  C4  UNK     1      16.466   7.061  32.595  1.00  0.00     0.197 A 
HETATM   26  C5  UNK     1      15.417   9.254  33.158  1.00  0.00     0.042 A 
HETATM   27  O2  UNK     1      15.403   6.592  32.210  1.00  0.00    -0.286 OA
HETATM   28  C12 UNK     1      15.527  10.558  33.643  1.00  0.00     0.036 A 
HETATM   29 Cl2  UNK     1      14.132  11.566  33.714  1.00  0.00    -0.084 Cl
HETATM   30  C13 UNK     1      16.762  11.048  34.070  1.00  0.00     0.050 A 
HETATM   31 Cl1  UNK     1      19.402  10.880  34.555  1.00  0.00    -0.081 Cl
ENDBRANCH   2  19
TORSDOF 4
ENDMDL
MODEL 2
REMARK VINA RESULT:     -10.0      6.191      8.467
REMARK  4 active torsions:
REMARK  status: ('A' for Active; 'I' for Inactive)
REMARK       I    between atoms: C17_27  and  N1_9 
REMARK    1  A    between atoms: C6_16  and  N1_9 
REMARK    2  A    between atoms: C10_20  and  C3_13 
REMARK    3  A    between atoms: C19_29  and  C9_19 
REMARK    4  A    between atoms: C15_25  and  C17_27 
ROOT
HETATM    1  N2  UNK     1      21.269  -2.458  33.372  1.00  0.00    -0.191 NA
HETATM    2  C10 UNK     1      18.792  -1.131  35.442  1.00  0.00     0.045 C 
HETATM    3  C15 UNK     1      19.653  -2.164  35.373  1.00  0.00     0.113 C 
HETATM    4  C20 UNK     1      20.543  -2.322  34.268  1.00  0.00     0.105 C 
ENDROOT
BRANCH   3   5
HETATM    5  C17 UNK     1      19.628  -3.153  36.519  1.00  0.00     0.266 C 
HETATM    6  O3  UNK     1      19.465  -2.764  37.673  1.00  0.00    -0.267 OA
HETATM    7  N1  UNK     1      19.803  -4.474  36.119  1.00  0.00    -0.322 N 
HETATM    8  H6  UNK     1      19.931  -4.672  35.130  1.00  0.00     0.169 HD
BRANCH   7   9
HETATM    9  C6  UNK     1      19.829  -5.628  36.942  1.00  0.00     0.035 A 
HETATM   10  C11 UNK     1      20.998  -5.958  37.605  1.00  0.00     0.045 A 
HETATM   11  C9  UNK     1      21.023  -7.094  38.414  1.00  0.00     0.050 A 
HETATM   12  C16 UNK     1      19.880  -7.881  38.547  1.00  0.00     0.016 A 
HETATM   13  C18 UNK     1      18.711  -7.533  37.871  1.00  0.00     0.003 A 
HETATM   14  C14 UNK     1      18.685  -6.397  37.061  1.00  0.00     0.029 A 
BRANCH  11  15
HETATM   15  C19 UNK     1      22.273  -7.466  39.138  1.00  0.00     0.417 C 
HETATM   16  F1  UNK     1      22.891  -6.408  39.743  1.00  0.00    -0.166 F 
HETATM   17  F2  UNK     1      22.075  -8.378  40.136  1.00  0.00    -0.166 F 
HETATM   18  F3  UNK     1      23.212  -8.018  38.317  1.00  0.00    -0.166 F 
ENDBRANCH  11  15
ENDBRANCH   7   9
ENDBRANCH   3   5
BRANCH   2  19
HETATM   19  C3  UNK     1      18.637  -0.076  34.474  1.00  0.00     0.039 A 
HETATM   20  C8  UNK     1      18.573  -0.335  33.163  1.00  0.00     0.158 A 
HETATM   21  O1  UNK     1      18.427   0.593  32.159  1.00  0.00    -0.319 OA
HETATM   22  C2  UNK     1      18.339   1.914  32.522  1.00  0.00     0.111 A 
HETATM   23  C1  UNK     1      18.391   2.337  33.852  1.00  0.00     0.052 A 
HETATM   24  C7  UNK     1      18.190   2.848  31.497  1.00  0.00     0.070 A 
HETATM   25  C4  UNK     1      18.547   1.332  34.919  1.00  0.00     0.197 A 
HETATM   26  C5  UNK     1      18.296   3.696  34.163  1.00  0.00     0.042 A 
HETATM   27  O2  UNK     1      18.597   1.658  36.098  1.00  0.00    -0.286 OA
HETATM   28  C12 UNK     1      18.148   4.628  33.134  1.00  0.00     0.036 A 
HETATM   29 Cl2  UNK     1      18.030   6.305  33.508  1.00  0.00    -0.084 Cl
HETATM   30  C13 UNK     1      18.095   4.206  31.805  1.00  0.00     0.050 A 
HETATM   31 Cl1  UNK     1      18.121   2.369  29.840  1.00  0.00    -0.081 Cl
ENDBRANCH   2  19
TORSDOF 4
ENDMDL
MODEL 3
REMARK VINA RESULT:      -9.6      5.490      7.586
REMARK  4 active torsions:
REMARK  status: ('A' for Active; 'I' for Inactive)
REMARK       I    between atoms: C17_27  and  N1_9 
REMARK    1  A    between atoms: C6_16  and  N1_9 
REMARK    2  A    between atoms: C10_20  and  C3_13 
REMARK    3  A    between atoms: C19_29  and  C9_19 
REMARK    4  A    between atoms: C15_25  and  C17_27 
ROOT
HETATM    1  N2  UNK     1      15.318   0.054  35.408  1.00  0.00    -0.191 NA
HETATM    2  C10 UNK     1      18.725  -0.371  34.782  1.00  0.00     0.045 C 
HETATM    3  C15 UNK     1      17.732  -0.869  35.544  1.00  0.00     0.113 C 
HETATM    4  C20 UNK     1      16.402  -0.357  35.466  1.00  0.00     0.105 C 
ENDROOT
BRANCH   3   5
HETATM    5  C17 UNK     1      18.096  -1.991  36.493  1.00  0.00     0.266 C 
HETATM    6  O3  UNK     1      17.555  -2.075  37.593  1.00  0.00    -0.267 OA
HETATM    7  N1  UNK     1      19.060  -2.857  35.989  1.00  0.00    -0.322 N 
HETATM    8  H6  UNK     1      19.437  -2.682  35.061  1.00  0.00     0.169 HD
BRANCH   7   9
HETATM    9  C6  UNK     1      19.612  -3.998  36.625  1.00  0.00     0.035 A 
HETATM   10  C11 UNK     1      18.981  -5.221  36.482  1.00  0.00     0.045 A 
HETATM   11  C9  UNK     1      19.525  -6.343  37.108  1.00  0.00     0.050 A 
HETATM   12  C16 UNK     1      20.689  -6.223  37.867  1.00  0.00     0.016 A 
HETATM   13  C18 UNK     1      21.311  -4.982  37.999  1.00  0.00     0.003 A 
HETATM   14  C14 UNK     1      20.767  -3.860  37.374  1.00  0.00     0.029 A 
BRANCH  11  15
HETATM   15  C19 UNK     1      18.861  -7.671  36.965  1.00  0.00     0.417 C 
HETATM   16  F1  UNK     1      17.810  -7.667  36.092  1.00  0.00    -0.166 F 
HETATM   17  F2  UNK     1      19.696  -8.653  36.511  1.00  0.00    -0.166 F 
HETATM   18  F3  UNK     1      18.356  -8.136  38.144  1.00  0.00    -0.166 F 
ENDBRANCH  11  15
ENDBRANCH   7   9
ENDBRANCH   3   5
BRANCH   2  19
HETATM   19  C3  UNK     1      18.615   0.692  33.816  1.00  0.00     0.039 A 
HETATM   20  C8  UNK     1      18.649   0.448  32.501  1.00  0.00     0.158 A 
HETATM   21  O1  UNK     1      18.554   1.385  31.500  1.00  0.00    -0.319 OA
HETATM   22  C2  UNK     1      18.411   2.700  31.870  1.00  0.00     0.111 A 
HETATM   23  C1  UNK     1      18.360   3.107  33.205  1.00  0.00     0.052 A 
HETATM   24  C7  UNK     1      18.314   3.643  30.847  1.00  0.00     0.070 A 
HETATM   25  C4  UNK     1      18.463   2.092  34.269  1.00  0.00     0.197 A 
HETATM   26  C5  UNK     1      18.213   4.460  33.523  1.00  0.00     0.042 A 
HETATM   27  O2  UNK     1      18.423   2.405  35.452  1.00  0.00    -0.286 OA
HETATM   28  C12 UNK     1      18.117   5.401  32.497  1.00  0.00     0.036 A 
HETATM   29 Cl2  UNK     1      17.936   7.070  32.879  1.00  0.00    -0.084 Cl
HETATM   30  C13 UNK     1      18.166   4.994  31.163  1.00  0.00     0.050 A 
HETATM   31 Cl1  UNK     1      18.372   3.183  29.184  1.00  0.00    -0.081 Cl
ENDBRANCH   2  19
TORSDOF 4
ENDMDL
MODEL 4
REMARK VINA RESULT:      -9.5      6.069     10.292
REMARK  4 active torsions:
REMARK  status: ('A' for Active; 'I' for Inactive)
REMARK       I    between atoms: C17_27  and  N1_9 
REMARK    1  A    between atoms: C6_16  and  N1_9 
REMARK    2  A    between atoms: C10_20  and  C3_13 
REMARK    3  A    between atoms: C19_29  and  C9_19 
REMARK    4  A    between atoms: C15_25  and  C17_27 
ROOT
HETATM    1  N2  UNK     1      21.021   6.044  32.399  1.00  0.00    -0.191 NA
HETATM    2  C10 UNK     1      17.630   5.230  32.251  1.00  0.00     0.045 C 
HETATM    3  C15 UNK     1      18.445   6.297  32.343  1.00  0.00     0.113 C 
HETATM    4  C20 UNK     1      19.865   6.153  32.374  1.00  0.00     0.105 C 
ENDROOT
BRANCH   3   5
HETATM    5  C17 UNK     1      17.784   7.658  32.420  1.00  0.00     0.266 C 
HETATM    6  O3  UNK     1      17.065   8.053  31.505  1.00  0.00    -0.267 OA
HETATM    7  N1  UNK     1      18.079   8.355  33.587  1.00  0.00    -0.322 N 
HETATM    8  H6  UNK     1      18.691   7.922  34.273  1.00  0.00     0.169 HD
BRANCH   7   9
HETATM    9  C6  UNK     1      17.621   9.644  33.960  1.00  0.00     0.035 A 
HETATM   10  C11 UNK     1      16.314   9.798  34.388  1.00  0.00     0.045 A 
HETATM   11  C9  UNK     1      15.865  11.067  34.756  1.00  0.00     0.050 A 
HETATM   12  C16 UNK     1      16.729  12.160  34.688  1.00  0.00     0.016 A 
HETATM   13  C18 UNK     1      18.043  11.985  34.254  1.00  0.00     0.003 A 
HETATM   14  C14 UNK     1      18.492  10.716  33.886  1.00  0.00     0.029 A 
BRANCH  11  15
HETATM   15  C19 UNK     1      14.461  11.254  35.221  1.00  0.00     0.417 C 
HETATM   16  F1  UNK     1      13.541  10.571  34.477  1.00  0.00    -0.166 F 
HETATM   17  F2  UNK     1      14.252  10.843  36.507  1.00  0.00    -0.166 F 
HETATM   18  F3  UNK     1      14.064  12.559  35.185  1.00  0.00    -0.166 F 
ENDBRANCH  11  15
ENDBRANCH   7   9
ENDBRANCH   3   5
BRANCH   2  19
HETATM   19  C3  UNK     1      18.030   3.848  32.168  1.00  0.00     0.039 A 
HETATM   20  C8  UNK     1      17.932   3.029  33.221  1.00  0.00     0.158 A 
HETATM   21  O1  UNK     1      18.285   1.700  33.250  1.00  0.00    -0.319 OA
HETATM   22  C2  UNK     1      18.788   1.150  32.097  1.00  0.00     0.111 A 
HETATM   23  C1  UNK     1      18.948   1.882  30.919  1.00  0.00     0.052 A 
HETATM   24  C7  UNK     1      19.142  -0.198  32.136  1.00  0.00     0.070 A 
HETATM   25  C4  UNK     1      18.565   3.306  30.901  1.00  0.00     0.197 A 
HETATM   26  C5  UNK     1      19.465   1.270  29.774  1.00  0.00     0.042 A 
HETATM   27  O2  UNK     1      18.689   3.985  29.889  1.00  0.00    -0.286 OA
HETATM   28  C12 UNK     1      19.819  -0.080  29.817  1.00  0.00     0.036 A 
HETATM   29 Cl2  UNK     1      20.456  -0.844  28.411  1.00  0.00    -0.084 Cl
HETATM   30  C13 UNK     1      19.657  -0.812  30.994  1.00  0.00     0.050 A 
HETATM   31 Cl1  UNK     1      18.960  -1.140  33.571  1.00  0.00    -0.081 Cl
ENDBRANCH   2  19
TORSDOF 4
ENDMDL
MODEL 5
REMARK VINA RESULT:      -9.5      6.119     10.191
REMARK  4 active torsions:
REMARK  status: ('A' for Active; 'I' for Inactive)
REMARK       I    between atoms: C17_27  and  N1_9 
REMARK    1  A    between atoms: C6_16  and  N1_9 
REMARK    2  A    between atoms: C10_20  and  C3_13 
REMARK    3  A    between atoms: C19_29  and  C9_19 
REMARK    4  A    between atoms: C15_25  and  C17_27 
ROOT
HETATM    1  N2  UNK     1      20.882   5.844  31.614  1.00  0.00    -0.191 NA
HETATM    2  C10 UNK     1      17.627   4.618  31.324  1.00  0.00     0.045 C 
HETATM    3  C15 UNK     1      18.296   5.765  31.547  1.00  0.00     0.113 C 
HETATM    4  C20 UNK     1      19.723   5.804  31.583  1.00  0.00     0.105 C 
ENDROOT
BRANCH   3   5
HETATM    5  C17 UNK     1      17.463   7.011  31.766  1.00  0.00     0.266 C 
HETATM    6  O3  UNK     1      16.977   7.611  30.810  1.00  0.00    -0.267 OA
HETATM    7  N1  UNK     1      17.328   7.363  33.105  1.00  0.00    -0.322 N 
HETATM    8  H6  UNK     1      17.780   6.786  33.809  1.00  0.00     0.169 HD
BRANCH   7   9
HETATM    9  C6  UNK     1      16.617   8.467  33.639  1.00  0.00     0.035 A 
HETATM   10  C11 UNK     1      17.280   9.666  33.835  1.00  0.00     0.045 A 
HETATM   11  C9  UNK     1      16.579  10.752  34.361  1.00  0.00     0.050 A 
HETATM   12  C16 UNK     1      15.229  10.621  34.682  1.00  0.00     0.016 A 
HETATM   13  C18 UNK     1      14.577   9.405  34.478  1.00  0.00     0.003 A 
HETATM   14  C14 UNK     1      15.278   8.319  33.953  1.00  0.00     0.029 A 
BRANCH  11  15
HETATM   15  C19 UNK     1      17.275  12.053  34.578  1.00  0.00     0.417 C 
HETATM   16  F1  UNK     1      17.059  12.963  33.582  1.00  0.00    -0.166 F 
HETATM   17  F2  UNK     1      16.897  12.689  35.727  1.00  0.00    -0.166 F 
HETATM   18  F3  UNK     1      18.629  11.918  34.663  1.00  0.00    -0.166 F 
ENDBRANCH  11  15
ENDBRANCH   7   9
ENDBRANCH   3   5
BRANCH   2  19
HETATM   19  C3  UNK     1      18.205   3.319  31.094  1.00  0.00     0.039 A 
HETATM   20  C8  UNK     1      18.655   2.959  29.887  1.00  0.00     0.158 A 
HETATM   21  O1  UNK     1      19.222   1.749  29.561  1.00  0.00    -0.319 OA
HETATM   22  C2  UNK     1      19.341   0.813  30.558  1.00  0.00     0.111 A 
HETATM   23  C1  UNK     1      18.915   1.046  31.867  1.00  0.00     0.052 A 
HETATM   24  C7  UNK     1      19.918  -0.411  30.217  1.00  0.00     0.070 A 
HETATM   25  C4  UNK     1      18.310   2.347  32.204  1.00  0.00     0.197 A 
HETATM   26  C5  UNK     1      19.062   0.055  32.842  1.00  0.00     0.042 A 
HETATM   27  O2  UNK     1      17.923   2.593  33.339  1.00  0.00    -0.286 OA
HETATM   28  C12 UNK     1      19.638  -1.169  32.497  1.00  0.00     0.036 A 
HETATM   29 Cl2  UNK     1      19.824  -2.396  33.692  1.00  0.00    -0.084 Cl
HETATM   30  C13 UNK     1      20.066  -1.401  31.189  1.00  0.00     0.050 A 
HETATM   31 Cl1  UNK     1      20.458  -0.740  28.611  1.00  0.00    -0.081 Cl
ENDBRANCH   2  19
TORSDOF 4
ENDMDL
MODEL 6
REMARK VINA RESULT:      -9.5      7.982     12.257
REMARK  4 active torsions:
REMARK  status: ('A' for Active; 'I' for Inactive)
REMARK       I    between atoms: C17_27  and  N1_9 
REMARK    1  A    between atoms: C6_16  and  N1_9 
REMARK    2  A    between atoms: C10_20  and  C3_13 
REMARK    3  A    between atoms: C19_29  and  C9_19 
REMARK    4  A    between atoms: C15_25  and  C17_27 
ROOT
HETATM    1  N2  UNK     1      18.521  -1.813  37.896  1.00  0.00    -0.191 NA
HETATM    2  C10 UNK     1      20.161  -3.544  35.347  1.00  0.00     0.045 C 
HETATM    3  C15 UNK     1      19.499  -2.392  35.570  1.00  0.00     0.113 C 
HETATM    4  C20 UNK     1      18.961  -2.077  36.855  1.00  0.00     0.105 C 
ENDROOT
BRANCH   3   5
HETATM    5  C17 UNK     1      19.344  -1.453  34.393  1.00  0.00     0.266 C 
HETATM    6  O3  UNK     1      18.832  -0.346  34.544  1.00  0.00    -0.267 OA
HETATM    7  N1  UNK     1      19.828  -1.973  33.197  1.00  0.00    -0.322 N 
HETATM    8  H6  UNK     1      20.230  -2.907  33.198  1.00  0.00     0.169 HD
BRANCH   7   9
HETATM    9  C6  UNK     1      19.831  -1.350  31.924  1.00  0.00     0.035 A 
HETATM   10  C11 UNK     1      19.243  -0.105  31.781  1.00  0.00     0.045 A 
HETATM   11  C9  UNK     1      19.247   0.508  30.527  1.00  0.00     0.050 A 
HETATM   12  C16 UNK     1      19.837  -0.134  29.439  1.00  0.00     0.016 A 
HETATM   13  C18 UNK     1      20.423  -1.389  29.602  1.00  0.00     0.003 A 
HETATM   14  C14 UNK     1      20.420  -2.002  30.855  1.00  0.00     0.029 A 
BRANCH  11  15
HETATM   15  C19 UNK     1      18.620   1.850  30.352  1.00  0.00     0.417 C 
HETATM   16  F1  UNK     1      17.498   1.832  29.573  1.00  0.00    -0.166 F 
HETATM   17  F2  UNK     1      18.228   2.427  31.526  1.00  0.00    -0.166 F 
HETATM   18  F3  UNK     1      19.460   2.750  29.764  1.00  0.00    -0.166 F 
ENDBRANCH  11  15
ENDBRANCH   7   9
ENDBRANCH   3   5
BRANCH   2  19
HETATM   19  C3  UNK     1      20.425  -4.583  36.309  1.00  0.00     0.039 A 
HETATM   20  C8  UNK     1      21.286  -4.399  37.316  1.00  0.00     0.158 A 
HETATM   21  O1  UNK     1      21.609  -5.320  38.285  1.00  0.00    -0.319 OA
HETATM   22  C2  UNK     1      20.999  -6.549  38.223  1.00  0.00     0.111 A 
HETATM   23  C1  UNK     1      20.079  -6.885  37.228  1.00  0.00     0.052 A 
HETATM   24  C7  UNK     1      21.333  -7.476  39.210  1.00  0.00     0.070 A 
HETATM   25  C4  UNK     1      19.740  -5.889  36.196  1.00  0.00     0.197 A 
HETATM   26  C5  UNK     1      19.489  -8.152  37.215  1.00  0.00     0.042 A 
HETATM   27  O2  UNK     1      18.939  -6.142  35.306  1.00  0.00    -0.286 OA
HETATM   28  C12 UNK     1      19.826  -9.078  38.204  1.00  0.00     0.036 A 
HETATM   29 Cl2  UNK     1      19.104 -10.642  38.196  1.00  0.00    -0.084 Cl
HETATM   30  C13 UNK     1      20.744  -8.741  39.199  1.00  0.00     0.050 A 
HETATM   31 Cl1  UNK     1      22.465  -7.101  40.458  1.00  0.00    -0.081 Cl
ENDBRANCH   2  19
TORSDOF 4
ENDMDL
MODEL 7
REMARK VINA RESULT:      -9.4      6.229     10.401
REMARK  4 active torsions:
REMARK  status: ('A' for Active; 'I' for Inactive)
REMARK       I    between atoms: C17_27  and  N1_9 
REMARK    1  A    between atoms: C6_16  and  N1_9 
REMARK    2  A    between atoms: C10_20  and  C3_13 
REMARK    3  A    between atoms: C19_29  and  C9_19 
REMARK    4  A    between atoms: C15_25  and  C17_27 
ROOT
HETATM    1  N2  UNK     1      20.922   6.032  32.536  1.00  0.00    -0.191 NA
HETATM    2  C10 UNK     1      17.558   5.147  32.242  1.00  0.00     0.045 C 
HETATM    3  C15 UNK     1      18.346   6.231  32.373  1.00  0.00     0.113 C 
HETATM    4  C20 UNK     1      19.766   6.117  32.463  1.00  0.00     0.105 C 
ENDROOT
BRANCH   3   5
HETATM    5  C17 UNK     1      17.653   7.576  32.430  1.00  0.00     0.266 C 
HETATM    6  O3  UNK     1      17.130   8.050  31.424  1.00  0.00    -0.267 OA
HETATM    7  N1  UNK     1      17.685   8.166  33.689  1.00  0.00    -0.322 N 
HETATM    8  H6  UNK     1      18.151   7.676  34.447  1.00  0.00     0.169 HD
BRANCH   7   9
HETATM    9  C6  UNK     1      17.131   9.415  34.071  1.00  0.00     0.035 A 
HETATM   10  C11 UNK     1      17.848  10.573  33.826  1.00  0.00     0.045 A 
HETATM   11  C9  UNK     1      17.303  11.802  34.202  1.00  0.00     0.050 A 
HETATM   12  C16 UNK     1      16.051  11.851  34.816  1.00  0.00     0.016 A 
HETATM   13  C18 UNK     1      15.344  10.673  35.054  1.00  0.00     0.003 A 
HETATM   14  C14 UNK     1      15.889   9.444  34.679  1.00  0.00     0.029 A 
BRANCH  11  15
HETATM   15  C19 UNK     1      18.058  13.062  33.947  1.00  0.00     0.417 C 
HETATM   16  F1  UNK     1      18.751  13.515  35.034  1.00  0.00    -0.166 F 
HETATM   17  F2  UNK     1      18.990  12.948  32.954  1.00  0.00    -0.166 F 
HETATM   18  F3  UNK     1      17.249  14.094  33.573  1.00  0.00    -0.166 F 
ENDBRANCH  11  15
ENDBRANCH   7   9
ENDBRANCH   3   5
BRANCH   2  19
HETATM   19  C3  UNK     1      17.992   3.775  32.169  1.00  0.00     0.039 A 
HETATM   20  C8  UNK     1      17.899   2.956  33.223  1.00  0.00     0.158 A 
HETATM   21  O1  UNK     1      18.282   1.636  33.261  1.00  0.00    -0.319 OA
HETATM   22  C2  UNK     1      18.812   1.095  32.116  1.00  0.00     0.111 A 
HETATM   23  C1  UNK     1      18.972   1.827  30.938  1.00  0.00     0.052 A 
HETATM   24  C7  UNK     1      19.197  -0.245  32.164  1.00  0.00     0.070 A 
HETATM   25  C4  UNK     1      18.557   3.242  30.911  1.00  0.00     0.197 A 
HETATM   26  C5  UNK     1      19.519   1.224  29.803  1.00  0.00     0.042 A 
HETATM   27  O2  UNK     1      18.679   3.920  29.899  1.00  0.00    -0.286 OA
HETATM   28  C12 UNK     1      19.903  -0.117  29.854  1.00  0.00     0.036 A 
HETATM   29 Cl2  UNK     1      20.578  -0.870  28.460  1.00  0.00    -0.084 Cl
HETATM   30  C13 UNK     1      19.742  -0.850  31.031  1.00  0.00     0.050 A 
HETATM   31 Cl1  UNK     1      19.017  -1.187  33.600  1.00  0.00    -0.081 Cl
ENDBRANCH   2  19
TORSDOF 4
ENDMDL
MODEL 8
REMARK VINA RESULT:      -9.3      6.230      8.948
REMARK  4 active torsions:
REMARK  status: ('A' for Active; 'I' for Inactive)
REMARK       I    between atoms: C17_27  and  N1_9 
REMARK    1  A    between atoms: C6_16  and  N1_9 
REMARK    2  A    between atoms: C10_20  and  C3_13 
REMARK    3  A    between atoms: C19_29  and  C9_19 
REMARK    4  A    between atoms: C15_25  and  C17_27 
ROOT
HETATM    1  N2  UNK     1      22.353  -1.756  34.972  1.00  0.00    -0.191 NA
HETATM    2  C10 UNK     1      18.920  -2.046  35.531  1.00  0.00     0.045 C 
HETATM    3  C15 UNK     1      20.077  -2.690  35.776  1.00  0.00     0.113 C 
HETATM    4  C20 UNK     1      21.330  -2.172  35.331  1.00  0.00     0.105 C 
ENDROOT
BRANCH   3   5
HETATM    5  C17 UNK     1      19.985  -3.995  36.539  1.00  0.00     0.266 C 
HETATM    6  O3  UNK     1      20.106  -4.010  37.762  1.00  0.00    -0.267 OA
HETATM    7  N1  UNK     1      19.760  -5.101  35.727  1.00  0.00    -0.322 N 
HETATM    8  H6  UNK     1      19.679  -4.962  34.723  1.00  0.00     0.169 HD
BRANCH   7   9
HETATM    9  C6  UNK     1      19.625  -6.455  36.129  1.00  0.00     0.035 A 
HETATM   10  C11 UNK     1      20.558  -7.381  35.700  1.00  0.00     0.045 A 
HETATM   11  C9  UNK     1      20.426  -8.713  36.097  1.00  0.00     0.050 A 
HETATM   12  C16 UNK     1      19.362  -9.094  36.914  1.00  0.00     0.016 A 
HETATM   13  C18 UNK     1      18.431  -8.145  37.336  1.00  0.00     0.003 A 
HETATM   14  C14 UNK     1      18.564  -6.814  36.940  1.00  0.00     0.029 A 
BRANCH  11  15
HETATM   15  C19 UNK     1      21.421  -9.727  35.647  1.00  0.00     0.417 C 
HETATM   16  F1  UNK     1      21.689  -9.676  34.307  1.00  0.00    -0.166 F 
HETATM   17  F2  UNK     1      22.638  -9.607  36.256  1.00  0.00    -0.166 F 
HETATM   18  F3  UNK     1      21.015 -11.007  35.890  1.00  0.00    -0.166 F 
ENDBRANCH  11  15
ENDBRANCH   7   9
ENDBRANCH   3   5
BRANCH   2  19
HETATM   19  C3  UNK     1      18.764  -0.800  34.826  1.00  0.00     0.039 A 
HETATM   20  C8  UNK     1      18.520   0.344  35.475  1.00  0.00     0.158 A 
HETATM   21  O1  UNK     1      18.356   1.583  34.901  1.00  0.00    -0.319 OA
HETATM   22  C2  UNK     1      18.446   1.667  33.534  1.00  0.00     0.111 A 
HETATM   23  C1  UNK     1      18.696   0.558  32.723  1.00  0.00     0.052 A 
HETATM   24  C7  UNK     1      18.279   2.928  32.961  1.00  0.00     0.070 A 
HETATM   25  C4  UNK     1      18.872  -0.764  33.351  1.00  0.00     0.197 A 
HETATM   26  C5  UNK     1      18.778   0.704  31.336  1.00  0.00     0.042 A 
HETATM   27  O2  UNK     1      19.092  -1.763  32.678  1.00  0.00    -0.286 OA
HETATM   28  C12 UNK     1      18.609   1.967  30.766  1.00  0.00     0.036 A 
HETATM   29 Cl2  UNK     1      18.708   2.157  29.057  1.00  0.00    -0.084 Cl
HETATM   30  C13 UNK     1      18.361   3.076  31.576  1.00  0.00     0.050 A 
HETATM   31 Cl1  UNK     1      17.968   4.326  33.926  1.00  0.00    -0.081 Cl
ENDBRANCH   2  19
TORSDOF 4
ENDMDL
MODEL 9
REMARK VINA RESULT:      -9.2      2.623      4.069
REMARK  4 active torsions:
REMARK  status: ('A' for Active; 'I' for Inactive)
REMARK       I    between atoms: C17_27  and  N1_9 
REMARK    1  A    between atoms: C6_16  and  N1_9 
REMARK    2  A    between atoms: C10_20  and  C3_13 
REMARK    3  A    between atoms: C19_29  and  C9_19 
REMARK    4  A    between atoms: C15_25  and  C17_27 
ROOT
HETATM    1  N2  UNK     1      16.373   8.071  30.821  1.00  0.00    -0.191 NA
HETATM    2  C10 UNK     1      17.757   7.761  34.011  1.00  0.00     0.045 C 
HETATM    3  C15 UNK     1      17.709   7.123  32.826  1.00  0.00     0.113 C 
HETATM    4  C20 UNK     1      16.971   7.650  31.722  1.00  0.00     0.105 C 
ENDROOT
BRANCH   3   5
HETATM    5  C17 UNK     1      18.467   5.817  32.721  1.00  0.00     0.266 C 
HETATM    6  O3  UNK     1      19.656   5.761  33.029  1.00  0.00    -0.267 OA
HETATM    7  N1  UNK     1      17.692   4.758  32.262  1.00  0.00    -0.322 N 
HETATM    8  H6  UNK     1      16.716   4.929  32.036  1.00  0.00     0.169 HD
BRANCH   7   9
HETATM    9  C6  UNK     1      18.101   3.415  32.054  1.00  0.00     0.035 A 
HETATM   10  C11 UNK     1      18.025   2.517  33.104  1.00  0.00     0.045 A 
HETATM   11  C9  UNK     1      18.427   1.197  32.899  1.00  0.00     0.050 A 
HETATM   12  C16 UNK     1      18.899   0.798  31.649  1.00  0.00     0.016 A 
HETATM   13  C18 UNK     1      18.970   1.718  30.603  1.00  0.00     0.003 A 
HETATM   14  C14 UNK     1      18.567   3.038  30.808  1.00  0.00     0.029 A 
BRANCH  11  15
HETATM   15  C19 UNK     1      18.351   0.213  34.017  1.00  0.00     0.417 C 
HETATM   16  F1  UNK     1      17.080  -0.204  34.294  1.00  0.00    -0.166 F 
HETATM   17  F2  UNK     1      19.058  -0.933  33.785  1.00  0.00    -0.166 F 
HETATM   18  F3  UNK     1      18.837   0.711  35.190  1.00  0.00    -0.166 F 
ENDBRANCH  11  15
ENDBRANCH   7   9
ENDBRANCH   3   5
BRANCH   2  19
HETATM   19  C3  UNK     1      17.115   9.008  34.341  1.00  0.00     0.039 A 
HETATM   20  C8  UNK     1      15.900   9.042  34.898  1.00  0.00     0.158 A 
HETATM   21  O1  UNK     1      15.200  10.172  35.251  1.00  0.00    -0.319 OA
HETATM   22  C2  UNK     1      15.794  11.387  35.013  1.00  0.00     0.111 A 
HETATM   23  C1  UNK     1      17.060  11.509  34.437  1.00  0.00     0.052 A 
HETATM   24  C7  UNK     1      15.077  12.528  35.375  1.00  0.00     0.070 A 
HETATM   25  C4  UNK     1      17.799  10.290  34.064  1.00  0.00     0.197 A 
HETATM   26  C5  UNK     1      17.614  12.773  34.218  1.00  0.00     0.042 A 
HETATM   27  O2  UNK     1      18.912  10.352  33.556  1.00  0.00    -0.286 OA
HETATM   28  C12 UNK     1      16.894  13.913  34.581  1.00  0.00     0.036 A 
HETATM   29 Cl2  UNK     1      17.569  15.475  34.315  1.00  0.00    -0.084 Cl
HETATM   30  C13 UNK     1      15.629  13.790  35.158  1.00  0.00     0.050 A 
HETATM   31 Cl1  UNK     1      13.509  12.422  36.090  1.00  0.00    -0.081 Cl
ENDBRANCH   2  19
TORSDOF 4
ENDMDL
MODEL 10
REMARK VINA RESULT:      -9.2      1.862      2.352
REMARK  4 active torsions:
REMARK  status: ('A' for Active; 'I' for Inactive)
REMARK       I    between atoms: C17_27  and  N1_9 
REMARK    1  A    between atoms: C6_16  and  N1_9 
REMARK    2  A    between atoms: C10_20  and  C3_13 
REMARK    3  A    between atoms: C19_29  and  C9_19 
REMARK    4  A    between atoms: C15_25  and  C17_27 
ROOT
HETATM    1  N2  UNK     1      17.709   5.206  34.593  1.00  0.00    -0.191 NA
HETATM    2  C10 UNK     1      17.857   6.952  31.575  1.00  0.00     0.045 C 
HETATM    3  C15 UNK     1      18.150   5.747  32.101  1.00  0.00     0.113 C 
HETATM    4  C20 UNK     1      17.905   5.452  33.476  1.00  0.00     0.105 C 
ENDROOT
BRANCH   3   5
HETATM    5  C17 UNK     1      18.760   4.723  31.167  1.00  0.00     0.266 C 
HETATM    6  O3  UNK     1      19.770   4.994  30.521  1.00  0.00    -0.267 OA
HETATM    7  N1  UNK     1      18.072   3.515  31.139  1.00  0.00    -0.322 N 
HETATM    8  H6  UNK     1      17.244   3.411  31.719  1.00  0.00     0.169 HD
BRANCH   7   9
HETATM    9  C6  UNK     1      18.384   2.362  30.373  1.00  0.00     0.035 A 
HETATM   10  C11 UNK     1      19.088   1.330  30.966  1.00  0.00     0.045 A 
HETATM   11  C9  UNK     1      19.394   0.196  30.212  1.00  0.00     0.050 A 
HETATM   12  C16 UNK     1      18.992   0.115  28.879  1.00  0.00     0.016 A 
HETATM   13  C18 UNK     1      18.283   1.166  28.299  1.00  0.00     0.003 A 
HETATM   14  C14 UNK     1      17.976   2.300  29.053  1.00  0.00     0.029 A 
BRANCH  11  15
HETATM   15  C19 UNK     1      20.152  -0.929  30.832  1.00  0.00     0.417 C 
HETATM   16  F1  UNK     1      21.445  -0.614  31.140  1.00  0.00    -0.166 F 
HETATM   17  F2  UNK     1      19.607  -1.375  32.003  1.00  0.00    -0.166 F 
HETATM   18  F3  UNK     1      20.224  -2.024  30.022  1.00  0.00    -0.166 F 
ENDBRANCH  11  15
ENDBRANCH   7   9
ENDBRANCH   3   5
BRANCH   2  19
HETATM   19  C3  UNK     1      17.277   8.073  32.268  1.00  0.00     0.039 A 
HETATM   20  C8  UNK     1      18.001   8.827  33.103  1.00  0.00     0.158 A 
HETATM   21  O1  UNK     1      17.548   9.915  33.812  1.00  0.00    -0.319 OA
HETATM   22  C2  UNK     1      16.231  10.271  33.659  1.00  0.00     0.111 A 
HETATM   23  C1  UNK     1      15.354   9.577  32.823  1.00  0.00     0.052 A 
HETATM   24  C7  UNK     1      15.781  11.376  34.382  1.00  0.00     0.070 A 
HETATM   25  C4  UNK     1      15.852   8.413  32.067  1.00  0.00     0.197 A 
HETATM   26  C5  UNK     1      14.022   9.984  32.707  1.00  0.00     0.042 A 
HETATM   27  O2  UNK     1      15.117   7.777  31.323  1.00  0.00    -0.286 OA
HETATM   28  C12 UNK     1      13.575  11.090  33.432  1.00  0.00     0.036 A 
HETATM   29 Cl2  UNK     1      11.936  11.600  33.294  1.00  0.00    -0.084 Cl
HETATM   30  C13 UNK     1      14.452  11.784  34.266  1.00  0.00     0.050 A 
HETATM   31 Cl1  UNK     1      16.831  12.261  35.427  1.00  0.00    -0.081 Cl
ENDBRANCH   2  19
TORSDOF 4
ENDMDL
