MODEL 1
REMARK VINA RESULT:      -8.7      0.000      0.000
REMARK  4 active torsions:
REMARK  status: ('A' for Active; 'I' for Inactive)
REMARK    1  A    between atoms: C15_20  and  O2_2 
REMARK    2  A    between atoms: C8_13  and  O2_2 
REMARK       I    between atoms: C17_22  and  N1_5 
REMARK    3  A    between atoms: C3_8  and  C6_11 
REMARK    4  A    between atoms: C15_20  and  C17_22 
ROOT
HETATM    1  O1  UNK     1      19.264   2.616  30.642  1.00  0.00    -0.309 OA
HETATM    2  O3  UNK     1      17.615   2.629  34.368  1.00  0.00    -0.287 OA
HETATM    3  C1  UNK     1      18.286   3.874  32.475  1.00  0.00     0.051 A 
HETATM    4  C2  UNK     1      18.856   3.798  31.205  1.00  0.00     0.090 A 
HETATM    5  C3  UNK     1      19.108   1.447  31.374  1.00  0.00     0.090 A 
HETATM    6  C4  UNK     1      18.111   2.637  33.250  1.00  0.00     0.187 A 
HETATM    7  C5  UNK     1      17.887   5.107  32.998  1.00  0.00     0.055 A 
HETATM    8  C7  UNK     1      18.567   1.391  32.601  1.00  0.00     0.093 A 
HETATM    9  C8  UNK     1      18.064   6.265  32.239  1.00  0.00     0.070 A 
HETATM   10  C9  UNK     1      19.031   4.957  30.449  1.00  0.00     0.041 A 
HETATM   11  C10 UNK     1      18.635   6.190  30.967  1.00  0.00     0.039 A 
ENDROOT
BRANCH   9  12
HETATM   12  O2  UNK     1      17.678   7.470  32.740  1.00  0.00    -0.342 OA
BRANCH  12  13
HETATM   13  C15 UNK     1      16.284   7.657  32.979  1.00  0.00     0.278 C 
BRANCH  13  14
HETATM   14  C17 UNK     1      15.583   7.953  31.674  1.00  0.00     0.239 C 
HETATM   15  O4  UNK     1      16.098   8.580  30.752  1.00  0.00    -0.271 OA
HETATM   16  N1  UNK     1      14.306   7.440  31.637  1.00  0.00    -0.368 N 
HETATM   17  H12 UNK     1      13.718   7.563  30.819  1.00  0.00     0.159 HD
HETATM   18  H13 UNK     1      13.905   6.924  32.414  1.00  0.00     0.159 HD
ENDBRANCH  13  14
ENDBRANCH  12  13
ENDBRANCH   9  12
BRANCH   5  19
HETATM   19  C6  UNK     1      19.573   0.234  30.672  1.00  0.00    -0.002 A 
HETATM   20  C11 UNK     1      19.817   0.268  29.297  1.00  0.00     0.014 A 
HETATM   21  C13 UNK     1      20.257  -0.878  28.635  1.00  0.00     0.001 A 
HETATM   22  C16 UNK     1      20.452  -2.063  29.345  1.00  0.00     0.000 A 
HETATM   23  C14 UNK     1      20.208  -2.101  30.718  1.00  0.00     0.001 A 
HETATM   24  C12 UNK     1      19.770  -0.954  31.381  1.00  0.00     0.014 A 
ENDBRANCH   5  19
TORSDOF 4
ENDMDL
MODEL 2
REMARK VINA RESULT:      -8.6      3.171      7.635
REMARK  4 active torsions:
REMARK  status: ('A' for Active; 'I' for Inactive)
REMARK    1  A    between atoms: C15_20  and  O2_2 
REMARK    2  A    between atoms: C8_13  and  O2_2 
REMARK       I    between atoms: C17_22  and  N1_5 
REMARK    3  A    between atoms: C3_8  and  C6_11 
REMARK    4  A    between atoms: C15_20  and  C17_22 
ROOT
HETATM    1  O1  UNK     1      18.876   6.277  31.824  1.00  0.00    -0.309 OA
HETATM    2  O3  UNK     1      18.083   3.247  34.431  1.00  0.00    -0.287 OA
HETATM    3  C1  UNK     1      18.461   3.912  32.195  1.00  0.00     0.051 A 
HETATM    4  C2  UNK     1      18.735   4.994  31.359  1.00  0.00     0.090 A 
HETATM    5  C3  UNK     1      18.734   6.506  33.185  1.00  0.00     0.090 A 
HETATM    6  C4  UNK     1      18.319   4.150  33.639  1.00  0.00     0.187 A 
HETATM    7  C5  UNK     1      18.329   2.627  31.666  1.00  0.00     0.055 A 
HETATM    8  C7  UNK     1      18.478   5.547  34.089  1.00  0.00     0.093 A 
HETATM    9  C8  UNK     1      18.471   2.431  30.291  1.00  0.00     0.070 A 
HETATM   10  C9  UNK     1      18.876   4.796  29.986  1.00  0.00     0.041 A 
HETATM   11  C10 UNK     1      18.745   3.513  29.453  1.00  0.00     0.039 A 
ENDROOT
BRANCH   9  12
HETATM   12  O2  UNK     1      18.344   1.182  29.767  1.00  0.00    -0.342 OA
BRANCH  12  13
HETATM   13  C15 UNK     1      19.499   0.616  29.149  1.00  0.00     0.278 C 
BRANCH  13  14
HETATM   14  C17 UNK     1      20.170  -0.337  30.111  1.00  0.00     0.239 C 
HETATM   15  O4  UNK     1      20.908   0.025  31.023  1.00  0.00    -0.271 OA
HETATM   16  N1  UNK     1      19.858  -1.652  29.849  1.00  0.00    -0.368 N 
HETATM   17  H12 UNK     1      20.239  -2.402  30.417  1.00  0.00     0.159 HD
HETATM   18  H13 UNK     1      19.243  -1.924  29.088  1.00  0.00     0.159 HD
ENDBRANCH  13  14
ENDBRANCH  12  13
ENDBRANCH   9  12
BRANCH   5  19
HETATM   19  C6  UNK     1      18.913   7.918  33.578  1.00  0.00    -0.002 A 
HETATM   20  C11 UNK     1      17.857   8.823  33.442  1.00  0.00     0.014 A 
HETATM   21  C13 UNK     1      18.027  10.158  33.814  1.00  0.00     0.001 A 
HETATM   22  C16 UNK     1      19.252  10.590  34.321  1.00  0.00     0.000 A 
HETATM   23  C14 UNK     1      20.308   9.689  34.457  1.00  0.00     0.001 A 
HETATM   24  C12 UNK     1      20.139   8.355  34.087  1.00  0.00     0.014 A 
ENDBRANCH   5  19
TORSDOF 4
ENDMDL
MODEL 3
REMARK VINA RESULT:      -8.2      1.026      2.068
REMARK  4 active torsions:
REMARK  status: ('A' for Active; 'I' for Inactive)
REMARK    1  A    between atoms: C15_20  and  O2_2 
REMARK    2  A    between atoms: C8_13  and  O2_2 
REMARK       I    between atoms: C17_22  and  N1_5 
REMARK    3  A    between atoms: C3_8  and  C6_11 
REMARK    4  A    between atoms: C15_20  and  C17_22 
ROOT
HETATM    1  O1  UNK     1      18.872   1.998  32.154  1.00  0.00    -0.309 OA
HETATM    2  O3  UNK     1      18.562   4.516  28.966  1.00  0.00    -0.287 OA
HETATM    3  C1  UNK     1      18.360   4.214  31.301  1.00  0.00     0.051 A 
HETATM    4  C2  UNK     1      18.488   3.300  32.346  1.00  0.00     0.090 A 
HETATM    5  C3  UNK     1      19.138   1.571  30.860  1.00  0.00     0.090 A 
HETATM    6  C4  UNK     1      18.650   3.768  29.930  1.00  0.00     0.187 A 
HETATM    7  C5  UNK     1      17.966   5.529  31.557  1.00  0.00     0.055 A 
HETATM    8  C7  UNK     1      19.057   2.357  29.775  1.00  0.00     0.093 A 
HETATM    9  C8  UNK     1      17.700   5.924  32.868  1.00  0.00     0.070 A 
HETATM   10  C9  UNK     1      18.221   3.698  33.656  1.00  0.00     0.041 A 
HETATM   11  C10 UNK     1      17.827   5.011  33.916  1.00  0.00     0.039 A 
ENDROOT
BRANCH   9  12
HETATM   12  O2  UNK     1      17.316   7.204  33.127  1.00  0.00    -0.342 OA
BRANCH  12  13
HETATM   13  C15 UNK     1      15.915   7.469  33.152  1.00  0.00     0.278 C 
BRANCH  13  14
HETATM   14  C17 UNK     1      15.453   7.878  31.773  1.00  0.00     0.239 C 
HETATM   15  O4  UNK     1      16.132   8.546  30.999  1.00  0.00    -0.271 OA
HETATM   16  N1  UNK     1      14.189   7.413  31.484  1.00  0.00    -0.368 N 
HETATM   17  H12 UNK     1      13.752   7.613  30.590  1.00  0.00     0.159 HD
HETATM   18  H13 UNK     1      13.650   6.861  32.143  1.00  0.00     0.159 HD
ENDBRANCH  13  14
ENDBRANCH  12  13
ENDBRANCH   9  12
BRANCH   5  19
HETATM   19  C6  UNK     1      19.549   0.156  30.768  1.00  0.00    -0.002 A 
HETATM   20  C11 UNK     1      20.140  -0.328  29.598  1.00  0.00     0.014 A 
HETATM   21  C13 UNK     1      20.530  -1.665  29.511  1.00  0.00     0.001 A 
HETATM   22  C16 UNK     1      20.329  -2.522  30.593  1.00  0.00     0.000 A 
HETATM   23  C14 UNK     1      19.738  -2.042  31.762  1.00  0.00     0.001 A 
HETATM   24  C12 UNK     1      19.349  -0.705  31.850  1.00  0.00     0.014 A 
ENDBRANCH   5  19
TORSDOF 4
ENDMDL
MODEL 4
REMARK VINA RESULT:      -8.1      5.399      7.671
REMARK  4 active torsions:
REMARK  status: ('A' for Active; 'I' for Inactive)
REMARK    1  A    between atoms: C15_20  and  O2_2 
REMARK    2  A    between atoms: C8_13  and  O2_2 
REMARK       I    between atoms: C17_22  and  N1_5 
REMARK    3  A    between atoms: C3_8  and  C6_11 
REMARK    4  A    between atoms: C15_20  and  C17_22 
ROOT
HETATM    1  O1  UNK     1      20.321  -3.386  34.743  1.00  0.00    -0.309 OA
HETATM    2  O3  UNK     1      17.748  -0.486  35.996  1.00  0.00    -0.287 OA
HETATM    3  C1  UNK     1      19.066  -1.367  34.244  1.00  0.00     0.051 A 
HETATM    4  C2  UNK     1      19.941  -2.390  33.880  1.00  0.00     0.090 A 
HETATM    5  C3  UNK     1      19.818  -3.369  36.036  1.00  0.00     0.090 A 
HETATM    6  C4  UNK     1      18.523  -1.351  35.610  1.00  0.00     0.187 A 
HETATM    7  C5  UNK     1      18.713  -0.379  33.322  1.00  0.00     0.055 A 
HETATM    8  C7  UNK     1      18.964  -2.443  36.501  1.00  0.00     0.093 A 
HETATM    9  C8  UNK     1      19.242  -0.422  32.032  1.00  0.00     0.070 A 
HETATM   10  C9  UNK     1      20.469  -2.430  32.590  1.00  0.00     0.041 A 
HETATM   11  C10 UNK     1      20.118  -1.445  31.666  1.00  0.00     0.039 A 
ENDROOT
BRANCH   9  12
HETATM   12  O2  UNK     1      18.903   0.537  31.127  1.00  0.00    -0.342 OA
BRANCH  12  13
HETATM   13  C15 UNK     1      19.766   0.704  30.004  1.00  0.00     0.278 C 
BRANCH  13  14
HETATM   14  C17 UNK     1      18.952   0.672  28.732  1.00  0.00     0.239 C 
HETATM   15  O4  UNK     1      18.286   1.619  28.326  1.00  0.00    -0.271 OA
HETATM   16  N1  UNK     1      19.044  -0.539  28.081  1.00  0.00    -0.368 N 
HETATM   17  H12 UNK     1      18.548  -0.703  27.211  1.00  0.00     0.159 HD
HETATM   18  H13 UNK     1      19.604  -1.306  28.438  1.00  0.00     0.159 HD
ENDBRANCH  13  14
ENDBRANCH  12  13
ENDBRANCH   9  12
BRANCH   5  19
HETATM   19  C6  UNK     1      20.285  -4.489  36.877  1.00  0.00    -0.002 A 
HETATM   20  C11 UNK     1      21.487  -4.383  37.581  1.00  0.00     0.014 A 
HETATM   21  C13 UNK     1      21.928  -5.442  38.376  1.00  0.00     0.001 A 
HETATM   22  C16 UNK     1      21.169  -6.608  38.469  1.00  0.00     0.000 A 
HETATM   23  C14 UNK     1      19.970  -6.717  37.766  1.00  0.00     0.001 A 
HETATM   24  C12 UNK     1      19.527  -5.659  36.971  1.00  0.00     0.014 A 
ENDBRANCH   5  19
TORSDOF 4
ENDMDL
MODEL 5
REMARK VINA RESULT:      -8.0      9.084     12.968
REMARK  4 active torsions:
REMARK  status: ('A' for Active; 'I' for Inactive)
REMARK    1  A    between atoms: C15_20  and  O2_2 
REMARK    2  A    between atoms: C8_13  and  O2_2 
REMARK       I    between atoms: C17_22  and  N1_5 
REMARK    3  A    between atoms: C3_8  and  C6_11 
REMARK    4  A    between atoms: C15_20  and  C17_22 
ROOT
HETATM    1  O1  UNK     1      18.696  -4.461  36.437  1.00  0.00    -0.309 OA
HETATM    2  O3  UNK     1      22.398  -5.300  37.917  1.00  0.00    -0.287 OA
HETATM    3  C1  UNK     1      20.383  -6.118  36.993  1.00  0.00     0.051 A 
HETATM    4  C2  UNK     1      19.130  -5.761  36.497  1.00  0.00     0.090 A 
HETATM    5  C3  UNK     1      19.540  -3.460  36.897  1.00  0.00     0.090 A 
HETATM    6  C4  UNK     1      21.284  -5.059  37.472  1.00  0.00     0.187 A 
HETATM    7  C5  UNK     1      20.773  -7.459  37.029  1.00  0.00     0.055 A 
HETATM    8  C7  UNK     1      20.770  -3.677  37.389  1.00  0.00     0.093 A 
HETATM    9  C8  UNK     1      19.898  -8.442  36.565  1.00  0.00     0.070 A 
HETATM   10  C9  UNK     1      18.257  -6.746  36.034  1.00  0.00     0.041 A 
HETATM   11  C10 UNK     1      18.643  -8.086  36.069  1.00  0.00     0.039 A 
ENDROOT
BRANCH   9  12
HETATM   12  O2  UNK     1      20.269  -9.751  36.596  1.00  0.00    -0.342 OA
BRANCH  12  13
HETATM   13  C15 UNK     1      21.648 -10.029  36.830  1.00  0.00     0.278 C 
BRANCH  13  14
HETATM   14  C17 UNK     1      22.240 -10.708  35.618  1.00  0.00     0.239 C 
HETATM   15  O4  UNK     1      21.776 -10.604  34.486  1.00  0.00    -0.271 OA
HETATM   16  N1  UNK     1      23.357 -11.452  35.926  1.00  0.00    -0.368 N 
HETATM   17  H12 UNK     1      23.858 -11.963  35.206  1.00  0.00     0.159 HD
HETATM   18  H13 UNK     1      23.721 -11.520  36.871  1.00  0.00     0.159 HD
ENDBRANCH  13  14
ENDBRANCH  12  13
ENDBRANCH   9  12
BRANCH   5  19
HETATM   19  C6  UNK     1      18.978  -2.101  36.779  1.00  0.00    -0.002 A 
HETATM   20  C11 UNK     1      19.172  -1.359  35.611  1.00  0.00     0.014 A 
HETATM   21  C13 UNK     1      18.640  -0.074  35.501  1.00  0.00     0.001 A 
HETATM   22  C16 UNK     1      17.913   0.474  36.557  1.00  0.00     0.000 A 
HETATM   23  C14 UNK     1      17.718  -0.263  37.725  1.00  0.00     0.001 A 
HETATM   24  C12 UNK     1      18.248  -1.549  37.836  1.00  0.00     0.014 A 
ENDBRANCH   5  19
TORSDOF 4
ENDMDL
MODEL 6
REMARK VINA RESULT:      -8.0      3.418      9.107
REMARK  4 active torsions:
REMARK  status: ('A' for Active; 'I' for Inactive)
REMARK    1  A    between atoms: C15_20  and  O2_2 
REMARK    2  A    between atoms: C8_13  and  O2_2 
REMARK       I    between atoms: C17_22  and  N1_5 
REMARK    3  A    between atoms: C3_8  and  C6_11 
REMARK    4  A    between atoms: C15_20  and  C17_22 
ROOT
HETATM    1  O1  UNK     1      17.540   9.183  34.104  1.00  0.00    -0.309 OA
HETATM    2  O3  UNK     1      15.259   7.522  31.165  1.00  0.00    -0.287 OA
HETATM    3  C1  UNK     1      17.314   7.537  32.332  1.00  0.00     0.051 A 
HETATM    4  C2  UNK     1      18.040   8.149  33.353  1.00  0.00     0.090 A 
HETATM    5  C3  UNK     1      16.260   9.642  33.829  1.00  0.00     0.090 A 
HETATM    6  C4  UNK     1      15.953   8.015  32.044  1.00  0.00     0.187 A 
HETATM    7  C5  UNK     1      17.873   6.487  31.600  1.00  0.00     0.055 A 
HETATM    8  C7  UNK     1      15.463   9.130  32.878  1.00  0.00     0.093 A 
HETATM    9  C8  UNK     1      19.166   6.054  31.897  1.00  0.00     0.070 A 
HETATM   10  C9  UNK     1      19.331   7.714  33.648  1.00  0.00     0.041 A 
HETATM   11  C10 UNK     1      19.893   6.665  32.919  1.00  0.00     0.039 A 
ENDROOT
BRANCH   9  12
HETATM   12  O2  UNK     1      19.718   5.030  31.190  1.00  0.00    -0.342 OA
BRANCH  12  13
HETATM   13  C15 UNK     1      18.935   4.473  30.135  1.00  0.00     0.278 C 
BRANCH  13  14
HETATM   14  C17 UNK     1      18.521   3.068  30.503  1.00  0.00     0.239 C 
HETATM   15  O4  UNK     1      17.518   2.804  31.160  1.00  0.00    -0.271 OA
HETATM   16  N1  UNK     1      19.392   2.119  30.015  1.00  0.00    -0.368 N 
HETATM   17  H12 UNK     1      19.237   1.131  30.186  1.00  0.00     0.159 HD
HETATM   18  H13 UNK     1      20.214   2.365  29.472  1.00  0.00     0.159 HD
ENDBRANCH  13  14
ENDBRANCH  12  13
ENDBRANCH   9  12
BRANCH   5  19
HETATM   19  C6  UNK     1      15.820  10.750  34.700  1.00  0.00    -0.002 A 
HETATM   20  C11 UNK     1      16.605  11.899  34.824  1.00  0.00     0.014 A 
HETATM   21  C13 UNK     1      16.189  12.946  35.647  1.00  0.00     0.001 A 
HETATM   22  C16 UNK     1      14.987  12.847  36.348  1.00  0.00     0.000 A 
HETATM   23  C14 UNK     1      14.202  11.701  36.227  1.00  0.00     0.001 A 
HETATM   24  C12 UNK     1      14.617  10.654  35.404  1.00  0.00     0.014 A 
ENDBRANCH   5  19
TORSDOF 4
ENDMDL
MODEL 7
REMARK VINA RESULT:      -7.9      4.282      7.889
REMARK  4 active torsions:
REMARK  status: ('A' for Active; 'I' for Inactive)
REMARK    1  A    between atoms: C15_20  and  O2_2 
REMARK    2  A    between atoms: C8_13  and  O2_2 
REMARK       I    between atoms: C17_22  and  N1_5 
REMARK    3  A    between atoms: C3_8  and  C6_11 
REMARK    4  A    between atoms: C15_20  and  C17_22 
ROOT
HETATM    1  O1  UNK     1      18.025   2.878  33.804  1.00  0.00    -0.309 OA
HETATM    2  O3  UNK     1      18.901  -0.556  31.794  1.00  0.00    -0.287 OA
HETATM    3  C1  UNK     1      18.302   0.465  33.840  1.00  0.00     0.051 A 
HETATM    4  C2  UNK     1      18.011   1.676  34.466  1.00  0.00     0.090 A 
HETATM    5  C3  UNK     1      18.350   2.887  32.455  1.00  0.00     0.090 A 
HETATM    6  C4  UNK     1      18.638   0.469  32.408  1.00  0.00     0.187 A 
HETATM    7  C5  UNK     1      18.272  -0.729  34.563  1.00  0.00     0.055 A 
HETATM    8  C7  UNK     1      18.641   1.787  31.742  1.00  0.00     0.093 A 
HETATM    9  C8  UNK     1      17.948  -0.702  35.920  1.00  0.00     0.070 A 
HETATM   10  C9  UNK     1      17.687   1.700  35.822  1.00  0.00     0.041 A 
HETATM   11  C10 UNK     1      17.656   0.509  36.548  1.00  0.00     0.039 A 
ENDROOT
BRANCH   9  12
HETATM   12  O2  UNK     1      17.915  -1.861  36.633  1.00  0.00    -0.342 OA
BRANCH  12  13
HETATM   13  C15 UNK     1      19.153  -2.334  37.162  1.00  0.00     0.278 C 
BRANCH  13  14
HETATM   14  C17 UNK     1      19.557  -3.600  36.444  1.00  0.00     0.239 C 
HETATM   15  O4  UNK     1      20.560  -3.693  35.741  1.00  0.00    -0.271 OA
HETATM   16  N1  UNK     1      18.676  -4.635  36.669  1.00  0.00    -0.368 N 
HETATM   17  H12 UNK     1      18.825  -5.547  36.249  1.00  0.00     0.159 HD
HETATM   18  H13 UNK     1      17.855  -4.531  37.257  1.00  0.00     0.159 HD
ENDBRANCH  13  14
ENDBRANCH  12  13
ENDBRANCH   9  12
BRANCH   5  19
HETATM   19  C6  UNK     1      18.327   4.229  31.841  1.00  0.00    -0.002 A 
HETATM   20  C11 UNK     1      17.620   5.268  32.451  1.00  0.00     0.014 A 
HETATM   21  C13 UNK     1      17.600   6.537  31.871  1.00  0.00     0.001 A 
HETATM   22  C16 UNK     1      18.285   6.770  30.679  1.00  0.00     0.000 A 
HETATM   23  C14 UNK     1      18.991   5.734  30.066  1.00  0.00     0.001 A 
HETATM   24  C12 UNK     1      19.013   4.465  30.646  1.00  0.00     0.014 A 
ENDBRANCH   5  19
TORSDOF 4
ENDMDL
MODEL 8
REMARK VINA RESULT:      -7.9     14.439     18.308
REMARK  4 active torsions:
REMARK  status: ('A' for Active; 'I' for Inactive)
REMARK    1  A    between atoms: C15_20  and  O2_2 
REMARK    2  A    between atoms: C8_13  and  O2_2 
REMARK       I    between atoms: C17_22  and  N1_5 
REMARK    3  A    between atoms: C3_8  and  C6_11 
REMARK    4  A    between atoms: C15_20  and  C17_22 
ROOT
HETATM    1  O1  UNK     1      20.467  -1.867  17.550  1.00  0.00    -0.309 OA
HETATM    2  O3  UNK     1      17.768  -3.157  14.784  1.00  0.00    -0.287 OA
HETATM    3  C1  UNK     1      19.849  -3.491  15.852  1.00  0.00     0.051 A 
HETATM    4  C2  UNK     1      20.728  -2.996  16.815  1.00  0.00     0.090 A 
HETATM    5  C3  UNK     1      19.281  -1.186  17.317  1.00  0.00     0.090 A 
HETATM    6  C4  UNK     1      18.586  -2.777  15.610  1.00  0.00     0.187 A 
HETATM    7  C5  UNK     1      20.166  -4.646  15.135  1.00  0.00     0.055 A 
HETATM    8  C7  UNK     1      18.354  -1.567  16.424  1.00  0.00     0.093 A 
HETATM    9  C8  UNK     1      21.371  -5.304  15.388  1.00  0.00     0.070 A 
HETATM   10  C9  UNK     1      21.931  -3.654  17.066  1.00  0.00     0.041 A 
HETATM   11  C10 UNK     1      22.251  -4.809  16.351  1.00  0.00     0.039 A 
ENDROOT
BRANCH   9  12
HETATM   12  O2  UNK     1      21.688  -6.431  14.694  1.00  0.00    -0.342 OA
BRANCH  12  13
HETATM   13  C15 UNK     1      20.715  -6.921  13.773  1.00  0.00     0.278 C 
BRANCH  13  14
HETATM   14  C17 UNK     1      21.325  -8.017  12.931  1.00  0.00     0.239 C 
HETATM   15  O4  UNK     1      22.439  -7.943  12.420  1.00  0.00    -0.271 OA
HETATM   16  N1  UNK     1      20.491  -9.106  12.804  1.00  0.00    -0.368 N 
HETATM   17  H12 UNK     1      20.773  -9.919  12.264  1.00  0.00     0.159 HD
HETATM   18  H13 UNK     1      19.575  -9.142  13.238  1.00  0.00     0.159 HD
ENDBRANCH  13  14
ENDBRANCH  12  13
ENDBRANCH   9  12
BRANCH   5  19
HETATM   19  C6  UNK     1      19.098   0.008  18.166  1.00  0.00    -0.002 A 
HETATM   20  C11 UNK     1      18.925  -0.130  19.545  1.00  0.00     0.014 A 
HETATM   21  C13 UNK     1      18.753   0.999  20.347  1.00  0.00     0.001 A 
HETATM   22  C16 UNK     1      18.753   2.269  19.772  1.00  0.00     0.000 A 
HETATM   23  C14 UNK     1      18.925   2.411  18.395  1.00  0.00     0.001 A 
HETATM   24  C12 UNK     1      19.098   1.283  17.593  1.00  0.00     0.014 A 
ENDBRANCH   5  19
TORSDOF 4
ENDMDL
MODEL 9
REMARK VINA RESULT:      -7.8      3.994      8.099
REMARK  4 active torsions:
REMARK  status: ('A' for Active; 'I' for Inactive)
REMARK    1  A    between atoms: C15_20  and  O2_2 
REMARK    2  A    between atoms: C8_13  and  O2_2 
REMARK       I    between atoms: C17_22  and  N1_5 
REMARK    3  A    between atoms: C3_8  and  C6_11 
REMARK    4  A    between atoms: C15_20  and  C17_22 
ROOT
HETATM    1  O1  UNK     1      18.371   4.023  34.698  1.00  0.00    -0.309 OA
HETATM    2  O3  UNK     1      18.123   1.793  31.297  1.00  0.00    -0.287 OA
HETATM    3  C1  UNK     1      18.264   1.831  33.655  1.00  0.00     0.051 A 
HETATM    4  C2  UNK     1      18.346   2.653  34.778  1.00  0.00     0.090 A 
HETATM    5  C3  UNK     1      18.319   4.612  33.443  1.00  0.00     0.090 A 
HETATM    6  C4  UNK     1      18.200   2.453  32.324  1.00  0.00     0.187 A 
HETATM    7  C5  UNK     1      18.241   0.442  33.797  1.00  0.00     0.055 A 
HETATM    8  C7  UNK     1      18.232   3.929  32.291  1.00  0.00     0.093 A 
HETATM    9  C8  UNK     1      18.302  -0.120  35.073  1.00  0.00     0.070 A 
HETATM   10  C9  UNK     1      18.406   2.089  36.052  1.00  0.00     0.041 A 
HETATM   11  C10 UNK     1      18.384   0.702  36.198  1.00  0.00     0.039 A 
ENDROOT
BRANCH   9  12
HETATM   12  O2  UNK     1      18.279  -1.473  35.221  1.00  0.00    -0.342 OA
BRANCH  12  13
HETATM   13  C15 UNK     1      19.335  -2.060  35.979  1.00  0.00     0.278 C 
BRANCH  13  14
HETATM   14  C17 UNK     1      20.532  -2.289  35.087  1.00  0.00     0.239 C 
HETATM   15  O4  UNK     1      21.672  -1.937  35.375  1.00  0.00    -0.271 OA
HETATM   16  N1  UNK     1      20.198  -2.936  33.918  1.00  0.00    -0.368 N 
HETATM   17  H12 UNK     1      20.905  -3.156  33.223  1.00  0.00     0.159 HD
HETATM   18  H13 UNK     1      19.246  -3.217  33.705  1.00  0.00     0.159 HD
ENDBRANCH  13  14
ENDBRANCH  12  13
ENDBRANCH   9  12
BRANCH   5  19
HETATM   19  C6  UNK     1      18.344   6.088  33.472  1.00  0.00    -0.002 A 
HETATM   20  C11 UNK     1      19.379   6.759  34.130  1.00  0.00     0.014 A 
HETATM   21  C13 UNK     1      19.402   8.155  34.156  1.00  0.00     0.001 A 
HETATM   22  C16 UNK     1      18.392   8.882  33.527  1.00  0.00     0.000 A 
HETATM   23  C14 UNK     1      17.358   8.215  32.871  1.00  0.00     0.001 A 
HETATM   24  C12 UNK     1      17.334   6.820  32.843  1.00  0.00     0.014 A 
ENDBRANCH   5  19
TORSDOF 4
ENDMDL
MODEL 10
REMARK VINA RESULT:      -7.8     13.723     16.240
REMARK  4 active torsions:
REMARK  status: ('A' for Active; 'I' for Inactive)
REMARK    1  A    between atoms: C15_20  and  O2_2 
REMARK    2  A    between atoms: C8_13  and  O2_2 
REMARK       I    between atoms: C17_22  and  N1_5 
REMARK    3  A    between atoms: C3_8  and  C6_11 
REMARK    4  A    between atoms: C15_20  and  C17_22 
ROOT
HETATM    1  O1  UNK     1      19.642   0.139  14.488  1.00  0.00    -0.309 OA
HETATM    2  O3  UNK     1      18.299  -2.219  17.528  1.00  0.00    -0.287 OA
HETATM    3  C1  UNK     1      18.920  -0.059  16.799  1.00  0.00     0.051 A 
HETATM    4  C2  UNK     1      19.380   0.690  15.717  1.00  0.00     0.090 A 
HETATM    5  C3  UNK     1      19.447  -1.225  14.320  1.00  0.00     0.090 A 
HETATM    6  C4  UNK     1      18.704  -1.502  16.623  1.00  0.00     0.187 A 
HETATM    7  C5  UNK     1      18.669   0.557  18.028  1.00  0.00     0.055 A 
HETATM    8  C7  UNK     1      19.002  -2.048  15.283  1.00  0.00     0.093 A 
HETATM    9  C8  UNK     1      18.881   1.929  18.165  1.00  0.00     0.070 A 
HETATM   10  C9  UNK     1      19.591   2.062  15.857  1.00  0.00     0.041 A 
HETATM   11  C10 UNK     1      19.341   2.680  17.082  1.00  0.00     0.039 A 
ENDROOT
BRANCH   9  12
HETATM   12  O2  UNK     1      18.638   2.537  19.358  1.00  0.00    -0.342 OA
BRANCH  12  13
HETATM   13  C15 UNK     1      18.287   1.697  20.456  1.00  0.00     0.278 C 
BRANCH  13  14
HETATM   14  C17 UNK     1      19.499   1.475  21.330  1.00  0.00     0.239 C 
HETATM   15  O4  UNK     1      20.168   2.386  21.809  1.00  0.00    -0.271 OA
HETATM   16  N1  UNK     1      19.764   0.139  21.530  1.00  0.00    -0.368 N 
HETATM   17  H12 UNK     1      20.550  -0.158  22.099  1.00  0.00     0.159 HD
HETATM   18  H13 UNK     1      19.193  -0.595  21.123  1.00  0.00     0.159 HD
ENDBRANCH  13  14
ENDBRANCH  12  13
ENDBRANCH   9  12
BRANCH   5  19
HETATM   19  C6  UNK     1      19.752  -1.711  12.960  1.00  0.00    -0.002 A 
HETATM   20  C11 UNK     1      20.808  -1.154  12.236  1.00  0.00     0.014 A 
HETATM   21  C13 UNK     1      21.096  -1.614  10.950  1.00  0.00     0.001 A 
HETATM   22  C16 UNK     1      20.329  -2.633  10.386  1.00  0.00     0.000 A 
HETATM   23  C14 UNK     1      19.273  -3.191  11.106  1.00  0.00     0.001 A 
HETATM   24  C12 UNK     1      18.985  -2.731  12.392  1.00  0.00     0.014 A 
ENDBRANCH   5  19
TORSDOF 4
ENDMDL
