MODEL 1
REMARK VINA RESULT:      -8.2      0.000      0.000
REMARK  3 active torsions:
REMARK  status: ('A' for Active; 'I' for Inactive)
REMARK    1  A    between atoms: C5_11  and  N1_6 
REMARK       I    between atoms: C6_12  and  N1_6 
REMARK    2  A    between atoms: C2_8  and  C6_12 
REMARK    3  A    between atoms: C5_11  and  C7_13 
ROOT
HETATM    1 Br1  UNK     1      21.275  -3.250  32.373  1.00  0.00    -0.051 Br
HETATM    2  O1  UNK     1      18.953   0.851  28.552  1.00  0.00    -0.274 OA
HETATM    3  O4  UNK     1      18.058   2.917  28.163  1.00  0.00    -0.259 OA
HETATM    4  C1  UNK     1      19.604   0.231  30.811  1.00  0.00     0.000 A 
HETATM    5  C2  UNK     1      18.655   2.423  30.402  1.00  0.00     0.108 A 
HETATM    6  C3  UNK     1      19.489  -0.082  29.461  1.00  0.00     0.089 A 
HETATM    7  C4  UNK     1      19.162   1.540  31.270  1.00  0.00     0.037 A 
HETATM    8  C8  UNK     1      20.140  -0.721  31.682  1.00  0.00     0.033 A 
HETATM    9  C9  UNK     1      18.522   2.110  28.961  1.00  0.00     0.304 A 
HETATM   10  C10 UNK     1      19.892  -1.317  28.957  1.00  0.00     0.039 A 
HETATM   11  C11 UNK     1      20.550  -1.964  31.191  1.00  0.00     0.011 A 
HETATM   12  C12 UNK     1      20.426  -2.261  29.832  1.00  0.00     0.022 A 
ENDROOT
BRANCH   5  13
HETATM   13  C6  UNK     1      18.238   3.714  30.960  1.00  0.00     0.258 C 
HETATM   14  O3  UNK     1      17.465   3.770  31.915  1.00  0.00    -0.267 OA
HETATM   15  N1  UNK     1      18.802   4.792  30.302  1.00  0.00    -0.351 N 
HETATM   16  H4  UNK     1      19.420   4.642  29.510  1.00  0.00     0.163 HD
BRANCH  15  17
HETATM   17  C5  UNK     1      18.538   6.165  30.669  1.00  0.00     0.187 C 
BRANCH  17  18
HETATM   18  C7  UNK     1      18.925   6.510  32.082  1.00  0.00     0.070 A 
HETATM   19  C13 UNK     1      20.105   6.449  32.737  1.00  0.00     0.036 A 
HETATM   20  C14 UNK     1      19.823   6.910  34.046  1.00  0.00     0.027 A 
HETATM   21  C15 UNK     1      18.481   7.210  34.063  1.00  0.00     0.142 A 
HETATM   22  O2  UNK     1      17.921   6.965  32.849  1.00  0.00    -0.325 OA
ENDBRANCH  17  18
ENDBRANCH  15  17
ENDBRANCH   5  13
TORSDOF 3
ENDMDL
MODEL 2
REMARK VINA RESULT:      -8.1      5.596      8.796
REMARK  3 active torsions:
REMARK  status: ('A' for Active; 'I' for Inactive)
REMARK    1  A    between atoms: C5_11  and  N1_6 
REMARK       I    between atoms: C6_12  and  N1_6 
REMARK    2  A    between atoms: C2_8  and  C6_12 
REMARK    3  A    between atoms: C5_11  and  C7_13 
ROOT
HETATM    1 Br1  UNK     1      18.251   2.416  28.980  1.00  0.00    -0.051 Br
HETATM    2  O1  UNK     1      20.773  -2.787  30.818  1.00  0.00    -0.274 OA
HETATM    3  O4  UNK     1      21.374  -4.217  32.497  1.00  0.00    -0.259 OA
HETATM    4  C1  UNK     1      19.660  -0.695  31.364  1.00  0.00     0.000 A 
HETATM    5  C2  UNK     1      20.296  -2.209  33.146  1.00  0.00     0.108 A 
HETATM    6  C3  UNK     1      20.182  -1.572  30.419  1.00  0.00     0.089 A 
HETATM    7  C4  UNK     1      19.734  -1.053  32.773  1.00  0.00     0.037 A 
HETATM    8  C8  UNK     1      19.082   0.500  30.929  1.00  0.00     0.033 A 
HETATM    9  C9  UNK     1      20.859  -3.157  32.158  1.00  0.00     0.304 A 
HETATM   10  C10 UNK     1      20.143  -1.290  29.055  1.00  0.00     0.039 A 
HETATM   11  C11 UNK     1      19.035   0.797  29.564  1.00  0.00     0.011 A 
HETATM   12  C12 UNK     1      19.564  -0.096  28.629  1.00  0.00     0.022 A 
ENDROOT
BRANCH   5  13
HETATM   13  C6  UNK     1      20.323  -2.480  34.588  1.00  0.00     0.258 C 
HETATM   14  O3  UNK     1      20.691  -1.620  35.386  1.00  0.00    -0.267 OA
HETATM   15  N1  UNK     1      19.904  -3.761  34.903  1.00  0.00    -0.351 N 
HETATM   16  H4  UNK     1      19.633  -4.405  34.166  1.00  0.00     0.163 HD
BRANCH  15  17
HETATM   17  C5  UNK     1      19.848  -4.260  36.257  1.00  0.00     0.187 C 
BRANCH  17  18
HETATM   18  C7  UNK     1      19.743  -5.759  36.357  1.00  0.00     0.070 A 
HETATM   19  C13 UNK     1      18.709  -6.575  36.657  1.00  0.00     0.036 A 
HETATM   20  C14 UNK     1      19.243  -7.884  36.587  1.00  0.00     0.027 A 
HETATM   21  C15 UNK     1      20.568  -7.738  36.249  1.00  0.00     0.142 A 
HETATM   22  O2  UNK     1      20.882  -6.424  36.105  1.00  0.00    -0.325 OA
ENDBRANCH  17  18
ENDBRANCH  15  17
ENDBRANCH   5  13
TORSDOF 3
ENDMDL
MODEL 3
REMARK VINA RESULT:      -7.9     22.379     24.731
REMARK  3 active torsions:
REMARK  status: ('A' for Active; 'I' for Inactive)
REMARK    1  A    between atoms: C5_11  and  N1_6 
REMARK       I    between atoms: C6_12  and  N1_6 
REMARK    2  A    between atoms: C2_8  and  C6_12 
REMARK    3  A    between atoms: C5_11  and  C7_13 
ROOT
HETATM    1 Br1  UNK     1      16.863  13.483   7.104  1.00  0.00    -0.051 Br
HETATM    2  O1  UNK     1      16.387   8.381  10.353  1.00  0.00    -0.274 OA
HETATM    3  O4  UNK     1      15.207   6.524  10.971  1.00  0.00    -0.259 OA
HETATM    4  C1  UNK     1      15.428   9.934   8.748  1.00  0.00     0.000 A 
HETATM    5  C2  UNK     1      14.173   7.967   9.401  1.00  0.00     0.108 A 
HETATM    6  C3  UNK     1      16.472   9.560   9.587  1.00  0.00     0.089 A 
HETATM    7  C4  UNK     1      14.247   9.087   8.672  1.00  0.00     0.037 A 
HETATM    8  C8  UNK     1      15.549  11.111   8.005  1.00  0.00     0.033 A 
HETATM    9  C9  UNK     1      15.271   7.550  10.302  1.00  0.00     0.304 A 
HETATM   10  C10 UNK     1      17.629  10.327   9.706  1.00  0.00     0.039 A 
HETATM   11  C11 UNK     1      16.704  11.891   8.112  1.00  0.00     0.011 A 
HETATM   12  C12 UNK     1      17.742  11.499   8.961  1.00  0.00     0.022 A 
ENDROOT
BRANCH   5  13
HETATM   13  C6  UNK     1      12.943   7.180   9.256  1.00  0.00     0.258 C 
HETATM   14  O3  UNK     1      11.898   7.536   9.797  1.00  0.00    -0.267 OA
HETATM   15  N1  UNK     1      13.116   6.051   8.476  1.00  0.00    -0.351 N 
HETATM   16  H4  UNK     1      14.027   5.834   8.084  1.00  0.00     0.163 HD
BRANCH  15  17
HETATM   17  C5  UNK     1      12.049   5.119   8.192  1.00  0.00     0.187 C 
BRANCH  17  18
HETATM   18  C7  UNK     1      10.992   5.655   7.265  1.00  0.00     0.070 A 
HETATM   19  C13 UNK     1      11.065   6.217   6.038  1.00  0.00     0.036 A 
HETATM   20  C14 UNK     1       9.726   6.514   5.689  1.00  0.00     0.027 A 
HETATM   21  C15 UNK     1       8.955   6.099   6.750  1.00  0.00     0.142 A 
HETATM   22  O2  UNK     1       9.734   5.567   7.728  1.00  0.00    -0.325 OA
ENDBRANCH  17  18
ENDBRANCH  15  17
ENDBRANCH   5  13
TORSDOF 3
ENDMDL
MODEL 4
REMARK VINA RESULT:      -7.8      3.579      7.749
REMARK  3 active torsions:
REMARK  status: ('A' for Active; 'I' for Inactive)
REMARK    1  A    between atoms: C5_11  and  N1_6 
REMARK       I    between atoms: C6_12  and  N1_6 
REMARK    2  A    between atoms: C2_8  and  C6_12 
REMARK    3  A    between atoms: C5_11  and  C7_13 
ROOT
HETATM    1 Br1  UNK     1      14.568   9.089  34.389  1.00  0.00    -0.051 Br
HETATM    2  O1  UNK     1      19.978   7.010  32.593  1.00  0.00    -0.274 OA
HETATM    3  O4  UNK     1      21.234   5.603  31.304  1.00  0.00    -0.259 OA
HETATM    4  C1  UNK     1      17.552   6.929  32.445  1.00  0.00     0.000 A 
HETATM    5  C2  UNK     1      18.882   5.436  31.076  1.00  0.00     0.108 A 
HETATM    6  C3  UNK     1      18.709   7.474  32.992  1.00  0.00     0.089 A 
HETATM    7  C4  UNK     1      17.674   5.872  31.452  1.00  0.00     0.037 A 
HETATM    8  C8  UNK     1      16.312   7.416  32.866  1.00  0.00     0.033 A 
HETATM    9  C9  UNK     1      20.126   6.000  31.647  1.00  0.00     0.304 A 
HETATM   10  C10 UNK     1      18.662   8.488  33.947  1.00  0.00     0.039 A 
HETATM   11  C11 UNK     1      16.249   8.434  33.823  1.00  0.00     0.011 A 
HETATM   12  C12 UNK     1      17.422   8.968  34.361  1.00  0.00     0.022 A 
ENDROOT
BRANCH   5  13
HETATM   13  C6  UNK     1      18.901   4.368  30.070  1.00  0.00     0.258 C 
HETATM   14  O3  UNK     1      18.754   4.622  28.876  1.00  0.00    -0.267 OA
HETATM   15  N1  UNK     1      19.094   3.114  30.620  1.00  0.00    -0.351 N 
HETATM   16  H4  UNK     1      19.190   3.005  31.625  1.00  0.00     0.163 HD
BRANCH  15  17
HETATM   17  C5  UNK     1      19.146   1.906  29.828  1.00  0.00     0.187 C 
BRANCH  17  18
HETATM   18  C7  UNK     1      19.445   0.662  30.621  1.00  0.00     0.070 A 
HETATM   19  C13 UNK     1      20.397  -0.288  30.490  1.00  0.00     0.036 A 
HETATM   20  C14 UNK     1      20.152  -1.201  31.543  1.00  0.00     0.027 A 
HETATM   21  C15 UNK     1      19.060  -0.715  32.223  1.00  0.00     0.142 A 
HETATM   22  O2  UNK     1      18.619   0.438  31.656  1.00  0.00    -0.325 OA
ENDBRANCH  17  18
ENDBRANCH  15  17
ENDBRANCH   5  13
TORSDOF 3
ENDMDL
MODEL 5
REMARK VINA RESULT:      -7.8     13.445     16.511
REMARK  3 active torsions:
REMARK  status: ('A' for Active; 'I' for Inactive)
REMARK    1  A    between atoms: C5_11  and  N1_6 
REMARK       I    between atoms: C6_12  and  N1_6 
REMARK    2  A    between atoms: C2_8  and  C6_12 
REMARK    3  A    between atoms: C5_11  and  C7_13 
ROOT
HETATM    1 Br1  UNK     1      18.933   2.018  21.083  1.00  0.00    -0.051 Br
HETATM    2  O1  UNK     1      19.236   0.910  15.125  1.00  0.00    -0.274 OA
HETATM    3  O4  UNK     1      19.277  -0.565  13.381  1.00  0.00    -0.259 OA
HETATM    4  C1  UNK     1      19.070   0.073  17.402  1.00  0.00     0.000 A 
HETATM    5  C2  UNK     1      19.114  -1.494  15.555  1.00  0.00     0.108 A 
HETATM    6  C3  UNK     1      19.164   1.139  16.514  1.00  0.00     0.089 A 
HETATM    7  C4  UNK     1      19.046  -1.283  16.875  1.00  0.00     0.037 A 
HETATM    8  C8  UNK     1      19.001   0.341  18.772  1.00  0.00     0.033 A 
HETATM    9  C9  UNK     1      19.216  -0.375  14.591  1.00  0.00     0.304 A 
HETATM   10  C10 UNK     1      19.191   2.461  16.953  1.00  0.00     0.039 A 
HETATM   11  C11 UNK     1      19.027   1.662  19.229  1.00  0.00     0.011 A 
HETATM   12  C12 UNK     1      19.122   2.720  18.321  1.00  0.00     0.022 A 
ENDROOT
BRANCH   5  13
HETATM   13  C6  UNK     1      19.082  -2.895  15.121  1.00  0.00     0.258 C 
HETATM   14  O3  UNK     1      20.018  -3.382  14.488  1.00  0.00    -0.267 OA
HETATM   15  N1  UNK     1      17.924  -3.550  15.498  1.00  0.00    -0.351 N 
HETATM   16  H4  UNK     1      17.199  -3.054  16.008  1.00  0.00     0.163 HD
BRANCH  15  17
HETATM   17  C5  UNK     1      17.663  -4.936  15.181  1.00  0.00     0.187 C 
BRANCH  17  18
HETATM   18  C7  UNK     1      16.772  -5.637  16.171  1.00  0.00     0.070 A 
HETATM   19  C13 UNK     1      16.455  -6.939  16.339  1.00  0.00     0.036 A 
HETATM   20  C14 UNK     1      15.569  -6.963  17.443  1.00  0.00     0.027 A 
HETATM   21  C15 UNK     1      15.430  -5.656  17.847  1.00  0.00     0.142 A 
HETATM   22  O2  UNK     1      16.173  -4.831  17.064  1.00  0.00    -0.325 OA
ENDBRANCH  17  18
ENDBRANCH  15  17
ENDBRANCH   5  13
TORSDOF 3
ENDMDL
MODEL 6
REMARK VINA RESULT:      -7.8      4.650      7.041
REMARK  3 active torsions:
REMARK  status: ('A' for Active; 'I' for Inactive)
REMARK    1  A    between atoms: C5_11  and  N1_6 
REMARK       I    between atoms: C6_12  and  N1_6 
REMARK    2  A    between atoms: C2_8  and  C6_12 
REMARK    3  A    between atoms: C5_11  and  C7_13 
ROOT
HETATM    1 Br1  UNK     1      18.625   8.607  34.187  1.00  0.00    -0.051 Br
HETATM    2  O1  UNK     1      18.577   3.528  30.869  1.00  0.00    -0.274 OA
HETATM    3  O4  UNK     1      18.403   1.254  30.724  1.00  0.00    -0.259 OA
HETATM    4  C1  UNK     1      18.422   4.607  33.042  1.00  0.00     0.000 A 
HETATM    5  C2  UNK     1      18.238   2.196  32.892  1.00  0.00     0.108 A 
HETATM    6  C3  UNK     1      18.584   4.692  31.663  1.00  0.00     0.089 A 
HETATM    7  C4  UNK     1      18.244   3.298  33.651  1.00  0.00     0.037 A 
HETATM    8  C8  UNK     1      18.435   5.784  33.796  1.00  0.00     0.033 A 
HETATM    9  C9  UNK     1      18.409   2.261  31.423  1.00  0.00     0.304 A 
HETATM   10  C10 UNK     1      18.758   5.914  31.018  1.00  0.00     0.039 A 
HETATM   11  C11 UNK     1      18.609   7.018  33.163  1.00  0.00     0.011 A 
HETATM   12  C12 UNK     1      18.770   7.082  31.776  1.00  0.00     0.022 A 
ENDROOT
BRANCH   5  13
HETATM   13  C6  UNK     1      18.052   0.923  33.598  1.00  0.00     0.258 C 
HETATM   14  O3  UNK     1      18.972   0.114  33.695  1.00  0.00    -0.267 OA
HETATM   15  N1  UNK     1      16.774   0.771  34.107  1.00  0.00    -0.351 N 
HETATM   16  H4  UNK     1      16.076   1.494  33.960  1.00  0.00     0.163 HD
BRANCH  15  17
HETATM   17  C5  UNK     1      16.352  -0.401  34.838  1.00  0.00     0.187 C 
BRANCH  17  18
HETATM   18  C7  UNK     1      17.064  -0.598  36.150  1.00  0.00     0.070 A 
HETATM   19  C13 UNK     1      17.707  -1.663  36.678  1.00  0.00     0.036 A 
HETATM   20  C14 UNK     1      18.167  -1.223  37.943  1.00  0.00     0.027 A 
HETATM   21  C15 UNK     1      17.754   0.083  38.065  1.00  0.00     0.142 A 
HETATM   22  O2  UNK     1      17.071   0.475  36.958  1.00  0.00    -0.325 OA
ENDBRANCH  17  18
ENDBRANCH  15  17
ENDBRANCH   5  13
TORSDOF 3
ENDMDL
MODEL 7
REMARK VINA RESULT:      -7.8      1.776      2.658
REMARK  3 active torsions:
REMARK  status: ('A' for Active; 'I' for Inactive)
REMARK    1  A    between atoms: C5_11  and  N1_6 
REMARK       I    between atoms: C6_12  and  N1_6 
REMARK    2  A    between atoms: C2_8  and  C6_12 
REMARK    3  A    between atoms: C5_11  and  C7_13 
ROOT
HETATM    1 Br1  UNK     1      20.028  -2.900  35.908  1.00  0.00    -0.051 Br
HETATM    2  O1  UNK     1      20.456  -1.630  29.990  1.00  0.00    -0.274 OA
HETATM    3  O4  UNK     1      20.014  -0.256  28.219  1.00  0.00    -0.259 OA
HETATM    4  C1  UNK     1      19.670  -1.019  32.208  1.00  0.00     0.000 A 
HETATM    5  C2  UNK     1      19.200   0.440  30.332  1.00  0.00     0.108 A 
HETATM    6  C3  UNK     1      20.342  -1.900  31.368  1.00  0.00     0.089 A 
HETATM    7  C4  UNK     1      19.088   0.188  31.642  1.00  0.00     0.037 A 
HETATM    8  C8  UNK     1      19.578  -1.322  33.569  1.00  0.00     0.033 A 
HETATM    9  C9  UNK     1      19.909  -0.484  29.419  1.00  0.00     0.304 A 
HETATM   10  C10 UNK     1      20.922  -3.073  31.847  1.00  0.00     0.039 A 
HETATM   11  C11 UNK     1      20.155  -2.495  34.065  1.00  0.00     0.011 A 
HETATM   12  C12 UNK     1      20.826  -3.368  33.205  1.00  0.00     0.022 A 
ENDROOT
BRANCH   5  13
HETATM   13  C6  UNK     1      18.580   1.682  29.856  1.00  0.00     0.258 C 
HETATM   14  O3  UNK     1      17.579   1.655  29.141  1.00  0.00    -0.267 OA
HETATM   15  N1  UNK     1      19.240   2.816  30.295  1.00  0.00    -0.351 N 
HETATM   16  H4  UNK     1      20.071   2.732  30.872  1.00  0.00     0.163 HD
BRANCH  15  17
HETATM   17  C5  UNK     1      18.817   4.155  29.953  1.00  0.00     0.187 C 
BRANCH  17  18
HETATM   18  C7  UNK     1      18.623   5.061  31.139  1.00  0.00     0.070 A 
HETATM   19  C13 UNK     1      19.270   6.178  31.540  1.00  0.00     0.036 A 
HETATM   20  C14 UNK     1      18.618   6.571  32.733  1.00  0.00     0.027 A 
HETATM   21  C15 UNK     1      17.624   5.645  32.948  1.00  0.00     0.142 A 
HETATM   22  O2  UNK     1      17.623   4.708  31.964  1.00  0.00    -0.325 OA
ENDBRANCH  17  18
ENDBRANCH  15  17
ENDBRANCH   5  13
TORSDOF 3
ENDMDL
MODEL 8
REMARK VINA RESULT:      -7.7      8.111     10.154
REMARK  3 active torsions:
REMARK  status: ('A' for Active; 'I' for Inactive)
REMARK    1  A    between atoms: C5_11  and  N1_6 
REMARK       I    between atoms: C6_12  and  N1_6 
REMARK    2  A    between atoms: C2_8  and  C6_12 
REMARK    3  A    between atoms: C5_11  and  C7_13 
ROOT
HETATM    1 Br1  UNK     1      23.162 -11.456  35.913  1.00  0.00    -0.051 Br
HETATM    2  O1  UNK     1      18.371  -7.884  36.967  1.00  0.00    -0.274 OA
HETATM    3  O4  UNK     1      17.410  -5.811  37.000  1.00  0.00    -0.259 OA
HETATM    4  C1  UNK     1      20.686  -8.124  36.264  1.00  0.00     0.000 A 
HETATM    5  C2  UNK     1      19.671  -5.924  36.298  1.00  0.00     0.108 A 
HETATM    6  C3  UNK     1      19.498  -8.691  36.714  1.00  0.00     0.089 A 
HETATM    7  C4  UNK     1      20.745  -6.685  36.057  1.00  0.00     0.037 A 
HETATM    8  C8  UNK     1      21.783  -8.956  36.025  1.00  0.00     0.033 A 
HETATM    9  C9  UNK     1      18.397  -6.505  36.779  1.00  0.00     0.304 A 
HETATM   10  C10 UNK     1      19.376 -10.061  36.932  1.00  0.00     0.039 A 
HETATM   11  C11 UNK     1      21.675 -10.333  36.238  1.00  0.00     0.011 A 
HETATM   12  C12 UNK     1      20.473 -10.884  36.691  1.00  0.00     0.022 A 
ENDROOT
BRANCH   5  13
HETATM   13  C6  UNK     1      19.829  -4.485  36.060  1.00  0.00     0.258 C 
HETATM   14  O3  UNK     1      20.293  -4.067  35.000  1.00  0.00    -0.267 OA
HETATM   15  N1  UNK     1      19.410  -3.713  37.128  1.00  0.00    -0.351 N 
HETATM   16  H4  UNK     1      19.054  -4.155  37.970  1.00  0.00     0.163 HD
BRANCH  15  17
HETATM   17  C5  UNK     1      19.471  -2.269  37.129  1.00  0.00     0.187 C 
BRANCH  17  18
HETATM   18  C7  UNK     1      18.578  -1.614  36.109  1.00  0.00     0.070 A 
HETATM   19  C13 UNK     1      17.236  -1.474  36.039  1.00  0.00     0.036 A 
HETATM   20  C14 UNK     1      17.003  -0.763  34.838  1.00  0.00     0.027 A 
HETATM   21  C15 UNK     1      18.241  -0.536  34.284  1.00  0.00     0.142 A 
HETATM   22  O2  UNK     1      19.219  -1.060  35.067  1.00  0.00    -0.325 OA
ENDBRANCH  17  18
ENDBRANCH  15  17
ENDBRANCH   5  13
TORSDOF 3
ENDMDL
MODEL 9
REMARK VINA RESULT:      -7.7      2.853      3.440
REMARK  3 active torsions:
REMARK  status: ('A' for Active; 'I' for Inactive)
REMARK    1  A    between atoms: C5_11  and  N1_6 
REMARK       I    between atoms: C6_12  and  N1_6 
REMARK    2  A    between atoms: C2_8  and  C6_12 
REMARK    3  A    between atoms: C5_11  and  C7_13 
ROOT
HETATM    1 Br1  UNK     1      17.851  -0.257  37.547  1.00  0.00    -0.051 Br
HETATM    2  O1  UNK     1      18.678   0.866  31.642  1.00  0.00    -0.274 OA
HETATM    3  O4  UNK     1      18.811   2.341  29.902  1.00  0.00    -0.259 OA
HETATM    4  C1  UNK     1      18.240   1.692  33.887  1.00  0.00     0.000 A 
HETATM    5  C2  UNK     1      18.380   3.260  32.044  1.00  0.00     0.108 A 
HETATM    6  C3  UNK     1      18.483   0.633  33.018  1.00  0.00     0.089 A 
HETATM    7  C4  UNK     1      18.192   3.045  33.351  1.00  0.00     0.037 A 
HETATM    8  C8  UNK     1      18.051   1.422  35.244  1.00  0.00     0.033 A 
HETATM    9  C9  UNK     1      18.638   2.148  31.101  1.00  0.00     0.304 A 
HETATM   10  C10 UNK     1      18.541  -0.685  33.466  1.00  0.00     0.039 A 
HETATM   11  C11 UNK     1      18.107   0.104  35.709  1.00  0.00     0.011 A 
HETATM   12  C12 UNK     1      18.352  -0.946  34.821  1.00  0.00     0.022 A 
ENDROOT
BRANCH   5  13
HETATM   13  C6  UNK     1      18.313   4.657  31.601  1.00  0.00     0.258 C 
HETATM   14  O3  UNK     1      19.056   5.075  30.714  1.00  0.00    -0.267 OA
HETATM   15  N1  UNK     1      17.359   5.392  32.280  1.00  0.00    -0.351 N 
HETATM   16  H4  UNK     1      16.803   4.958  33.011  1.00  0.00     0.163 HD
BRANCH  15  17
HETATM   17  C5  UNK     1      17.111   6.792  32.020  1.00  0.00     0.187 C 
BRANCH  17  18
HETATM   18  C7  UNK     1      17.890   7.730  32.903  1.00  0.00     0.070 A 
HETATM   19  C13 UNK     1      18.999   7.553  33.654  1.00  0.00     0.036 A 
HETATM   20  C14 UNK     1      19.242   8.812  34.253  1.00  0.00     0.027 A 
HETATM   21  C15 UNK     1      18.244   9.646  33.805  1.00  0.00     0.142 A 
HETATM   22  O2  UNK     1      17.405   8.981  32.969  1.00  0.00    -0.325 OA
ENDBRANCH  17  18
ENDBRANCH  15  17
ENDBRANCH   5  13
TORSDOF 3
ENDMDL
MODEL 10
REMARK VINA RESULT:      -7.7     22.403     24.274
REMARK  3 active torsions:
REMARK  status: ('A' for Active; 'I' for Inactive)
REMARK    1  A    between atoms: C5_11  and  N1_6 
REMARK       I    between atoms: C6_12  and  N1_6 
REMARK    2  A    between atoms: C2_8  and  C6_12 
REMARK    3  A    between atoms: C5_11  and  C7_13 
ROOT
HETATM    1 Br1  UNK     1      17.145  10.225  10.108  1.00  0.00    -0.051 Br
HETATM    2  O1  UNK     1      14.133   5.083   8.967  1.00  0.00    -0.274 OA
HETATM    3  O4  UNK     1      12.273   4.001   8.199  1.00  0.00    -0.259 OA
HETATM    4  C1  UNK     1      14.212   7.512   8.929  1.00  0.00     0.000 A 
HETATM    5  C2  UNK     1      12.237   6.369   8.113  1.00  0.00     0.108 A 
HETATM    6  C3  UNK     1      14.811   6.291   9.222  1.00  0.00     0.089 A 
HETATM    7  C4  UNK     1      12.875   7.521   8.354  1.00  0.00     0.037 A 
HETATM    8  C8  UNK     1      14.915   8.690   9.196  1.00  0.00     0.033 A 
HETATM    9  C9  UNK     1      12.854   5.058   8.418  1.00  0.00     0.304 A 
HETATM   10  C10 UNK     1      16.088   6.214   9.773  1.00  0.00     0.039 A 
HETATM   11  C11 UNK     1      16.197   8.628   9.749  1.00  0.00     0.011 A 
HETATM   12  C12 UNK     1      16.782   7.393  10.037  1.00  0.00     0.022 A 
ENDROOT
BRANCH   5  13
HETATM   13  C6  UNK     1      10.895   6.481   7.532  1.00  0.00     0.258 C 
HETATM   14  O3  UNK     1      10.727   6.976   6.419  1.00  0.00    -0.267 OA
HETATM   15  N1  UNK     1       9.906   5.984   8.362  1.00  0.00    -0.351 N 
HETATM   16  H4  UNK     1      10.145   5.607   9.274  1.00  0.00     0.163 HD
BRANCH  15  17
HETATM   17  C5  UNK     1       8.505   5.988   8.008  1.00  0.00     0.187 C 
BRANCH  17  18
HETATM   18  C7  UNK     1       7.616   5.290   9.002  1.00  0.00     0.070 A 
HETATM   19  C13 UNK     1       6.975   5.729  10.107  1.00  0.00     0.036 A 
HETATM   20  C14 UNK     1       6.298   4.594  10.615  1.00  0.00     0.027 A 
HETATM   21  C15 UNK     1       6.597   3.559   9.760  1.00  0.00     0.142 A 
HETATM   22  O2  UNK     1       7.412   3.984   8.760  1.00  0.00    -0.325 OA
ENDBRANCH  17  18
ENDBRANCH  15  17
ENDBRANCH   5  13
TORSDOF 3
ENDMDL
