MODEL 1
REMARK VINA RESULT:      -9.1      0.000      0.000
REMARK  4 active torsions:
REMARK  status: ('A' for Active; 'I' for Inactive)
REMARK    1  A    between atoms: C6_13  and  O2_3 
REMARK    2  A    between atoms: C12_19  and  O3_4 
REMARK    3  A    between atoms: C3_10  and  N1_7 
REMARK       I    between atoms: C7_14  and  N1_7 
REMARK    4  A    between atoms: C2_9  and  C7_14 
ROOT
HETATM    1  O4  UNK     1      17.600   3.309  32.882  1.00  0.00    -0.267 OA
HETATM    2  N1  UNK     1      18.643   4.804  31.390  1.00  0.00    -0.320 N 
HETATM    3  C7  UNK     1      18.244   3.562  31.865  1.00  0.00     0.262 C 
HETATM    4  H2  UNK     1      19.196   4.842  30.537  1.00  0.00     0.169 HD
ENDROOT
BRANCH   2   5
HETATM    5  C3  UNK     1      18.399   6.070  31.973  1.00  0.00     0.070 A 
HETATM    6  C6  UNK     1      19.330   6.626  32.835  1.00  0.00     0.097 A 
HETATM    7  C11 UNK     1      19.076   7.874  33.403  1.00  0.00     0.077 A 
HETATM    8  C12 UNK     1      17.893   8.550  33.102  1.00  0.00     0.092 A 
HETATM    9  C14 UNK     1      16.965   7.977  32.233  1.00  0.00     0.069 A 
HETATM   10 Cl1  UNK     1      15.494   8.790  31.844  1.00  0.00    -0.081 Cl
HETATM   11  C8  UNK     1      17.219   6.728  31.665  1.00  0.00     0.059 A 
BRANCH   6  12
HETATM   12  O2  UNK     1      20.493   5.983  33.142  1.00  0.00    -0.354 OA
HETATM   13  C17 UNK     1      21.659   6.375  32.424  1.00  0.00     0.210 C 
ENDBRANCH   6  12
BRANCH   8  14
HETATM   14  O3  UNK     1      17.671   9.768  33.672  1.00  0.00    -0.354 OA
HETATM   15  C18 UNK     1      18.818  10.526  34.049  1.00  0.00     0.210 C 
ENDBRANCH   8  14
ENDBRANCH   2   5
BRANCH   3  16
HETATM   16  C2  UNK     1      18.679   2.468  30.989  1.00  0.00     0.108 A 
HETATM   17  C5  UNK     1      19.117   1.360  31.599  1.00  0.00     0.037 A 
HETATM   18  C1  UNK     1      19.570   0.222  30.815  1.00  0.00    -0.001 A 
HETATM   19  C4  UNK     1      19.540   0.306  29.427  1.00  0.00     0.089 A 
HETATM   20  C10 UNK     1      20.035  -0.954  31.409  1.00  0.00     0.014 A 
HETATM   21  C13 UNK     1      19.961  -0.749  28.619  1.00  0.00     0.038 A 
HETATM   22  O1  UNK     1      19.078   1.474  28.790  1.00  0.00    -0.274 OA
HETATM   23  C16 UNK     1      20.424  -1.917  29.219  1.00  0.00     0.003 A 
HETATM   24  C15 UNK     1      20.461  -2.020  30.611  1.00  0.00     0.001 A 
HETATM   25  C9  UNK     1      18.638   2.579  29.514  1.00  0.00     0.304 A 
HETATM   26  O5  UNK     1      18.238   3.593  28.951  1.00  0.00    -0.259 OA
ENDBRANCH   3  16
TORSDOF 4
ENDMDL
MODEL 2
REMARK VINA RESULT:      -9.0      8.677     12.783
REMARK  4 active torsions:
REMARK  status: ('A' for Active; 'I' for Inactive)
REMARK    1  A    between atoms: C6_13  and  O2_3 
REMARK    2  A    between atoms: C12_19  and  O3_4 
REMARK    3  A    between atoms: C3_10  and  N1_7 
REMARK       I    between atoms: C7_14  and  N1_7 
REMARK    4  A    between atoms: C2_9  and  C7_14 
ROOT
HETATM    1  O4  UNK     1      20.549  -4.122  37.918  1.00  0.00    -0.267 OA
HETATM    2  N1  UNK     1      19.413  -5.035  36.068  1.00  0.00    -0.320 N 
HETATM    3  C7  UNK     1      19.889  -4.019  36.885  1.00  0.00     0.262 C 
HETATM    4  H2  UNK     1      18.857  -4.783  35.255  1.00  0.00     0.169 HD
ENDROOT
BRANCH   2   5
HETATM    5  C3  UNK     1      19.581  -6.430  36.238  1.00  0.00     0.070 A 
HETATM    6  C6  UNK     1      18.472  -7.258  36.298  1.00  0.00     0.097 A 
HETATM    7  C11 UNK     1      18.652  -8.631  36.467  1.00  0.00     0.077 A 
HETATM    8  C12 UNK     1      19.940  -9.157  36.575  1.00  0.00     0.092 A 
HETATM    9  C14 UNK     1      21.047  -8.311  36.513  1.00  0.00     0.069 A 
HETATM   10 Cl1  UNK     1      22.649  -8.934  36.644  1.00  0.00    -0.081 Cl
HETATM   11  C8  UNK     1      20.866  -6.937  36.345  1.00  0.00     0.059 A 
BRANCH   6  12
HETATM   12  O2  UNK     1      17.205  -6.765  36.194  1.00  0.00    -0.354 OA
HETATM   13  C17 UNK     1      16.402  -7.259  35.126  1.00  0.00     0.210 C 
ENDBRANCH   6  12
BRANCH   8  14
HETATM   14  O3  UNK     1      20.087 -10.502  36.740  1.00  0.00    -0.354 OA
HETATM   15  C18 UNK     1      19.694 -11.047  37.998  1.00  0.00     0.210 C 
ENDBRANCH   8  14
ENDBRANCH   2   5
BRANCH   3  16
HETATM   16  C2  UNK     1      19.518  -2.689  36.388  1.00  0.00     0.108 A 
HETATM   17  C5  UNK     1      18.797  -1.926  37.219  1.00  0.00     0.037 A 
HETATM   18  C1  UNK     1      18.382  -0.592  36.814  1.00  0.00    -0.001 A 
HETATM   19  C4  UNK     1      18.747  -0.126  35.555  1.00  0.00     0.089 A 
HETATM   20  C10 UNK     1      17.629   0.238  37.648  1.00  0.00     0.014 A 
HETATM   21  C13 UNK     1      18.380   1.142  35.108  1.00  0.00     0.038 A 
HETATM   22  O1  UNK     1      19.506  -0.933  34.685  1.00  0.00    -0.274 OA
HETATM   23  C16 UNK     1      17.629   1.963  35.945  1.00  0.00     0.003 A 
HETATM   24  C15 UNK     1      17.254   1.513  37.213  1.00  0.00     0.001 A 
HETATM   25  C9  UNK     1      19.918  -2.213  35.044  1.00  0.00     0.304 A 
HETATM   26  O5  UNK     1      20.578  -2.909  34.280  1.00  0.00    -0.259 OA
ENDBRANCH   3  16
TORSDOF 4
ENDMDL
MODEL 3
REMARK VINA RESULT:      -8.9      1.277      2.070
REMARK  4 active torsions:
REMARK  status: ('A' for Active; 'I' for Inactive)
REMARK    1  A    between atoms: C6_13  and  O2_3 
REMARK    2  A    between atoms: C12_19  and  O3_4 
REMARK    3  A    between atoms: C3_10  and  N1_7 
REMARK       I    between atoms: C7_14  and  N1_7 
REMARK    4  A    between atoms: C2_9  and  C7_14 
ROOT
HETATM    1  O4  UNK     1      18.576   4.468  30.204  1.00  0.00    -0.267 OA
HETATM    2  N1  UNK     1      18.018   4.491  32.492  1.00  0.00    -0.320 N 
HETATM    3  C7  UNK     1      18.432   3.921  31.296  1.00  0.00     0.262 C 
HETATM    4  H2  UNK     1      17.926   3.892  33.309  1.00  0.00     0.169 HD
ENDROOT
BRANCH   2   5
HETATM    5  C3  UNK     1      17.666   5.842  32.728  1.00  0.00     0.070 A 
HETATM    6  C6  UNK     1      18.583   6.705  33.306  1.00  0.00     0.097 A 
HETATM    7  C11 UNK     1      18.222   8.033  33.533  1.00  0.00     0.077 A 
HETATM    8  C12 UNK     1      16.948   8.480  33.181  1.00  0.00     0.092 A 
HETATM    9  C14 UNK     1      16.036   7.599  32.600  1.00  0.00     0.069 A 
HETATM   10 Cl1  UNK     1      14.455   8.125  32.155  1.00  0.00    -0.081 Cl
HETATM   11  C8  UNK     1      16.396   6.270  32.373  1.00  0.00     0.059 A 
BRANCH   6  12
HETATM   12  O2  UNK     1      19.833   6.289  33.657  1.00  0.00    -0.354 OA
HETATM   13  C17 UNK     1      20.885   6.546  32.732  1.00  0.00     0.210 C 
ENDBRANCH   6  12
BRANCH   8  14
HETATM   14  O3  UNK     1      16.622   9.783  33.415  1.00  0.00    -0.354 OA
HETATM   15  C18 UNK     1      16.037  10.087  34.679  1.00  0.00     0.210 C 
ENDBRANCH   8  14
ENDBRANCH   2   5
BRANCH   3  16
HETATM   16  C2  UNK     1      18.714   2.488  31.435  1.00  0.00     0.108 A 
HETATM   17  C5  UNK     1      19.309   1.898  30.390  1.00  0.00     0.037 A 
HETATM   18  C1  UNK     1      19.628   0.479  30.434  1.00  0.00    -0.001 A 
HETATM   19  C4  UNK     1      19.306  -0.249  31.574  1.00  0.00     0.089 A 
HETATM   20  C10 UNK     1      20.249  -0.177  29.367  1.00  0.00     0.014 A 
HETATM   21  C13 UNK     1      19.585  -1.610  31.678  1.00  0.00     0.038 A 
HETATM   22  O1  UNK     1      18.680   0.377  32.670  1.00  0.00    -0.274 OA
HETATM   23  C16 UNK     1      20.202  -2.257  30.610  1.00  0.00     0.003 A 
HETATM   24  C15 UNK     1      20.534  -1.542  29.457  1.00  0.00     0.001 A 
HETATM   25  C9  UNK     1      18.363   1.733  32.658  1.00  0.00     0.304 A 
HETATM   26  O5  UNK     1      17.817   2.269  33.617  1.00  0.00    -0.259 OA
ENDBRANCH   3  16
TORSDOF 4
ENDMDL
MODEL 4
REMARK VINA RESULT:      -8.8      1.889      2.991
REMARK  4 active torsions:
REMARK  status: ('A' for Active; 'I' for Inactive)
REMARK    1  A    between atoms: C6_13  and  O2_3 
REMARK    2  A    between atoms: C12_19  and  O3_4 
REMARK    3  A    between atoms: C3_10  and  N1_7 
REMARK       I    between atoms: C7_14  and  N1_7 
REMARK    4  A    between atoms: C2_9  and  C7_14 
ROOT
HETATM    1  O4  UNK     1      18.326   4.824  30.357  1.00  0.00    -0.267 OA
HETATM    2  N1  UNK     1      18.477   4.895  32.707  1.00  0.00    -0.320 N 
HETATM    3  C7  UNK     1      18.484   4.293  31.456  1.00  0.00     0.262 C 
HETATM    4  H2  UNK     1      18.599   4.308  33.528  1.00  0.00     0.169 HD
ENDROOT
BRANCH   2   5
HETATM    5  C3  UNK     1      18.285   6.266  33.004  1.00  0.00     0.070 A 
HETATM    6  C6  UNK     1      17.051   6.855  32.787  1.00  0.00     0.097 A 
HETATM    7  C11 UNK     1      16.877   8.207  33.083  1.00  0.00     0.077 A 
HETATM    8  C12 UNK     1      17.941   8.952  33.592  1.00  0.00     0.092 A 
HETATM    9  C14 UNK     1      19.178   8.345  33.805  1.00  0.00     0.069 A 
HETATM   10 Cl1  UNK     1      20.511   9.242  34.432  1.00  0.00    -0.081 Cl
HETATM   11  C8  UNK     1      19.353   6.993  33.508  1.00  0.00     0.059 A 
BRANCH   6  12
HETATM   12  O2  UNK     1      15.997   6.145  32.292  1.00  0.00    -0.354 OA
HETATM   13  C17 UNK     1      14.820   6.877  31.962  1.00  0.00     0.210 C 
ENDBRANCH   6  12
BRANCH   8  14
HETATM   14  O3  UNK     1      17.743  10.271  33.872  1.00  0.00    -0.354 OA
HETATM   15  C18 UNK     1      16.401  10.685  34.122  1.00  0.00     0.210 C 
ENDBRANCH   8  14
ENDBRANCH   2   5
BRANCH   3  16
HETATM   16  C2  UNK     1      18.716   2.846  31.539  1.00  0.00     0.108 A 
HETATM   17  C5  UNK     1      19.262   2.272  30.460  1.00  0.00     0.037 A 
HETATM   18  C1  UNK     1      19.529   0.842  30.448  1.00  0.00    -0.001 A 
HETATM   19  C4  UNK     1      19.208   0.087  31.571  1.00  0.00     0.089 A 
HETATM   20  C10 UNK     1      20.098   0.200  29.345  1.00  0.00     0.014 A 
HETATM   21  C13 UNK     1      19.438  -1.286  31.622  1.00  0.00     0.038 A 
HETATM   22  O1  UNK     1      18.633   0.697  32.704  1.00  0.00    -0.274 OA
HETATM   23  C16 UNK     1      20.004  -1.918  30.518  1.00  0.00     0.003 A 
HETATM   24  C15 UNK     1      20.334  -1.177  29.381  1.00  0.00     0.001 A 
HETATM   25  C9  UNK     1      18.366   2.063  32.745  1.00  0.00     0.304 A 
HETATM   26  O5  UNK     1      17.865   2.586  33.735  1.00  0.00    -0.259 OA
ENDBRANCH   3  16
TORSDOF 4
ENDMDL
MODEL 5
REMARK VINA RESULT:      -8.6      7.802      9.864
REMARK  4 active torsions:
REMARK  status: ('A' for Active; 'I' for Inactive)
REMARK    1  A    between atoms: C6_13  and  O2_3 
REMARK    2  A    between atoms: C12_19  and  O3_4 
REMARK    3  A    between atoms: C3_10  and  N1_7 
REMARK       I    between atoms: C7_14  and  N1_7 
REMARK    4  A    between atoms: C2_9  and  C7_14 
ROOT
HETATM    1  O4  UNK     1      21.038  -3.296  37.670  1.00  0.00    -0.267 OA
HETATM    2  N1  UNK     1      19.113  -3.295  36.313  1.00  0.00    -0.320 N 
HETATM    3  C7  UNK     1      20.153  -3.866  37.035  1.00  0.00     0.262 C 
HETATM    4  H2  UNK     1      18.472  -3.909  35.819  1.00  0.00     0.169 HD
ENDROOT
BRANCH   2   5
HETATM    5  C3  UNK     1      18.835  -1.917  36.143  1.00  0.00     0.070 A 
HETATM    6  C6  UNK     1      19.022  -1.322  34.906  1.00  0.00     0.097 A 
HETATM    7  C11 UNK     1      18.745   0.037  34.753  1.00  0.00     0.077 A 
HETATM    8  C12 UNK     1      18.285   0.782  35.840  1.00  0.00     0.092 A 
HETATM    9  C14 UNK     1      18.102   0.168  37.078  1.00  0.00     0.069 A 
HETATM   10 Cl1  UNK     1      17.535   1.064  38.438  1.00  0.00    -0.081 Cl
HETATM   11  C8  UNK     1      18.380  -1.191  37.232  1.00  0.00     0.059 A 
BRANCH   6  12
HETATM   12  O2  UNK     1      19.470  -2.031  33.832  1.00  0.00    -0.354 OA
HETATM   13  C17 UNK     1      19.243  -1.468  32.543  1.00  0.00     0.210 C 
ENDBRANCH   6  12
BRANCH   8  14
HETATM   14  O3  UNK     1      18.023   2.107  35.662  1.00  0.00    -0.354 OA
HETATM   15  C18 UNK     1      18.229   2.638  34.354  1.00  0.00     0.210 C 
ENDBRANCH   8  14
ENDBRANCH   2   5
BRANCH   3  16
HETATM   16  C2  UNK     1      20.120  -5.332  36.988  1.00  0.00     0.108 A 
HETATM   17  C5  UNK     1      20.055  -5.961  38.168  1.00  0.00     0.037 A 
HETATM   18  C1  UNK     1      20.019  -7.414  38.222  1.00  0.00    -0.001 A 
HETATM   19  C4  UNK     1      20.053  -8.134  37.033  1.00  0.00     0.089 A 
HETATM   20  C10 UNK     1      19.950  -8.112  39.431  1.00  0.00     0.014 A 
HETATM   21  C13 UNK     1      20.022  -9.527  37.017  1.00  0.00     0.038 A 
HETATM   22  O1  UNK     1      20.121  -7.467  35.794  1.00  0.00    -0.274 OA
HETATM   23  C16 UNK     1      19.954 -10.215  38.226  1.00  0.00     0.003 A 
HETATM   24  C15 UNK     1      19.919  -9.510  39.431  1.00  0.00     0.001 A 
HETATM   25  C9  UNK     1      20.157  -6.078  35.710  1.00  0.00     0.304 A 
HETATM   26  O5  UNK     1      20.217  -5.505  34.627  1.00  0.00    -0.259 OA
ENDBRANCH   3  16
TORSDOF 4
ENDMDL
MODEL 6
REMARK VINA RESULT:      -8.6      3.229      4.466
REMARK  4 active torsions:
REMARK  status: ('A' for Active; 'I' for Inactive)
REMARK    1  A    between atoms: C6_13  and  O2_3 
REMARK    2  A    between atoms: C12_19  and  O3_4 
REMARK    3  A    between atoms: C3_10  and  N1_7 
REMARK       I    between atoms: C7_14  and  N1_7 
REMARK    4  A    between atoms: C2_9  and  C7_14 
ROOT
HETATM    1  O4  UNK     1      18.436   4.627  31.967  1.00  0.00    -0.267 OA
HETATM    2  N1  UNK     1      18.155   5.380  34.181  1.00  0.00    -0.320 N 
HETATM    3  C7  UNK     1      18.279   4.435  33.172  1.00  0.00     0.262 C 
HETATM    4  H2  UNK     1      18.005   5.057  35.133  1.00  0.00     0.169 HD
ENDROOT
BRANCH   2   5
HETATM    5  C3  UNK     1      18.181   6.790  34.051  1.00  0.00     0.070 A 
HETATM    6  C6  UNK     1      17.046   7.468  33.640  1.00  0.00     0.097 A 
HETATM    7  C11 UNK     1      17.087   8.857  33.515  1.00  0.00     0.077 A 
HETATM    8  C12 UNK     1      18.264   9.549  33.803  1.00  0.00     0.092 A 
HETATM    9  C14 UNK     1      19.399   8.852  34.216  1.00  0.00     0.069 A 
HETATM   10 Cl1  UNK     1      20.867   9.682  34.578  1.00  0.00    -0.081 Cl
HETATM   11  C8  UNK     1      19.358   7.463  34.340  1.00  0.00     0.059 A 
BRANCH   6  12
HETATM   12  O2  UNK     1      15.886   6.811  33.354  1.00  0.00    -0.354 OA
HETATM   13  C17 UNK     1      15.286   7.076  32.088  1.00  0.00     0.210 C 
ENDBRANCH   6  12
BRANCH   8  14
HETATM   14  O3  UNK     1      18.275  10.905  33.673  1.00  0.00    -0.354 OA
HETATM   15  C18 UNK     1      17.157  11.616  34.201  1.00  0.00     0.210 C 
ENDBRANCH   8  14
ENDBRANCH   2   5
BRANCH   3  16
HETATM   16  C2  UNK     1      18.205   3.063  33.687  1.00  0.00     0.108 A 
HETATM   17  C5  UNK     1      18.107   2.934  35.016  1.00  0.00     0.037 A 
HETATM   18  C1  UNK     1      18.028   1.613  35.620  1.00  0.00    -0.001 A 
HETATM   19  C4  UNK     1      18.058   0.493  34.796  1.00  0.00     0.089 A 
HETATM   20  C10 UNK     1      17.924   1.432  37.001  1.00  0.00     0.014 A 
HETATM   21  C13 UNK     1      17.988  -0.799  35.313  1.00  0.00     0.038 A 
HETATM   22  O1  UNK     1      18.162   0.635  33.398  1.00  0.00    -0.274 OA
HETATM   23  C16 UNK     1      17.885  -0.971  36.691  1.00  0.00     0.003 A 
HETATM   24  C15 UNK     1      17.853   0.141  37.534  1.00  0.00     0.001 A 
HETATM   25  C9  UNK     1      18.238   1.885  32.791  1.00  0.00     0.304 A 
HETATM   26  O5  UNK     1      18.329   1.999  31.573  1.00  0.00    -0.259 OA
ENDBRANCH   3  16
TORSDOF 4
ENDMDL
MODEL 7
REMARK VINA RESULT:      -8.5      7.948     11.701
REMARK  4 active torsions:
REMARK  status: ('A' for Active; 'I' for Inactive)
REMARK    1  A    between atoms: C6_13  and  O2_3 
REMARK    2  A    between atoms: C12_19  and  O3_4 
REMARK    3  A    between atoms: C3_10  and  N1_7 
REMARK       I    between atoms: C7_14  and  N1_7 
REMARK    4  A    between atoms: C2_9  and  C7_14 
ROOT
HETATM    1  O4  UNK     1      20.164  -2.557  37.340  1.00  0.00    -0.267 OA
HETATM    2  N1  UNK     1      19.685  -4.440  36.009  1.00  0.00    -0.320 N 
HETATM    3  C7  UNK     1      19.866  -3.090  36.271  1.00  0.00     0.262 C 
HETATM    4  H2  UNK     1      19.415  -4.720  35.070  1.00  0.00     0.169 HD
ENDROOT
BRANCH   2   5
HETATM    5  C3  UNK     1      19.802  -5.520  36.918  1.00  0.00     0.070 A 
HETATM    6  C6  UNK     1      18.772  -6.438  37.038  1.00  0.00     0.097 A 
HETATM    7  C11 UNK     1      18.900  -7.496  37.938  1.00  0.00     0.077 A 
HETATM    8  C12 UNK     1      20.058  -7.620  38.708  1.00  0.00     0.092 A 
HETATM    9  C14 UNK     1      21.086  -6.687  38.576  1.00  0.00     0.069 A 
HETATM   10 Cl1  UNK     1      22.527  -6.817  39.515  1.00  0.00    -0.081 Cl
HETATM   11  C8  UNK     1      20.957  -5.629  37.676  1.00  0.00     0.059 A 
BRANCH   6  12
HETATM   12  O2  UNK     1      17.633  -6.335  36.295  1.00  0.00    -0.354 OA
HETATM   13  C17 UNK     1      17.363  -7.388  35.374  1.00  0.00     0.210 C 
ENDBRANCH   6  12
BRANCH   8  14
HETATM   14  O3  UNK     1      20.156  -8.663  39.579  1.00  0.00    -0.354 OA
HETATM   15  C18 UNK     1      19.805  -9.954  39.087  1.00  0.00     0.210 C 
ENDBRANCH   8  14
ENDBRANCH   2   5
BRANCH   3  16
HETATM   16  C2  UNK     1      19.663  -2.261  35.077  1.00  0.00     0.108 A 
HETATM   17  C5  UNK     1      20.263  -2.682  33.956  1.00  0.00     0.037 A 
HETATM   18  C1  UNK     1      20.120  -1.927  32.721  1.00  0.00    -0.001 A 
HETATM   19  C4  UNK     1      19.353  -0.767  32.726  1.00  0.00     0.089 A 
HETATM   20  C10 UNK     1      20.728  -2.328  31.529  1.00  0.00     0.014 A 
HETATM   21  C13 UNK     1      19.177   0.001  31.577  1.00  0.00     0.038 A 
HETATM   22  O1  UNK     1      18.723  -0.329  33.908  1.00  0.00    -0.274 OA
HETATM   23  C16 UNK     1      19.787  -0.405  30.393  1.00  0.00     0.003 A 
HETATM   24  C15 UNK     1      20.561  -1.567  30.368  1.00  0.00     0.001 A 
HETATM   25  C9  UNK     1      18.841  -1.031  35.105  1.00  0.00     0.304 A 
HETATM   26  O5  UNK     1      18.290  -0.642  36.129  1.00  0.00    -0.259 OA
ENDBRANCH   3  16
TORSDOF 4
ENDMDL
MODEL 8
REMARK VINA RESULT:      -8.2     14.415     18.605
REMARK  4 active torsions:
REMARK  status: ('A' for Active; 'I' for Inactive)
REMARK    1  A    between atoms: C6_13  and  O2_3 
REMARK    2  A    between atoms: C12_19  and  O3_4 
REMARK    3  A    between atoms: C3_10  and  N1_7 
REMARK       I    between atoms: C7_14  and  N1_7 
REMARK    4  A    between atoms: C2_9  and  C7_14 
ROOT
HETATM    1  O4  UNK     1      17.505  -2.306  16.193  1.00  0.00    -0.267 OA
HETATM    2  N1  UNK     1      19.636  -2.051  15.223  1.00  0.00    -0.320 N 
HETATM    3  C7  UNK     1      18.589  -1.737  16.079  1.00  0.00     0.262 C 
HETATM    4  H2  UNK     1      20.464  -1.462  15.234  1.00  0.00     0.169 HD
ENDROOT
BRANCH   2   5
HETATM    5  C3  UNK     1      19.692  -3.105  14.279  1.00  0.00     0.070 A 
HETATM    6  C6  UNK     1      19.171  -2.925  13.009  1.00  0.00     0.097 A 
HETATM    7  C11 UNK     1      19.233  -3.973  12.090  1.00  0.00     0.077 A 
HETATM    8  C12 UNK     1      19.815  -5.187  12.455  1.00  0.00     0.092 A 
HETATM    9  C14 UNK     1      20.336  -5.353  13.738  1.00  0.00     0.069 A 
HETATM   10 Cl1  UNK     1      21.060  -6.844  14.216  1.00  0.00    -0.081 Cl
HETATM   11  C8  UNK     1      20.273  -4.305  14.658  1.00  0.00     0.059 A 
BRANCH   6  12
HETATM   12  O2  UNK     1      18.599  -1.746  12.632  1.00  0.00    -0.354 OA
HETATM   13  C17 UNK     1      19.139  -1.102  11.481  1.00  0.00     0.210 C 
ENDBRANCH   6  12
BRANCH   8  14
HETATM   14  O3  UNK     1      19.862  -6.194  11.538  1.00  0.00    -0.354 OA
HETATM   15  C18 UNK     1      18.850  -6.201  10.533  1.00  0.00     0.210 C 
ENDBRANCH   8  14
ENDBRANCH   2   5
BRANCH   3  16
HETATM   16  C2  UNK     1      18.892  -0.573  16.920  1.00  0.00     0.108 A 
HETATM   17  C5  UNK     1      18.896  -0.783  18.242  1.00  0.00     0.037 A 
HETATM   18  C1  UNK     1      19.186   0.311  19.157  1.00  0.00    -0.001 A 
HETATM   19  C4  UNK     1      19.456   1.571  18.635  1.00  0.00     0.089 A 
HETATM   20  C10 UNK     1      19.201   0.137  20.543  1.00  0.00     0.014 A 
HETATM   21  C13 UNK     1      19.739   2.660  19.458  1.00  0.00     0.038 A 
HETATM   22  O1  UNK     1      19.450   1.787  17.243  1.00  0.00    -0.274 OA
HETATM   23  C16 UNK     1      19.752   2.479  20.838  1.00  0.00     0.003 A 
HETATM   24  C15 UNK     1      19.483   1.220  21.381  1.00  0.00     0.001 A 
HETATM   25  C9  UNK     1      19.178   0.760  16.343  1.00  0.00     0.304 A 
HETATM   26  O5  UNK     1      19.174   0.957  15.132  1.00  0.00    -0.259 OA
ENDBRANCH   3  16
TORSDOF 4
ENDMDL
MODEL 9
REMARK VINA RESULT:      -8.2     14.839     19.201
REMARK  4 active torsions:
REMARK  status: ('A' for Active; 'I' for Inactive)
REMARK    1  A    between atoms: C6_13  and  O2_3 
REMARK    2  A    between atoms: C12_19  and  O3_4 
REMARK    3  A    between atoms: C3_10  and  N1_7 
REMARK       I    between atoms: C7_14  and  N1_7 
REMARK    4  A    between atoms: C2_9  and  C7_14 
ROOT
HETATM    1  O4  UNK     1      17.756  -3.235  15.863  1.00  0.00    -0.267 OA
HETATM    2  N1  UNK     1      19.870  -3.077  14.836  1.00  0.00    -0.320 N 
HETATM    3  C7  UNK     1      18.770  -2.615  15.546  1.00  0.00     0.262 C 
HETATM    4  H2  UNK     1      20.624  -2.427  14.633  1.00  0.00     0.169 HD
ENDROOT
BRANCH   2   5
HETATM    5  C3  UNK     1      20.075  -4.376  14.312  1.00  0.00     0.070 A 
HETATM    6  C6  UNK     1      20.769  -5.319  15.051  1.00  0.00     0.097 A 
HETATM    7  C11 UNK     1      20.964  -6.595  14.522  1.00  0.00     0.077 A 
HETATM    8  C12 UNK     1      20.463  -6.910  13.258  1.00  0.00     0.092 A 
HETATM    9  C14 UNK     1      19.766  -5.949  12.525  1.00  0.00     0.069 A 
HETATM   10 Cl1  UNK     1      19.136  -6.311  10.961  1.00  0.00    -0.081 Cl
HETATM   11  C8  UNK     1      19.571  -4.673  13.055  1.00  0.00     0.059 A 
BRANCH   6  12
HETATM   12  O2  UNK     1      21.266  -5.032  16.288  1.00  0.00    -0.354 OA
HETATM   13  C17 UNK     1      22.650  -4.700  16.368  1.00  0.00     0.210 C 
ENDBRANCH   6  12
BRANCH   8  14
HETATM   14  O3  UNK     1      20.668  -8.163  12.765  1.00  0.00    -0.354 OA
HETATM   15  C18 UNK     1      21.984  -8.699  12.887  1.00  0.00     0.210 C 
ENDBRANCH   8  14
ENDBRANCH   2   5
BRANCH   3  16
HETATM   16  C2  UNK     1      18.913  -1.206  15.932  1.00  0.00     0.108 A 
HETATM   17  C5  UNK     1      18.779  -0.934  17.236  1.00  0.00     0.037 A 
HETATM   18  C1  UNK     1      18.903   0.435  17.715  1.00  0.00    -0.001 A 
HETATM   19  C4  UNK     1      19.162   1.448  16.799  1.00  0.00     0.089 A 
HETATM   20  C10 UNK     1      18.771   0.765  19.066  1.00  0.00     0.014 A 
HETATM   21  C13 UNK     1      19.291   2.778  17.193  1.00  0.00     0.038 A 
HETATM   22  O1  UNK     1      19.302   1.155  15.428  1.00  0.00    -0.274 OA
HETATM   23  C16 UNK     1      19.158   3.099  18.541  1.00  0.00     0.003 A 
HETATM   24  C15 UNK     1      18.898   2.095  19.477  1.00  0.00     0.001 A 
HETATM   25  C9  UNK     1      19.189  -0.144  14.940  1.00  0.00     0.304 A 
HETATM   26  O5  UNK     1      19.311  -0.389  13.744  1.00  0.00    -0.259 OA
ENDBRANCH   3  16
TORSDOF 4
ENDMDL
MODEL 10
REMARK VINA RESULT:      -8.1      2.901      8.219
REMARK  4 active torsions:
REMARK  status: ('A' for Active; 'I' for Inactive)
REMARK    1  A    between atoms: C6_13  and  O2_3 
REMARK    2  A    between atoms: C12_19  and  O3_4 
REMARK    3  A    between atoms: C3_10  and  N1_7 
REMARK       I    between atoms: C7_14  and  N1_7 
REMARK    4  A    between atoms: C2_9  and  C7_14 
ROOT
HETATM    1  O4  UNK     1      19.365   5.553  32.850  1.00  0.00    -0.267 OA
HETATM    2  N1  UNK     1      17.544   4.347  31.967  1.00  0.00    -0.320 N 
HETATM    3  C7  UNK     1      18.204   5.468  32.452  1.00  0.00     0.262 C 
HETATM    4  H2  UNK     1      16.569   4.438  31.697  1.00  0.00     0.169 HD
ENDROOT
BRANCH   2   5
HETATM    5  C3  UNK     1      18.062   3.037  31.820  1.00  0.00     0.070 A 
HETATM    6  C6  UNK     1      18.167   2.208  32.924  1.00  0.00     0.097 A 
HETATM    7  C11 UNK     1      18.680   0.920  32.765  1.00  0.00     0.077 A 
HETATM    8  C12 UNK     1      19.080   0.480  31.503  1.00  0.00     0.092 A 
HETATM    9  C14 UNK     1      18.968   1.327  30.401  1.00  0.00     0.069 A 
HETATM   10 Cl1  UNK     1      19.456   0.809  28.830  1.00  0.00    -0.081 Cl
HETATM   11  C8  UNK     1      18.456   2.616  30.560  1.00  0.00     0.059 A 
BRANCH   6  12
HETATM   12  O2  UNK     1      17.781   2.618  34.166  1.00  0.00    -0.354 OA
HETATM   13  C17 UNK     1      18.677   2.356  35.243  1.00  0.00     0.210 C 
ENDBRANCH   6  12
BRANCH   8  14
HETATM   14  O3  UNK     1      19.577  -0.783  31.377  1.00  0.00    -0.354 OA
HETATM   15  C18 UNK     1      19.493  -1.629  32.521  1.00  0.00     0.210 C 
ENDBRANCH   8  14
ENDBRANCH   2   5
BRANCH   3  16
HETATM   16  C2  UNK     1      17.345   6.658  32.455  1.00  0.00     0.108 A 
HETATM   17  C5  UNK     1      16.924   7.080  33.655  1.00  0.00     0.037 A 
HETATM   18  C1  UNK     1      16.068   8.251  33.760  1.00  0.00    -0.001 A 
HETATM   19  C4  UNK     1      15.696   8.920  32.599  1.00  0.00     0.089 A 
HETATM   20  C10 UNK     1      15.606   8.727  34.989  1.00  0.00     0.014 A 
HETATM   21  C13 UNK     1      14.877  10.047  32.632  1.00  0.00     0.038 A 
HETATM   22  O1  UNK     1      16.142   8.471  31.340  1.00  0.00    -0.274 OA
HETATM   23  C16 UNK     1      14.421  10.515  33.861  1.00  0.00     0.003 A 
HETATM   24  C15 UNK     1      14.784   9.857  35.038  1.00  0.00     0.001 A 
HETATM   25  C9  UNK     1      16.962   7.354  31.207  1.00  0.00     0.304 A 
HETATM   26  O5  UNK     1      17.345   6.970  30.107  1.00  0.00    -0.259 OA
ENDBRANCH   3  16
TORSDOF 4
ENDMDL
