MODEL 1
REMARK VINA RESULT:      -9.3      0.000      0.000
REMARK  7 active torsions:
REMARK  status: ('A' for Active; 'I' for Inactive)
REMARK    1  A    between atoms: C15_22  and  O3_3 
REMARK    2  A    between atoms: C21_28  and  O3_3 
REMARK    3  A    between atoms: C5_12  and  N1_5 
REMARK    4  A    between atoms: C6_13  and  N2_6 
REMARK    5  A    between atoms: C17_24  and  N3_7 
REMARK       I    between atoms: C9_16  and  N3_7 
REMARK    6  A    between atoms: C5_12  and  C7_14 
REMARK    7  A    between atoms: C6_13  and  C9_16 
ROOT
HETATM    1  N1  UNK     1      19.187  -3.071  36.183  1.00  0.00     0.096 N 
HETATM    2  N2  UNK     1      18.318  -0.425  35.406  1.00  0.00     0.100 N 
HETATM    3  C1  UNK     1      18.530  -2.174  37.140  1.00  0.00     0.303 C 
HETATM    4  C2  UNK     1      19.914  -2.297  35.168  1.00  0.00     0.303 C 
HETATM    5  C3  UNK     1      17.591  -1.200  36.419  1.00  0.00     0.303 C 
HETATM    6  C4  UNK     1      18.974  -1.324  34.448  1.00  0.00     0.303 C 
ENDROOT
BRANCH   1   7
HETATM    7  C5  UNK     1      20.086  -3.996  36.871  1.00  0.00     0.312 C 
BRANCH   7   8
HETATM    8  C7  UNK     1      19.574  -5.395  36.853  1.00  0.00    -0.011 A 
HETATM    9  C10 UNK     1      18.487  -5.726  36.140  1.00  0.00     0.092 A 
HETATM   10  C13 UNK     1      17.944  -7.094  36.093  1.00  0.00     0.288 A 
HETATM   11  O1  UNK     1      18.615  -8.056  36.832  1.00  0.00    -0.275 OA
HETATM   12  O4  UNK     1      16.948  -7.359  35.429  1.00  0.00    -0.260 OA
HETATM   13  C11 UNK     1      19.758  -7.739  37.591  1.00  0.00     0.090 A 
HETATM   14  C8  UNK     1      20.262  -6.437  37.628  1.00  0.00     0.009 A 
HETATM   15  C14 UNK     1      20.351  -8.788  38.297  1.00  0.00     0.041 A 
HETATM   16  C12 UNK     1      21.402  -6.203  38.407  1.00  0.00     0.051 A 
HETATM   17  C15 UNK     1      22.007  -7.244  39.121  1.00  0.00     0.069 A 
HETATM   18  C16 UNK     1      21.483  -8.535  39.065  1.00  0.00     0.039 A 
BRANCH  17  19
HETATM   19  O3  UNK     1      23.115  -6.996  39.873  1.00  0.00    -0.351 OA
BRANCH  19  20
HETATM   20  C21 UNK     1      24.323  -6.709  39.172  1.00  0.00     0.171 C 
HETATM   21  C25 UNK     1      25.026  -8.011  38.849  1.00  0.00     0.034 C 
ENDBRANCH  19  20
ENDBRANCH  17  19
ENDBRANCH   7   8
ENDBRANCH   1   7
BRANCH   2  22
HETATM   22  C6  UNK     1      17.421   0.502  34.718  1.00  0.00     0.375 C 
BRANCH  22  23
HETATM   23  C9  UNK     1      18.199   1.735  34.292  1.00  0.00     0.250 C 
HETATM   24  O2  UNK     1      19.118   2.200  34.958  1.00  0.00    -0.271 OA
HETATM   25  N3  UNK     1      17.715   2.213  33.076  1.00  0.00    -0.326 N 
HETATM   26  H15 UNK     1      16.946   1.711  32.639  1.00  0.00     0.169 HD
BRANCH  25  27
HETATM   27  C17 UNK     1      18.171   3.338  32.348  1.00  0.00     0.035 A 
HETATM   28  C18 UNK     1      18.264   4.583  32.971  1.00  0.00     0.036 A 
HETATM   29  C20 UNK     1      18.714   5.690  32.254  1.00  0.00    -0.060 A 
HETATM   30  C23 UNK     1      19.072   5.553  30.912  1.00  0.00     0.007 A 
HETATM   31  C24 UNK     1      18.814   7.020  32.919  1.00  0.00     0.048 C 
HETATM   32  C22 UNK     1      18.978   4.309  30.288  1.00  0.00     0.003 A 
HETATM   33  C19 UNK     1      18.528   3.201  31.007  1.00  0.00     0.029 A 
ENDBRANCH  25  27
ENDBRANCH  22  23
ENDBRANCH   2  22
TORSDOF 7
ENDMDL
MODEL 2
REMARK VINA RESULT:      -9.2      3.722     10.927
REMARK  7 active torsions:
REMARK  status: ('A' for Active; 'I' for Inactive)
REMARK    1  A    between atoms: C15_22  and  O3_3 
REMARK    2  A    between atoms: C21_28  and  O3_3 
REMARK    3  A    between atoms: C5_12  and  N1_5 
REMARK    4  A    between atoms: C6_13  and  N2_6 
REMARK    5  A    between atoms: C17_24  and  N3_7 
REMARK       I    between atoms: C9_16  and  N3_7 
REMARK    6  A    between atoms: C5_12  and  C7_14 
REMARK    7  A    between atoms: C6_13  and  C9_16 
ROOT
HETATM    1  N1  UNK     1      19.933  -4.621  36.759  1.00  0.00     0.096 N 
HETATM    2  N2  UNK     1      20.012  -7.512  36.748  1.00  0.00     0.100 N 
HETATM    3  C1  UNK     1      19.967  -5.377  35.502  1.00  0.00     0.303 C 
HETATM    4  C2  UNK     1      20.608  -5.370  37.827  1.00  0.00     0.303 C 
HETATM    5  C3  UNK     1      19.336  -6.762  35.680  1.00  0.00     0.303 C 
HETATM    6  C4  UNK     1      19.976  -6.755  38.005  1.00  0.00     0.303 C 
ENDROOT
BRANCH   1   7
HETATM    7  C5  UNK     1      20.538  -3.302  36.589  1.00  0.00     0.312 C 
BRANCH   7   8
HETATM    8  C7  UNK     1      19.530  -2.259  36.251  1.00  0.00    -0.011 A 
HETATM    9  C10 UNK     1      18.733  -1.735  37.194  1.00  0.00     0.092 A 
HETATM   10  C13 UNK     1      17.721  -0.704  36.908  1.00  0.00     0.288 A 
HETATM   11  O1  UNK     1      17.618  -0.281  35.592  1.00  0.00    -0.275 OA
HETATM   12  O4  UNK     1      17.011  -0.247  37.797  1.00  0.00    -0.260 OA
HETATM   13  C11 UNK     1      18.441  -0.813  34.579  1.00  0.00     0.090 A 
HETATM   14  C8  UNK     1      19.395  -1.792  34.865  1.00  0.00     0.009 A 
HETATM   15  C14 UNK     1      18.248  -0.314  33.290  1.00  0.00     0.041 A 
HETATM   16  C12 UNK     1      20.172  -2.271  33.802  1.00  0.00     0.051 A 
HETATM   17  C15 UNK     1      19.990  -1.780  32.503  1.00  0.00     0.069 A 
HETATM   18  C16 UNK     1      19.030  -0.802  32.248  1.00  0.00     0.039 A 
BRANCH  17  19
HETATM   19  O3  UNK     1      20.756  -2.259  31.485  1.00  0.00    -0.351 OA
BRANCH  19  20
HETATM   20  C21 UNK     1      20.176  -2.259  30.182  1.00  0.00     0.171 C 
HETATM   21  C25 UNK     1      20.891  -1.237  29.324  1.00  0.00     0.034 C 
ENDBRANCH  19  20
ENDBRANCH  17  19
ENDBRANCH   7   8
ENDBRANCH   1   7
BRANCH   2  22
HETATM   22  C6  UNK     1      19.408  -8.832  36.918  1.00  0.00     0.375 C 
BRANCH  22  23
HETATM   23  C9  UNK     1      20.503  -9.868  37.104  1.00  0.00     0.250 C 
HETATM   24  O2  UNK     1      20.362 -10.859  37.812  1.00  0.00    -0.271 OA
HETATM   25  N3  UNK     1      21.629  -9.516  36.363  1.00  0.00    -0.326 N 
HETATM   26  H15 UNK     1      21.591  -8.660  35.815  1.00  0.00     0.169 HD
BRANCH  25  27
HETATM   27  C17 UNK     1      22.855 -10.218  36.269  1.00  0.00     0.035 A 
HETATM   28  C18 UNK     1      24.034  -9.629  36.727  1.00  0.00     0.036 A 
HETATM   29  C20 UNK     1      25.241 -10.322  36.634  1.00  0.00    -0.060 A 
HETATM   30  C23 UNK     1      25.268 -11.604  36.085  1.00  0.00     0.007 A 
HETATM   31  C24 UNK     1      26.501  -9.693  37.123  1.00  0.00     0.048 C 
HETATM   32  C22 UNK     1      24.090 -12.193  35.627  1.00  0.00     0.003 A 
HETATM   33  C19 UNK     1      22.883 -11.499  35.720  1.00  0.00     0.029 A 
ENDBRANCH  25  27
ENDBRANCH  22  23
ENDBRANCH   2  22
TORSDOF 7
ENDMDL
MODEL 3
REMARK VINA RESULT:      -9.0      5.769      8.563
REMARK  7 active torsions:
REMARK  status: ('A' for Active; 'I' for Inactive)
REMARK    1  A    between atoms: C15_22  and  O3_3 
REMARK    2  A    between atoms: C21_28  and  O3_3 
REMARK    3  A    between atoms: C5_12  and  N1_5 
REMARK    4  A    between atoms: C6_13  and  N2_6 
REMARK    5  A    between atoms: C17_24  and  N3_7 
REMARK       I    between atoms: C9_16  and  N3_7 
REMARK    6  A    between atoms: C5_12  and  C7_14 
REMARK    7  A    between atoms: C6_13  and  C9_16 
ROOT
HETATM    1  N1  UNK     1      18.888   3.653  31.313  1.00  0.00     0.096 N 
HETATM    2  N2  UNK     1      19.234   6.324  32.366  1.00  0.00     0.100 N 
HETATM    3  C1  UNK     1      19.358   4.753  30.461  1.00  0.00     0.303 C 
HETATM    4  C2  UNK     1      18.029   4.167  32.388  1.00  0.00     0.303 C 
HETATM    5  C3  UNK     1      20.093   5.810  31.291  1.00  0.00     0.303 C 
HETATM    6  C4  UNK     1      18.767   5.224  33.218  1.00  0.00     0.303 C 
ENDROOT
BRANCH   1   7
HETATM    7  C5  UNK     1      18.183   2.647  30.521  1.00  0.00     0.312 C 
BRANCH   7   8
HETATM    8  C7  UNK     1      18.902   1.343  30.498  1.00  0.00    -0.011 A 
HETATM    9  C10 UNK     1      19.553   0.931  29.401  1.00  0.00     0.092 A 
HETATM   10  C13 UNK     1      20.277  -0.349  29.330  1.00  0.00     0.288 A 
HETATM   11  O1  UNK     1      20.263  -1.136  30.471  1.00  0.00    -0.275 OA
HETATM   12  O4  UNK     1      20.862  -0.693  28.308  1.00  0.00    -0.260 OA
HETATM   13  C11 UNK     1      19.587  -0.730  31.639  1.00  0.00     0.090 A 
HETATM   14  C8  UNK     1      18.904   0.486  31.691  1.00  0.00     0.009 A 
HETATM   15  C14 UNK     1      19.639  -1.604  32.727  1.00  0.00     0.041 A 
HETATM   16  C12 UNK     1      18.256   0.816  32.889  1.00  0.00     0.051 A 
HETATM   17  C15 UNK     1      18.299  -0.050  33.988  1.00  0.00     0.069 A 
HETATM   18  C16 UNK     1      18.990  -1.258  33.907  1.00  0.00     0.039 A 
BRANCH  17  19
HETATM   19  O3  UNK     1      17.663   0.290  35.143  1.00  0.00    -0.351 OA
BRANCH  19  20
HETATM   20  C21 UNK     1      18.483   0.587  36.271  1.00  0.00     0.171 C 
HETATM   21  C25 UNK     1      17.609   1.111  37.391  1.00  0.00     0.034 C 
ENDBRANCH  19  20
ENDBRANCH  17  19
ENDBRANCH   7   8
ENDBRANCH   1   7
BRANCH   2  22
HETATM   22  C6  UNK     1      19.938   7.331  33.157  1.00  0.00     0.375 C 
BRANCH  22  23
HETATM   23  C9  UNK     1      18.961   8.000  34.108  1.00  0.00     0.250 C 
HETATM   24  O2  UNK     1      19.071   7.927  35.328  1.00  0.00    -0.271 OA
HETATM   25  N3  UNK     1      17.977   8.677  33.391  1.00  0.00    -0.326 N 
HETATM   26  H15 UNK     1      18.025   8.651  32.376  1.00  0.00     0.169 HD
BRANCH  25  27
HETATM   27  C17 UNK     1      16.891   9.423  33.908  1.00  0.00     0.035 A 
HETATM   28  C18 UNK     1      17.060  10.769  34.234  1.00  0.00     0.036 A 
HETATM   29  C20 UNK     1      15.989  11.503  34.743  1.00  0.00    -0.060 A 
HETATM   30  C23 UNK     1      14.748  10.891  34.925  1.00  0.00     0.007 A 
HETATM   31  C24 UNK     1      16.170  12.941  35.093  1.00  0.00     0.048 C 
HETATM   32  C22 UNK     1      14.579   9.546  34.599  1.00  0.00     0.003 A 
HETATM   33  C19 UNK     1      15.651   8.812  34.090  1.00  0.00     0.029 A 
ENDBRANCH  25  27
ENDBRANCH  22  23
ENDBRANCH   2  22
TORSDOF 7
ENDMDL
MODEL 4
REMARK VINA RESULT:      -9.0      2.289      2.750
REMARK  7 active torsions:
REMARK  status: ('A' for Active; 'I' for Inactive)
REMARK    1  A    between atoms: C15_22  and  O3_3 
REMARK    2  A    between atoms: C21_28  and  O3_3 
REMARK    3  A    between atoms: C5_12  and  N1_5 
REMARK    4  A    between atoms: C6_13  and  N2_6 
REMARK    5  A    between atoms: C17_24  and  N3_7 
REMARK       I    between atoms: C9_16  and  N3_7 
REMARK    6  A    between atoms: C5_12  and  C7_14 
REMARK    7  A    between atoms: C6_13  and  C9_16 
ROOT
HETATM    1  N1  UNK     1      19.452  -3.548  36.415  1.00  0.00     0.096 N 
HETATM    2  N2  UNK     1      18.957  -0.733  35.976  1.00  0.00     0.100 N 
HETATM    3  C1  UNK     1      18.485  -2.808  37.235  1.00  0.00     0.303 C 
HETATM    4  C2  UNK     1      20.513  -2.653  35.938  1.00  0.00     0.303 C 
HETATM    5  C3  UNK     1      17.895  -1.630  36.452  1.00  0.00     0.303 C 
HETATM    6  C4  UNK     1      19.922  -1.475  35.155  1.00  0.00     0.303 C 
ENDROOT
BRANCH   1   7
HETATM    7  C5  UNK     1      20.017  -4.670  37.163  1.00  0.00     0.312 C 
BRANCH   7   8
HETATM    8  C7  UNK     1      19.493  -5.982  36.692  1.00  0.00    -0.011 A 
HETATM    9  C10 UNK     1      18.254  -6.094  36.194  1.00  0.00     0.092 A 
HETATM   10  C13 UNK     1      17.693  -7.369  35.717  1.00  0.00     0.288 A 
HETATM   11  O1  UNK     1      18.515  -8.482  35.801  1.00  0.00    -0.275 OA
HETATM   12  O4  UNK     1      16.554  -7.434  35.267  1.00  0.00    -0.260 OA
HETATM   13  C11 UNK     1      19.822  -8.395  36.320  1.00  0.00     0.090 A 
HETATM   14  C8  UNK     1      20.340  -7.180  36.771  1.00  0.00     0.009 A 
HETATM   15  C14 UNK     1      20.559  -9.581  36.360  1.00  0.00     0.041 A 
HETATM   16  C12 UNK     1      21.648  -7.178  37.274  1.00  0.00     0.051 A 
HETATM   17  C15 UNK     1      22.399  -8.358  37.320  1.00  0.00     0.069 A 
HETATM   18  C16 UNK     1      21.855  -9.558  36.862  1.00  0.00     0.039 A 
BRANCH  17  19
HETATM   19  O3  UNK     1      23.668  -8.335  37.812  1.00  0.00    -0.351 OA
BRANCH  19  20
HETATM   20  C21 UNK     1      23.866  -7.677  39.062  1.00  0.00     0.171 C 
HETATM   21  C25 UNK     1      22.881  -8.229  40.071  1.00  0.00     0.034 C 
ENDBRANCH  19  20
ENDBRANCH  17  19
ENDBRANCH   7   8
ENDBRANCH   1   7
BRANCH   2  22
HETATM   22  C6  UNK     1      18.393   0.389  35.229  1.00  0.00     0.375 C 
BRANCH  22  23
HETATM   23  C9  UNK     1      18.175  -0.024  33.784  1.00  0.00     0.250 C 
HETATM   24  O2  UNK     1      17.275  -0.785  33.443  1.00  0.00    -0.271 OA
HETATM   25  N3  UNK     1      19.121   0.584  32.962  1.00  0.00    -0.326 N 
HETATM   26  H15 UNK     1      19.804   1.199  33.395  1.00  0.00     0.169 HD
BRANCH  25  27
HETATM   27  C17 UNK     1      19.253   0.455  31.558  1.00  0.00     0.035 A 
HETATM   28  C18 UNK     1      18.542   1.302  30.708  1.00  0.00     0.036 A 
HETATM   29  C20 UNK     1      18.673   1.175  29.326  1.00  0.00    -0.060 A 
HETATM   30  C23 UNK     1      19.518   0.201  28.793  1.00  0.00     0.007 A 
HETATM   31  C24 UNK     1      17.912   2.080  28.418  1.00  0.00     0.048 C 
HETATM   32  C22 UNK     1      20.230  -0.646  29.642  1.00  0.00     0.003 A 
HETATM   33  C19 UNK     1      20.098  -0.518  31.025  1.00  0.00     0.029 A 
ENDBRANCH  25  27
ENDBRANCH  22  23
ENDBRANCH   2  22
TORSDOF 7
ENDMDL
MODEL 5
REMARK VINA RESULT:      -8.7      6.254     11.134
REMARK  7 active torsions:
REMARK  status: ('A' for Active; 'I' for Inactive)
REMARK    1  A    between atoms: C15_22  and  O3_3 
REMARK    2  A    between atoms: C21_28  and  O3_3 
REMARK    3  A    between atoms: C5_12  and  N1_5 
REMARK    4  A    between atoms: C6_13  and  N2_6 
REMARK    5  A    between atoms: C17_24  and  N3_7 
REMARK       I    between atoms: C9_16  and  N3_7 
REMARK    6  A    between atoms: C5_12  and  C7_14 
REMARK    7  A    between atoms: C6_13  and  C9_16 
ROOT
HETATM    1  N1  UNK     1      23.828  -9.396  37.176  1.00  0.00     0.096 N 
HETATM    2  N2  UNK     1      26.282  -8.410  38.344  1.00  0.00     0.100 N 
HETATM    3  C1  UNK     1      25.132  -9.693  36.571  1.00  0.00     0.303 C 
HETATM    4  C2  UNK     1      23.872  -8.113  37.888  1.00  0.00     0.303 C 
HETATM    5  C3  UNK     1      26.238  -9.694  37.633  1.00  0.00     0.303 C 
HETATM    6  C4  UNK     1      24.978  -8.116  38.950  1.00  0.00     0.303 C 
ENDROOT
BRANCH   1   7
HETATM    7  C5  UNK     1      22.775  -9.391  36.162  1.00  0.00     0.312 C 
BRANCH   7   8
HETATM    8  C7  UNK     1      21.416  -9.498  36.762  1.00  0.00    -0.011 A 
HETATM    9  C10 UNK     1      21.016 -10.622  37.374  1.00  0.00     0.092 A 
HETATM   10  C13 UNK     1      19.682 -10.774  37.981  1.00  0.00     0.288 A 
HETATM   11  O1  UNK     1      18.831  -9.684  37.896  1.00  0.00    -0.275 OA
HETATM   12  O4  UNK     1      19.351 -11.818  38.533  1.00  0.00    -0.260 OA
HETATM   13  C11 UNK     1      19.223  -8.490  37.258  1.00  0.00     0.090 A 
HETATM   14  C8  UNK     1      20.490  -8.360  36.686  1.00  0.00     0.009 A 
HETATM   15  C14 UNK     1      18.283  -7.458  37.231  1.00  0.00     0.041 A 
HETATM   16  C12 UNK     1      20.802  -7.141  36.070  1.00  0.00     0.051 A 
HETATM   17  C15 UNK     1      19.870  -6.097  36.034  1.00  0.00     0.069 A 
HETATM   18  C16 UNK     1      18.613  -6.255  36.615  1.00  0.00     0.039 A 
BRANCH  17  19
HETATM   19  O3  UNK     1      20.194  -4.921  35.430  1.00  0.00    -0.351 OA
BRANCH  19  20
HETATM   20  C21 UNK     1      19.870  -3.722  36.131  1.00  0.00     0.171 C 
HETATM   21  C25 UNK     1      20.742  -3.620  37.364  1.00  0.00     0.034 C 
ENDBRANCH  19  20
ENDBRANCH  17  19
ENDBRANCH   7   8
ENDBRANCH   1   7
BRANCH   2  22
HETATM   22  C6  UNK     1      27.336  -8.413  39.357  1.00  0.00     0.375 C 
BRANCH  22  23
HETATM   23  C9  UNK     1      28.166  -7.148  39.227  1.00  0.00     0.250 C 
HETATM   24  O2  UNK     1      27.874  -6.104  39.802  1.00  0.00    -0.271 OA
HETATM   25  N3  UNK     1      29.259  -7.373  38.393  1.00  0.00    -0.326 N 
HETATM   26  H15 UNK     1      29.370  -8.301  37.993  1.00  0.00     0.169 HD
BRANCH  25  27
HETATM   27  C17 UNK     1      30.265  -6.450  38.021  1.00  0.00     0.035 A 
HETATM   28  C18 UNK     1      31.610  -6.811  38.107  1.00  0.00     0.036 A 
HETATM   29  C20 UNK     1      32.601  -5.901  37.741  1.00  0.00    -0.060 A 
HETATM   30  C23 UNK     1      32.247  -4.630  37.287  1.00  0.00     0.007 A 
HETATM   31  C24 UNK     1      34.039  -6.286  37.834  1.00  0.00     0.048 C 
HETATM   32  C22 UNK     1      30.903  -4.268  37.201  1.00  0.00     0.003 A 
HETATM   33  C19 UNK     1      29.912  -5.179  37.568  1.00  0.00     0.029 A 
ENDBRANCH  25  27
ENDBRANCH  22  23
ENDBRANCH   2  22
TORSDOF 7
ENDMDL
MODEL 6
REMARK VINA RESULT:      -8.7      2.403     11.563
REMARK  7 active torsions:
REMARK  status: ('A' for Active; 'I' for Inactive)
REMARK    1  A    between atoms: C15_22  and  O3_3 
REMARK    2  A    between atoms: C21_28  and  O3_3 
REMARK    3  A    between atoms: C5_12  and  N1_5 
REMARK    4  A    between atoms: C6_13  and  N2_6 
REMARK    5  A    between atoms: C17_24  and  N3_7 
REMARK       I    between atoms: C9_16  and  N3_7 
REMARK    6  A    between atoms: C5_12  and  C7_14 
REMARK    7  A    between atoms: C6_13  and  C9_16 
ROOT
HETATM    1  N1  UNK     1      17.862   1.558  35.128  1.00  0.00     0.096 N 
HETATM    2  N2  UNK     1      18.147  -0.943  36.551  1.00  0.00     0.100 N 
HETATM    3  C1  UNK     1      18.977   0.645  34.848  1.00  0.00     0.303 C 
HETATM    4  C2  UNK     1      17.423   1.420  36.522  1.00  0.00     0.303 C 
HETATM    5  C3  UNK     1      18.586  -0.804  35.157  1.00  0.00     0.303 C 
HETATM    6  C4  UNK     1      17.031  -0.030  36.829  1.00  0.00     0.303 C 
ENDROOT
BRANCH   1   7
HETATM    7  C5  UNK     1      18.238   2.940  34.837  1.00  0.00     0.312 C 
BRANCH   7   8
HETATM    8  C7  UNK     1      18.292   3.213  33.374  1.00  0.00    -0.011 A 
HETATM    9  C10 UNK     1      18.313   2.211  32.483  1.00  0.00     0.092 A 
HETATM   10  C13 UNK     1      18.367   2.431  31.028  1.00  0.00     0.288 A 
HETATM   11  O1  UNK     1      18.396   3.748  30.598  1.00  0.00    -0.275 OA
HETATM   12  O4  UNK     1      18.383   1.489  30.243  1.00  0.00    -0.260 OA
HETATM   13  C11 UNK     1      18.377   4.822  31.510  1.00  0.00     0.090 A 
HETATM   14  C8  UNK     1      18.327   4.599  32.887  1.00  0.00     0.009 A 
HETATM   15  C14 UNK     1      18.412   6.107  30.964  1.00  0.00     0.041 A 
HETATM   16  C12 UNK     1      18.312   5.720  33.727  1.00  0.00     0.051 A 
HETATM   17  C15 UNK     1      18.347   7.014  33.194  1.00  0.00     0.069 A 
HETATM   18  C16 UNK     1      18.396   7.207  31.815  1.00  0.00     0.039 A 
BRANCH  17  19
HETATM   19  O3  UNK     1      18.332   8.090  34.028  1.00  0.00    -0.351 OA
BRANCH  19  20
HETATM   20  C21 UNK     1      19.421   8.220  34.939  1.00  0.00     0.171 C 
HETATM   21  C25 UNK     1      20.370   9.282  34.425  1.00  0.00     0.034 C 
ENDBRANCH  19  20
ENDBRANCH  17  19
ENDBRANCH   7   8
ENDBRANCH   1   7
BRANCH   2  22
HETATM   22  C6  UNK     1      17.773  -2.325  36.844  1.00  0.00     0.375 C 
BRANCH  22  23
HETATM   23  C9  UNK     1      19.027  -3.157  37.043  1.00  0.00     0.250 C 
HETATM   24  O2  UNK     1      20.085  -2.675  37.437  1.00  0.00    -0.271 OA
HETATM   25  N3  UNK     1      18.776  -4.490  36.725  1.00  0.00    -0.326 N 
HETATM   26  H15 UNK     1      17.840  -4.738  36.417  1.00  0.00     0.169 HD
BRANCH  25  27
HETATM   27  C17 UNK     1      19.683  -5.575  36.780  1.00  0.00     0.035 A 
HETATM   28  C18 UNK     1      20.319  -5.894  37.980  1.00  0.00     0.036 A 
HETATM   29  C20 UNK     1      21.212  -6.964  38.034  1.00  0.00    -0.060 A 
HETATM   30  C23 UNK     1      21.468  -7.716  36.887  1.00  0.00     0.007 A 
HETATM   31  C24 UNK     1      21.892  -7.305  39.316  1.00  0.00     0.048 C 
HETATM   32  C22 UNK     1      20.833  -7.398  35.686  1.00  0.00     0.003 A 
HETATM   33  C19 UNK     1      19.940  -6.327  35.634  1.00  0.00     0.029 A 
ENDBRANCH  25  27
ENDBRANCH  22  23
ENDBRANCH   2  22
TORSDOF 7
ENDMDL
MODEL 7
REMARK VINA RESULT:      -8.6     26.396     30.276
REMARK  7 active torsions:
REMARK  status: ('A' for Active; 'I' for Inactive)
REMARK    1  A    between atoms: C15_22  and  O3_3 
REMARK    2  A    between atoms: C21_28  and  O3_3 
REMARK    3  A    between atoms: C5_12  and  N1_5 
REMARK    4  A    between atoms: C6_13  and  N2_6 
REMARK    5  A    between atoms: C17_24  and  N3_7 
REMARK       I    between atoms: C9_16  and  N3_7 
REMARK    6  A    between atoms: C5_12  and  C7_14 
REMARK    7  A    between atoms: C6_13  and  C9_16 
ROOT
HETATM    1  N1  UNK     1      16.871   9.490   9.673  1.00  0.00     0.096 N 
HETATM    2  N2  UNK     1      15.240   7.122   9.979  1.00  0.00     0.100 N 
HETATM    3  C1  UNK     1      17.321   8.356  10.489  1.00  0.00     0.303 C 
HETATM    4  C2  UNK     1      15.405   9.568   9.664  1.00  0.00     0.303 C 
HETATM    5  C3  UNK     1      16.707   7.045   9.987  1.00  0.00     0.303 C 
HETATM    6  C4  UNK     1      14.792   8.256   9.161  1.00  0.00     0.303 C 
ENDROOT
BRANCH   1   7
HETATM    7  C5  UNK     1      17.454  10.741  10.156  1.00  0.00     0.312 C 
BRANCH   7   8
HETATM    8  C7  UNK     1      18.422  11.322   9.184  1.00  0.00    -0.011 A 
HETATM    9  C10 UNK     1      18.096  11.481   7.894  1.00  0.00     0.092 A 
HETATM   10  C13 UNK     1      19.019  12.050   6.897  1.00  0.00     0.288 A 
HETATM   11  O1  UNK     1      20.272  12.429   7.353  1.00  0.00    -0.275 OA
HETATM   12  O4  UNK     1      18.686  12.181   5.724  1.00  0.00    -0.260 OA
HETATM   13  C11 UNK     1      20.643  12.273   8.703  1.00  0.00     0.090 A 
HETATM   14  C8  UNK     1      19.759  11.731   9.637  1.00  0.00     0.009 A 
HETATM   15  C14 UNK     1      21.932  12.687   9.049  1.00  0.00     0.041 A 
HETATM   16  C12 UNK     1      20.205  11.609  10.959  1.00  0.00     0.051 A 
HETATM   17  C15 UNK     1      21.493  12.019  11.322  1.00  0.00     0.069 A 
HETATM   18  C16 UNK     1      22.355  12.558  10.367  1.00  0.00     0.039 A 
BRANCH  17  19
HETATM   19  O3  UNK     1      21.907  11.891  12.612  1.00  0.00    -0.351 OA
BRANCH  19  20
HETATM   20  C21 UNK     1      21.371  12.814  13.559  1.00  0.00     0.171 C 
HETATM   21  C25 UNK     1      21.170  12.103  14.880  1.00  0.00     0.034 C 
ENDBRANCH  19  20
ENDBRANCH  17  19
ENDBRANCH   7   8
ENDBRANCH   1   7
BRANCH   2  22
HETATM   22  C6  UNK     1      14.656   5.872   9.498  1.00  0.00     0.375 C 
BRANCH  22  23
HETATM   23  C9  UNK     1      13.148   6.024   9.399  1.00  0.00     0.250 C 
HETATM   24  O2  UNK     1      12.437   6.214  10.380  1.00  0.00    -0.271 OA
HETATM   25  N3  UNK     1      12.741   5.922   8.070  1.00  0.00    -0.326 N 
HETATM   26  H15 UNK     1      13.455   5.769   7.363  1.00  0.00     0.169 HD
BRANCH  25  27
HETATM   27  C17 UNK     1      11.422   6.009   7.563  1.00  0.00     0.035 A 
HETATM   28  C18 UNK     1      10.332   5.887   8.426  1.00  0.00     0.036 A 
HETATM   29  C20 UNK     1       9.034   5.974   7.927  1.00  0.00    -0.060 A 
HETATM   30  C23 UNK     1       8.824   6.183   6.563  1.00  0.00     0.007 A 
HETATM   31  C24 UNK     1       7.869   5.843   8.849  1.00  0.00     0.048 C 
HETATM   32  C22 UNK     1       9.912   6.304   5.700  1.00  0.00     0.003 A 
HETATM   33  C19 UNK     1      11.212   6.217   6.201  1.00  0.00     0.029 A 
ENDBRANCH  25  27
ENDBRANCH  22  23
ENDBRANCH   2  22
TORSDOF 7
ENDMDL
MODEL 8
REMARK VINA RESULT:      -8.6      8.104     10.347
REMARK  7 active torsions:
REMARK  status: ('A' for Active; 'I' for Inactive)
REMARK    1  A    between atoms: C15_22  and  O3_3 
REMARK    2  A    between atoms: C21_28  and  O3_3 
REMARK    3  A    between atoms: C5_12  and  N1_5 
REMARK    4  A    between atoms: C6_13  and  N2_6 
REMARK    5  A    between atoms: C17_24  and  N3_7 
REMARK       I    between atoms: C9_16  and  N3_7 
REMARK    6  A    between atoms: C5_12  and  C7_14 
REMARK    7  A    between atoms: C6_13  and  C9_16 
ROOT
HETATM    1  N1  UNK     1      25.941  -7.597  37.996  1.00  0.00     0.096 N 
HETATM    2  N2  UNK     1      28.734  -7.063  37.470  1.00  0.00     0.100 N 
HETATM    3  C1  UNK     1      26.748  -6.786  38.916  1.00  0.00     0.303 C 
HETATM    4  C2  UNK     1      26.786  -8.573  37.296  1.00  0.00     0.303 C 
HETATM    5  C3  UNK     1      27.889  -6.086  38.169  1.00  0.00     0.303 C 
HETATM    6  C4  UNK     1      27.926  -7.873  36.549  1.00  0.00     0.303 C 
ENDROOT
BRANCH   1   7
HETATM    7  C5  UNK     1      24.856  -8.267  38.709  1.00  0.00     0.312 C 
BRANCH   7   8
HETATM    8  C7  UNK     1      23.521  -7.949  38.131  1.00  0.00    -0.011 A 
HETATM    9  C10 UNK     1      22.839  -6.862  38.519  1.00  0.00     0.092 A 
HETATM   10  C13 UNK     1      21.517  -6.507  37.976  1.00  0.00     0.288 A 
HETATM   11  O1  UNK     1      20.986  -7.360  37.021  1.00  0.00    -0.275 OA
HETATM   12  O4  UNK     1      20.923  -5.503  38.355  1.00  0.00    -0.260 OA
HETATM   13  C11 UNK     1      21.678  -8.510  36.594  1.00  0.00     0.090 A 
HETATM   14  C8  UNK     1      22.930  -8.835  37.118  1.00  0.00     0.009 A 
HETATM   15  C14 UNK     1      21.046  -9.298  35.629  1.00  0.00     0.041 A 
HETATM   16  C12 UNK     1      23.552  -9.997  36.642  1.00  0.00     0.051 A 
HETATM   17  C15 UNK     1      22.932 -10.797  35.675  1.00  0.00     0.069 A 
HETATM   18  C16 UNK     1      21.681 -10.447  35.169  1.00  0.00     0.039 A 
BRANCH  17  19
HETATM   19  O3  UNK     1      23.554 -11.922  35.226  1.00  0.00    -0.351 OA
BRANCH  19  20
HETATM   20  C21 UNK     1      24.725 -12.338  35.925  1.00  0.00     0.171 C 
HETATM   21  C25 UNK     1      24.665 -13.835  36.141  1.00  0.00     0.034 C 
ENDBRANCH  19  20
ENDBRANCH  17  19
ENDBRANCH   7   8
ENDBRANCH   1   7
BRANCH   2  22
HETATM   22  C6  UNK     1      29.821  -6.395  36.757  1.00  0.00     0.375 C 
BRANCH  22  23
HETATM   23  C9  UNK     1      29.820  -6.838  35.305  1.00  0.00     0.250 C 
HETATM   24  O2  UNK     1      30.295  -7.908  34.940  1.00  0.00    -0.271 OA
HETATM   25  N3  UNK     1      29.213  -5.870  34.507  1.00  0.00    -0.326 N 
HETATM   26  H15 UNK     1      28.859  -5.032  34.961  1.00  0.00     0.169 HD
BRANCH  25  27
HETATM   27  C17 UNK     1      29.015  -5.907  33.106  1.00  0.00     0.035 A 
HETATM   28  C18 UNK     1      27.819  -6.396  32.581  1.00  0.00     0.036 A 
HETATM   29  C20 UNK     1      27.625  -6.432  31.201  1.00  0.00    -0.060 A 
HETATM   30  C23 UNK     1      28.628  -5.977  30.344  1.00  0.00     0.007 A 
HETATM   31  C24 UNK     1      26.346  -6.955  30.641  1.00  0.00     0.048 C 
HETATM   32  C22 UNK     1      29.824  -5.488  30.868  1.00  0.00     0.003 A 
HETATM   33  C19 UNK     1      30.017  -5.453  32.249  1.00  0.00     0.029 A 
ENDBRANCH  25  27
ENDBRANCH  22  23
ENDBRANCH   2  22
TORSDOF 7
ENDMDL
MODEL 9
REMARK VINA RESULT:      -8.5      8.398     12.732
REMARK  7 active torsions:
REMARK  status: ('A' for Active; 'I' for Inactive)
REMARK    1  A    between atoms: C15_22  and  O3_3 
REMARK    2  A    between atoms: C21_28  and  O3_3 
REMARK    3  A    between atoms: C5_12  and  N1_5 
REMARK    4  A    between atoms: C6_13  and  N2_6 
REMARK    5  A    between atoms: C17_24  and  N3_7 
REMARK       I    between atoms: C9_16  and  N3_7 
REMARK    6  A    between atoms: C5_12  and  C7_14 
REMARK    7  A    between atoms: C6_13  and  C9_16 
ROOT
HETATM    1  N1  UNK     1      26.794  -9.508  37.629  1.00  0.00     0.096 N 
HETATM    2  N2  UNK     1      29.613  -9.267  38.226  1.00  0.00     0.100 N 
HETATM    3  C1  UNK     1      27.705  -8.791  36.728  1.00  0.00     0.303 C 
HETATM    4  C2  UNK     1      27.276  -9.434  39.014  1.00  0.00     0.303 C 
HETATM    5  C3  UNK     1      29.130  -9.343  36.841  1.00  0.00     0.303 C 
HETATM    6  C4  UNK     1      28.702  -9.986  39.126  1.00  0.00     0.303 C 
ENDROOT
BRANCH   1   7
HETATM    7  C5  UNK     1      25.436  -8.979  37.524  1.00  0.00     0.312 C 
BRANCH   7   8
HETATM    8  C7  UNK     1      24.535  -9.888  36.762  1.00  0.00    -0.011 A 
HETATM    9  C10 UNK     1      24.980 -11.056  36.276  1.00  0.00     0.092 A 
HETATM   10  C13 UNK     1      24.127 -11.986  35.517  1.00  0.00     0.288 A 
HETATM   11  O1  UNK     1      22.810 -11.603  35.317  1.00  0.00    -0.275 OA
HETATM   12  O4  UNK     1      24.569 -13.047  35.088  1.00  0.00    -0.260 OA
HETATM   13  C11 UNK     1      22.314 -10.382  35.815  1.00  0.00     0.090 A 
HETATM   14  C8  UNK     1      23.134  -9.509  36.532  1.00  0.00     0.009 A 
HETATM   15  C14 UNK     1      20.972 -10.098  35.552  1.00  0.00     0.041 A 
HETATM   16  C12 UNK     1      22.565  -8.314  36.992  1.00  0.00     0.051 A 
HETATM   17  C15 UNK     1      21.222  -8.015  36.736  1.00  0.00     0.069 A 
HETATM   18  C16 UNK     1      20.426  -8.907  36.018  1.00  0.00     0.039 A 
BRANCH  17  19
HETATM   19  O3  UNK     1      20.688  -6.849  37.192  1.00  0.00    -0.351 OA
BRANCH  19  20
HETATM   20  C21 UNK     1      19.582  -6.947  38.087  1.00  0.00     0.171 C 
HETATM   21  C25 UNK     1      20.066  -6.694  39.499  1.00  0.00     0.034 C 
ENDBRANCH  19  20
ENDBRANCH  17  19
ENDBRANCH   7   8
ENDBRANCH   1   7
BRANCH   2  22
HETATM   22  C6  UNK     1      30.972  -9.795  38.333  1.00  0.00     0.375 C 
BRANCH  22  23
HETATM   23  C9  UNK     1      31.863  -9.105  37.315  1.00  0.00     0.250 C 
HETATM   24  O2  UNK     1      32.228  -9.651  36.279  1.00  0.00    -0.271 OA
HETATM   25  N3  UNK     1      32.169  -7.814  37.739  1.00  0.00    -0.326 N 
HETATM   26  H15 UNK     1      31.782  -7.500  38.625  1.00  0.00     0.169 HD
BRANCH  25  27
HETATM   27  C17 UNK     1      32.969  -6.854  37.074  1.00  0.00     0.035 A 
HETATM   28  C18 UNK     1      32.386  -5.964  36.171  1.00  0.00     0.036 A 
HETATM   29  C20 UNK     1      33.175  -5.018  35.517  1.00  0.00    -0.060 A 
HETATM   30  C23 UNK     1      34.547  -4.962  35.766  1.00  0.00     0.007 A 
HETATM   31  C24 UNK     1      32.552  -4.067  34.552  1.00  0.00     0.048 C 
HETATM   32  C22 UNK     1      35.130  -5.852  36.667  1.00  0.00     0.003 A 
HETATM   33  C19 UNK     1      34.340  -6.798  37.322  1.00  0.00     0.029 A 
ENDBRANCH  25  27
ENDBRANCH  22  23
ENDBRANCH   2  22
TORSDOF 7
ENDMDL
MODEL 10
REMARK VINA RESULT:      -8.5      8.447     13.073
REMARK  7 active torsions:
REMARK  status: ('A' for Active; 'I' for Inactive)
REMARK    1  A    between atoms: C15_22  and  O3_3 
REMARK    2  A    between atoms: C21_28  and  O3_3 
REMARK    3  A    between atoms: C5_12  and  N1_5 
REMARK    4  A    between atoms: C6_13  and  N2_6 
REMARK    5  A    between atoms: C17_24  and  N3_7 
REMARK       I    between atoms: C9_16  and  N3_7 
REMARK    6  A    between atoms: C5_12  and  C7_14 
REMARK    7  A    between atoms: C6_13  and  C9_16 
ROOT
HETATM    1  N1  UNK     1      29.302  -6.324  37.496  1.00  0.00     0.096 N 
HETATM    2  N2  UNK     1      26.760  -7.405  38.351  1.00  0.00     0.100 N 
HETATM    3  C1  UNK     1      28.572  -5.747  38.631  1.00  0.00     0.303 C 
HETATM    4  C2  UNK     1      28.367  -6.925  36.537  1.00  0.00     0.303 C 
HETATM    5  C3  UNK     1      27.695  -6.804  39.311  1.00  0.00     0.303 C 
HETATM    6  C4  UNK     1      27.492  -7.983  37.218  1.00  0.00     0.303 C 
ENDROOT
BRANCH   1   7
HETATM    7  C5  UNK     1      30.134  -5.313  36.846  1.00  0.00     0.312 C 
BRANCH   7   8
HETATM    8  C7  UNK     1      31.461  -5.854  36.440  1.00  0.00    -0.011 A 
HETATM    9  C10 UNK     1      32.450  -6.006  37.333  1.00  0.00     0.092 A 
HETATM   10  C13 UNK     1      33.778  -6.535  36.978  1.00  0.00     0.288 A 
HETATM   11  O1  UNK     1      33.976  -6.882  35.651  1.00  0.00    -0.275 OA
HETATM   12  O4  UNK     1      34.658  -6.660  37.823  1.00  0.00    -0.260 OA
HETATM   13  C11 UNK     1      32.957  -6.732  34.690  1.00  0.00     0.090 A 
HETATM   14  C8  UNK     1      31.703  -6.228  35.040  1.00  0.00     0.009 A 
HETATM   15  C14 UNK     1      33.269  -7.112  33.382  1.00  0.00     0.041 A 
HETATM   16  C12 UNK     1      30.744  -6.110  34.025  1.00  0.00     0.051 A 
HETATM   17  C15 UNK     1      31.043  -6.486  32.710  1.00  0.00     0.069 A 
HETATM   18  C16 UNK     1      32.303  -6.987  32.390  1.00  0.00     0.039 A 
BRANCH  17  19
HETATM   19  O3  UNK     1      30.096  -6.363  31.739  1.00  0.00    -0.351 OA
BRANCH  19  20
HETATM   20  C21 UNK     1      29.275  -5.198  31.778  1.00  0.00     0.171 C 
HETATM   21  C25 UNK     1      29.827  -4.173  30.811  1.00  0.00     0.034 C 
ENDBRANCH  19  20
ENDBRANCH  17  19
ENDBRANCH   7   8
ENDBRANCH   1   7
BRANCH   2  22
HETATM   22  C6  UNK     1      25.926  -8.415  39.001  1.00  0.00     0.375 C 
BRANCH  22  23
HETATM   23  C9  UNK     1      24.531  -8.378  38.403  1.00  0.00     0.250 C 
HETATM   24  O2  UNK     1      24.315  -8.588  37.213  1.00  0.00    -0.271 OA
HETATM   25  N3  UNK     1      23.592  -8.087  39.390  1.00  0.00    -0.326 N 
HETATM   26  H15 UNK     1      23.927  -7.944  40.339  1.00  0.00     0.169 HD
BRANCH  25  27
HETATM   27  C17 UNK     1      22.190  -7.965  39.238  1.00  0.00     0.035 A 
HETATM   28  C18 UNK     1      21.411  -9.098  39.001  1.00  0.00     0.036 A 
HETATM   29  C20 UNK     1      20.030  -8.977  38.852  1.00  0.00    -0.060 A 
HETATM   30  C23 UNK     1      19.427  -7.722  38.941  1.00  0.00     0.007 A 
HETATM   31  C24 UNK     1      19.199 -10.189  38.598  1.00  0.00     0.048 C 
HETATM   32  C22 UNK     1      20.204  -6.589  39.177  1.00  0.00     0.003 A 
HETATM   33  C19 UNK     1      21.586  -6.711  39.327  1.00  0.00     0.029 A 
ENDBRANCH  25  27
ENDBRANCH  22  23
ENDBRANCH   2  22
TORSDOF 7
ENDMDL
