MODEL 1
REMARK VINA RESULT:      -9.4      0.000      0.000
REMARK  2 active torsions:
REMARK  status: ('A' for Active; 'I' for Inactive)
REMARK    1  A    between atoms: C2_8  and  N1_5 
REMARK       I    between atoms: C8_14  and  N1_5 
REMARK    2  A    between atoms: C8_14  and  C9_15 
ROOT
HETATM    1  O1  UNK     1      17.538   8.108  31.800  1.00  0.00    -0.275 OA
HETATM    2  O3  UNK     1      16.567   9.661  33.177  1.00  0.00    -0.260 OA
HETATM    3  C1  UNK     1      17.799   5.822  32.594  1.00  0.00     0.000 A 
HETATM    4  C2  UNK     1      18.826   4.191  31.131  1.00  0.00     0.035 A 
HETATM    5  C3  UNK     1      17.965   6.780  31.597  1.00  0.00     0.089 A 
HETATM    6  C4  UNK     1      18.234   4.517  32.355  1.00  0.00     0.043 A 
HETATM    7  C5  UNK     1      18.985   5.165  30.143  1.00  0.00     0.032 A 
HETATM    8  C6  UNK     1      18.553   6.470  30.373  1.00  0.00     0.040 A 
HETATM    9  C7  UNK     1      17.177   6.215  33.847  1.00  0.00     0.020 A 
HETATM   10  C10 UNK     1      16.776   7.475  34.032  1.00  0.00     0.083 A 
HETATM   11  C11 UNK     1      16.942   8.508  32.992  1.00  0.00     0.288 A 
ENDROOT
BRANCH   4  12
HETATM   12  N1  UNK     1      19.260   2.885  30.895  1.00  0.00    -0.323 N 
HETATM   13  C8  UNK     1      18.582   1.859  30.225  1.00  0.00     0.259 C 
HETATM   14  O2  UNK     1      17.467   1.923  29.717  1.00  0.00    -0.267 OA
HETATM   15  H4  UNK     1      20.186   2.665  31.258  1.00  0.00     0.169 HD
BRANCH  13  16
HETATM   16  C9  UNK     1      19.298   0.559  30.159  1.00  0.00     0.072 A 
HETATM   17  C12 UNK     1      19.862   0.188  28.960  1.00  0.00     0.022 A 
HETATM   18  C14 UNK     1      20.534  -1.027  28.887  1.00  0.00     0.020 A 
HETATM   19  C15 UNK     1      20.598  -1.802  30.034  1.00  0.00     0.118 A 
HETATM   20  N2  UNK     1      20.049  -1.449  31.218  1.00  0.00    -0.248 NA
HETATM   21  C13 UNK     1      19.404  -0.261  31.250  1.00  0.00     0.141 A 
HETATM   22 Cl1  UNK     1      18.732   0.115  32.789  1.00  0.00    -0.061 Cl
ENDBRANCH  13  16
ENDBRANCH   4  12
TORSDOF 2
ENDMDL
MODEL 2
REMARK VINA RESULT:      -9.2      1.874      2.051
REMARK  2 active torsions:
REMARK  status: ('A' for Active; 'I' for Inactive)
REMARK    1  A    between atoms: C2_8  and  N1_5 
REMARK       I    between atoms: C8_14  and  N1_5 
REMARK    2  A    between atoms: C8_14  and  C9_15 
ROOT
HETATM    1  O1  UNK     1      18.151   8.493  33.422  1.00  0.00    -0.275 OA
HETATM    2  O3  UNK     1      16.651  10.018  34.242  1.00  0.00    -0.260 OA
HETATM    3  C1  UNK     1      17.318   6.478  32.340  1.00  0.00     0.000 A 
HETATM    4  C2  UNK     1      18.913   4.875  31.478  1.00  0.00     0.035 A 
HETATM    5  C3  UNK     1      18.384   7.268  32.764  1.00  0.00     0.089 A 
HETATM    6  C4  UNK     1      17.589   5.272  31.691  1.00  0.00     0.043 A 
HETATM    7  C5  UNK     1      19.969   5.680  31.910  1.00  0.00     0.032 A 
HETATM    8  C6  UNK     1      19.707   6.886  32.558  1.00  0.00     0.040 A 
HETATM    9  C7  UNK     1      15.962   6.938  32.588  1.00  0.00     0.020 A 
HETATM   10  C10 UNK     1      15.751   8.099  33.213  1.00  0.00     0.083 A 
HETATM   11  C11 UNK     1      16.863   8.953  33.671  1.00  0.00     0.288 A 
ENDROOT
BRANCH   4  12
HETATM   12  N1  UNK     1      19.180   3.668  30.829  1.00  0.00    -0.323 N 
HETATM   13  C8  UNK     1      18.697   2.393  31.149  1.00  0.00     0.259 C 
HETATM   14  O2  UNK     1      17.942   2.101  32.071  1.00  0.00    -0.267 OA
HETATM   15  H4  UNK     1      19.801   3.737  30.025  1.00  0.00     0.169 HD
BRANCH  13  16
HETATM   16  C9  UNK     1      19.188   1.289  30.282  1.00  0.00     0.072 A 
HETATM   17  C12 UNK     1      20.107   0.410  30.806  1.00  0.00     0.022 A 
HETATM   18  C14 UNK     1      20.573  -0.625  30.004  1.00  0.00     0.020 A 
HETATM   19  C15 UNK     1      20.082  -0.713  28.711  1.00  0.00     0.118 A 
HETATM   20  N2  UNK     1      19.179   0.144  28.184  1.00  0.00    -0.248 NA
HETATM   21  C13 UNK     1      18.749   1.137  28.995  1.00  0.00     0.141 A 
HETATM   22 Cl1  UNK     1      17.604   2.185  28.252  1.00  0.00    -0.061 Cl
ENDBRANCH  13  16
ENDBRANCH   4  12
TORSDOF 2
ENDMDL
MODEL 3
REMARK VINA RESULT:      -8.8      2.914      7.998
REMARK  2 active torsions:
REMARK  status: ('A' for Active; 'I' for Inactive)
REMARK    1  A    between atoms: C2_8  and  N1_5 
REMARK       I    between atoms: C8_14  and  N1_5 
REMARK    2  A    between atoms: C8_14  and  C9_15 
ROOT
HETATM    1  O1  UNK     1      19.808  -1.273  31.706  1.00  0.00    -0.275 OA
HETATM    2  O3  UNK     1      20.845  -2.977  30.580  1.00  0.00    -0.260 OA
HETATM    3  C1  UNK     1      19.334   0.806  30.532  1.00  0.00     0.000 A 
HETATM    4  C2  UNK     1      18.239   2.598  31.732  1.00  0.00     0.035 A 
HETATM    5  C3  UNK     1      19.285   0.036  31.691  1.00  0.00     0.089 A 
HETATM    6  C4  UNK     1      18.805   2.097  30.556  1.00  0.00     0.043 A 
HETATM    7  C5  UNK     1      18.198   1.812  32.886  1.00  0.00     0.032 A 
HETATM    8  C6  UNK     1      18.723   0.522  32.870  1.00  0.00     0.040 A 
HETATM    9  C7  UNK     1      19.935   0.236  29.337  1.00  0.00     0.020 A 
HETATM   10  C10 UNK     1      20.429  -1.005  29.360  1.00  0.00     0.083 A 
HETATM   11  C11 UNK     1      20.388  -1.839  30.576  1.00  0.00     0.288 A 
ENDROOT
BRANCH   4  12
HETATM   12  N1  UNK     1      17.711   3.891  31.753  1.00  0.00    -0.323 N 
HETATM   13  C8  UNK     1      18.056   4.948  32.604  1.00  0.00     0.259 C 
HETATM   14  O2  UNK     1      18.896   4.930  33.498  1.00  0.00    -0.267 OA
HETATM   15  H4  UNK     1      16.989   4.074  31.059  1.00  0.00     0.169 HD
BRANCH  13  16
HETATM   16  C9  UNK     1      17.290   6.206  32.400  1.00  0.00     0.072 A 
HETATM   17  C12 UNK     1      16.458   6.631  33.409  1.00  0.00     0.022 A 
HETATM   18  C14 UNK     1      15.737   7.806  33.229  1.00  0.00     0.020 A 
HETATM   19  C15 UNK     1      15.898   8.487  32.032  1.00  0.00     0.118 A 
HETATM   20  N2  UNK     1      16.712   8.080  31.033  1.00  0.00    -0.248 NA
HETATM   21  C13 UNK     1      17.397   6.933  31.246  1.00  0.00     0.141 A 
HETATM   22 Cl1  UNK     1      18.409   6.483  29.929  1.00  0.00    -0.061 Cl
ENDBRANCH  13  16
ENDBRANCH   4  12
TORSDOF 2
ENDMDL
MODEL 4
REMARK VINA RESULT:      -8.7      9.191     13.150
REMARK  2 active torsions:
REMARK  status: ('A' for Active; 'I' for Inactive)
REMARK    1  A    between atoms: C2_8  and  N1_5 
REMARK       I    between atoms: C8_14  and  N1_5 
REMARK    2  A    between atoms: C8_14  and  C9_15 
ROOT
HETATM    1  O1  UNK     1      18.932 -10.176  37.250  1.00  0.00    -0.275 OA
HETATM    2  O3  UNK     1      19.540 -11.978  38.527  1.00  0.00    -0.260 OA
HETATM    3  C1  UNK     1      19.292  -7.932  38.122  1.00  0.00     0.000 A 
HETATM    4  C2  UNK     1      18.646  -6.038  36.763  1.00  0.00     0.035 A 
HETATM    5  C3  UNK     1      18.846  -8.776  37.108  1.00  0.00     0.089 A 
HETATM    6  C4  UNK     1      19.190  -6.552  37.944  1.00  0.00     0.043 A 
HETATM    7  C5  UNK     1      18.203  -6.899  35.757  1.00  0.00     0.032 A 
HETATM    8  C6  UNK     1      18.302  -8.278  35.926  1.00  0.00     0.040 A 
HETATM    9  C7  UNK     1      19.849  -8.520  39.329  1.00  0.00     0.020 A 
HETATM   10  C10 UNK     1      19.926  -9.847  39.456  1.00  0.00     0.083 A 
HETATM   11  C11 UNK     1      19.460 -10.762  38.396  1.00  0.00     0.288 A 
ENDROOT
BRANCH   4  12
HETATM   12  N1  UNK     1      18.545  -4.656  36.589  1.00  0.00    -0.323 N 
HETATM   13  C8  UNK     1      19.580  -3.712  36.575  1.00  0.00     0.259 C 
HETATM   14  O2  UNK     1      20.779  -3.931  36.715  1.00  0.00    -0.267 OA
HETATM   15  H4  UNK     1      17.599  -4.305  36.454  1.00  0.00     0.169 HD
BRANCH  13  16
HETATM   16  C9  UNK     1      19.151  -2.300  36.395  1.00  0.00     0.072 A 
HETATM   17  C12 UNK     1      18.492  -1.684  37.434  1.00  0.00     0.022 A 
HETATM   18  C14 UNK     1      18.086  -0.364  37.277  1.00  0.00     0.020 A 
HETATM   19  C15 UNK     1      18.369   0.262  36.073  1.00  0.00     0.118 A 
HETATM   20  N2  UNK     1      19.016  -0.331  35.045  1.00  0.00    -0.248 NA
HETATM   21  C13 UNK     1      19.395  -1.616  35.235  1.00  0.00     0.141 A 
HETATM   22 Cl1  UNK     1      20.209  -2.300  33.883  1.00  0.00    -0.061 Cl
ENDBRANCH  13  16
ENDBRANCH   4  12
TORSDOF 2
ENDMDL
MODEL 5
REMARK VINA RESULT:      -8.5      7.754     11.992
REMARK  2 active torsions:
REMARK  status: ('A' for Active; 'I' for Inactive)
REMARK    1  A    between atoms: C2_8  and  N1_5 
REMARK       I    between atoms: C8_14  and  N1_5 
REMARK    2  A    between atoms: C8_14  and  C9_15 
ROOT
HETATM    1  O1  UNK     1      22.176  -7.842  37.262  1.00  0.00    -0.275 OA
HETATM    2  O3  UNK     1      22.912  -9.915  36.624  1.00  0.00    -0.260 OA
HETATM    3  C1  UNK     1      20.553  -6.681  35.867  1.00  0.00     0.000 A 
HETATM    4  C2  UNK     1      19.783  -4.492  36.552  1.00  0.00     0.035 A 
HETATM    5  C3  UNK     1      21.360  -6.722  37.002  1.00  0.00     0.089 A 
HETATM    6  C4  UNK     1      19.759  -5.555  35.644  1.00  0.00     0.043 A 
HETATM    7  C5  UNK     1      20.599  -4.550  37.685  1.00  0.00     0.032 A 
HETATM    8  C6  UNK     1      21.394  -5.671  37.915  1.00  0.00     0.040 A 
HETATM    9  C7  UNK     1      20.567  -7.813  34.956  1.00  0.00     0.020 A 
HETATM   10  C10 UNK     1      21.343  -8.870  35.210  1.00  0.00     0.083 A 
HETATM   11  C11 UNK     1      22.206  -8.937  36.404  1.00  0.00     0.288 A 
ENDROOT
BRANCH   4  12
HETATM   12  N1  UNK     1      18.988  -3.367  36.326  1.00  0.00    -0.323 N 
HETATM   13  C8  UNK     1      19.395  -2.096  35.899  1.00  0.00     0.259 C 
HETATM   14  O2  UNK     1      20.539  -1.737  35.643  1.00  0.00    -0.267 OA
HETATM   15  H4  UNK     1      17.993  -3.499  36.494  1.00  0.00     0.169 HD
BRANCH  13  16
HETATM   16  C9  UNK     1      18.309  -1.088  35.776  1.00  0.00     0.072 A 
HETATM   17  C12 UNK     1      17.732  -0.610  36.930  1.00  0.00     0.022 A 
HETATM   18  C14 UNK     1      16.716   0.332  36.827  1.00  0.00     0.020 A 
HETATM   19  C15 UNK     1      16.338   0.741  35.558  1.00  0.00     0.118 A 
HETATM   20  N2  UNK     1      16.897   0.280  34.416  1.00  0.00    -0.248 NA
HETATM   21  C13 UNK     1      17.882  -0.636  34.557  1.00  0.00     0.141 A 
HETATM   22 Cl1  UNK     1      18.540  -1.174  33.061  1.00  0.00    -0.061 Cl
ENDBRANCH  13  16
ENDBRANCH   4  12
TORSDOF 2
ENDMDL
MODEL 6
REMARK VINA RESULT:      -8.3      7.831      9.608
REMARK  2 active torsions:
REMARK  status: ('A' for Active; 'I' for Inactive)
REMARK    1  A    between atoms: C2_8  and  N1_5 
REMARK       I    between atoms: C8_14  and  N1_5 
REMARK    2  A    between atoms: C8_14  and  C9_15 
ROOT
HETATM    1  O1  UNK     1      19.036   0.505  35.059  1.00  0.00    -0.275 OA
HETATM    2  O3  UNK     1      18.270   2.653  35.272  1.00  0.00    -0.260 OA
HETATM    3  C1  UNK     1      18.540  -1.107  36.814  1.00  0.00     0.000 A 
HETATM    4  C2  UNK     1      19.355  -3.374  36.578  1.00  0.00     0.035 A 
HETATM    5  C3  UNK     1      19.130  -0.797  35.592  1.00  0.00     0.089 A 
HETATM    6  C4  UNK     1      18.655  -2.408  37.308  1.00  0.00     0.043 A 
HETATM    7  C5  UNK     1      19.941  -3.044  35.354  1.00  0.00     0.032 A 
HETATM    8  C6  UNK     1      19.830  -1.749  34.853  1.00  0.00     0.040 A 
HETATM    9  C7  UNK     1      17.825  -0.065  37.532  1.00  0.00     0.020 A 
HETATM   10  C10 UNK     1      17.741   1.166  37.021  1.00  0.00     0.083 A 
HETATM   11  C11 UNK     1      18.358   1.519  35.728  1.00  0.00     0.288 A 
ENDROOT
BRANCH   4  12
HETATM   12  N1  UNK     1      19.468  -4.673  37.075  1.00  0.00    -0.323 N 
HETATM   13  C8  UNK     1      20.633  -5.350  37.460  1.00  0.00     0.259 C 
HETATM   14  O2  UNK     1      21.780  -4.917  37.430  1.00  0.00    -0.267 OA
HETATM   15  H4  UNK     1      18.590  -5.180  37.166  1.00  0.00     0.169 HD
BRANCH  13  16
HETATM   16  C9  UNK     1      20.433  -6.747  37.926  1.00  0.00     0.072 A 
HETATM   17  C12 UNK     1      20.160  -6.954  39.259  1.00  0.00     0.022 A 
HETATM   18  C14 UNK     1      19.972  -8.257  39.706  1.00  0.00     0.020 A 
HETATM   19  C15 UNK     1      20.072  -9.281  38.778  1.00  0.00     0.118 A 
HETATM   20  N2  UNK     1      20.339  -9.091  37.467  1.00  0.00    -0.248 NA
HETATM   21  C13 UNK     1      20.516  -7.811  37.069  1.00  0.00     0.141 A 
HETATM   22 Cl1  UNK     1      20.853  -7.652  35.389  1.00  0.00    -0.061 Cl
ENDBRANCH  13  16
ENDBRANCH   4  12
TORSDOF 2
ENDMDL
MODEL 7
REMARK VINA RESULT:      -8.2     13.272     15.411
REMARK  2 active torsions:
REMARK  status: ('A' for Active; 'I' for Inactive)
REMARK    1  A    between atoms: C2_8  and  N1_5 
REMARK       I    between atoms: C8_14  and  N1_5 
REMARK    2  A    between atoms: C8_14  and  C9_15 
ROOT
HETATM    1  O1  UNK     1      19.210   2.616  20.174  1.00  0.00    -0.275 OA
HETATM    2  O3  UNK     1      19.337   2.868  22.448  1.00  0.00    -0.260 OA
HETATM    3  C1  UNK     1      19.334   0.378  19.224  1.00  0.00     0.000 A 
HETATM    4  C2  UNK     1      19.199   0.125  16.821  1.00  0.00     0.035 A 
HETATM    5  C3  UNK     1      19.209   1.755  19.058  1.00  0.00     0.089 A 
HETATM    6  C4  UNK     1      19.329  -0.441  18.093  1.00  0.00     0.043 A 
HETATM    7  C5  UNK     1      19.075   1.508  16.673  1.00  0.00     0.032 A 
HETATM    8  C6  UNK     1      19.079   2.332  17.796  1.00  0.00     0.040 A 
HETATM    9  C7  UNK     1      19.466  -0.156  20.569  1.00  0.00     0.020 A 
HETATM   10  C10 UNK     1      19.467   0.665  21.621  1.00  0.00     0.083 A 
HETATM   11  C11 UNK     1      19.336   2.127  21.471  1.00  0.00     0.288 A 
ENDROOT
BRANCH   4  12
HETATM   12  N1  UNK     1      19.194  -0.698  15.693  1.00  0.00    -0.323 N 
HETATM   13  C8  UNK     1      18.348  -1.780  15.419  1.00  0.00     0.259 C 
HETATM   14  O2  UNK     1      17.445  -2.207  16.131  1.00  0.00    -0.267 OA
HETATM   15  H4  UNK     1      19.895  -0.472  14.990  1.00  0.00     0.169 HD
BRANCH  13  16
HETATM   16  C9  UNK     1      18.609  -2.484  14.136  1.00  0.00     0.072 A 
HETATM   17  C12 UNK     1      19.071  -1.744  13.071  1.00  0.00     0.022 A 
HETATM   18  C14 UNK     1      19.318  -2.392  11.867  1.00  0.00     0.020 A 
HETATM   19  C15 UNK     1      19.082  -3.756  11.805  1.00  0.00     0.118 A 
HETATM   20  N2  UNK     1      18.629  -4.494  12.843  1.00  0.00    -0.248 NA
HETATM   21  C13 UNK     1      18.400  -3.829  13.998  1.00  0.00     0.141 A 
HETATM   22 Cl1  UNK     1      17.824  -4.836  15.269  1.00  0.00    -0.061 Cl
ENDBRANCH  13  16
ENDBRANCH   4  12
TORSDOF 2
ENDMDL
MODEL 8
REMARK VINA RESULT:      -8.1     12.617     14.977
REMARK  2 active torsions:
REMARK  status: ('A' for Active; 'I' for Inactive)
REMARK    1  A    between atoms: C2_8  and  N1_5 
REMARK       I    between atoms: C8_14  and  N1_5 
REMARK    2  A    between atoms: C8_14  and  C9_15 
ROOT
HETATM    1  O1  UNK     1      19.029  -6.684  38.107  1.00  0.00    -0.275 OA
HETATM    2  O3  UNK     1      17.183  -6.283  36.810  1.00  0.00    -0.260 OA
HETATM    3  C1  UNK     1      21.019  -7.628  37.072  1.00  0.00     0.000 A 
HETATM    4  C2  UNK     1      22.962  -8.047  38.452  1.00  0.00     0.035 A 
HETATM    5  C3  UNK     1      20.356  -7.149  38.199  1.00  0.00     0.089 A 
HETATM    6  C4  UNK     1      22.333  -8.080  37.203  1.00  0.00     0.043 A 
HETATM    7  C5  UNK     1      22.282  -7.564  39.572  1.00  0.00     0.032 A 
HETATM    8  C6  UNK     1      20.970  -7.110  39.449  1.00  0.00     0.040 A 
HETATM    9  C7  UNK     1      20.318  -7.640  35.799  1.00  0.00     0.020 A 
HETATM   10  C10 UNK     1      19.061  -7.198  35.720  1.00  0.00     0.083 A 
HETATM   11  C11 UNK     1      18.337  -6.686  36.899  1.00  0.00     0.288 A 
ENDROOT
BRANCH   4  12
HETATM   12  N1  UNK     1      24.277  -8.500  38.580  1.00  0.00    -0.323 N 
HETATM   13  C8  UNK     1      25.444  -7.735  38.692  1.00  0.00     0.259 C 
HETATM   14  O2  UNK     1      25.525  -6.511  38.698  1.00  0.00    -0.267 OA
HETATM   15  H4  UNK     1      24.386  -9.512  38.594  1.00  0.00     0.169 HD
BRANCH  13  16
HETATM   16  C9  UNK     1      26.708  -8.512  38.786  1.00  0.00     0.072 A 
HETATM   17  C12 UNK     1      26.845  -9.406  39.823  1.00  0.00     0.022 A 
HETATM   18  C14 UNK     1      28.023 -10.137  39.921  1.00  0.00     0.020 A 
HETATM   19  C15 UNK     1      29.001  -9.923  38.963  1.00  0.00     0.118 A 
HETATM   20  N2  UNK     1      28.879  -9.048  37.939  1.00  0.00    -0.248 NA
HETATM   21  C13 UNK     1      27.719  -8.355  37.877  1.00  0.00     0.141 A 
HETATM   22 Cl1  UNK     1      27.641  -7.263  36.549  1.00  0.00    -0.061 Cl
ENDBRANCH  13  16
ENDBRANCH   4  12
TORSDOF 2
ENDMDL
MODEL 9
REMARK VINA RESULT:      -8.0     14.531     18.067
REMARK  2 active torsions:
REMARK  status: ('A' for Active; 'I' for Inactive)
REMARK    1  A    between atoms: C2_8  and  N1_5 
REMARK       I    between atoms: C8_14  and  N1_5 
REMARK    2  A    between atoms: C8_14  and  C9_15 
ROOT
HETATM    1  O1  UNK     1      18.578  -4.181  12.153  1.00  0.00    -0.275 OA
HETATM    2  O3  UNK     1      18.664  -4.562   9.896  1.00  0.00    -0.260 OA
HETATM    3  C1  UNK     1      19.250  -2.005  13.012  1.00  0.00     0.000 A 
HETATM    4  C2  UNK     1      19.154  -1.614  15.398  1.00  0.00     0.035 A 
HETATM    5  C3  UNK     1      18.780  -3.297  13.233  1.00  0.00     0.089 A 
HETATM    6  C4  UNK     1      19.437  -1.159  14.107  1.00  0.00     0.043 A 
HETATM    7  C5  UNK     1      18.684  -2.914  15.601  1.00  0.00     0.032 A 
HETATM    8  C6  UNK     1      18.493  -3.764  14.514  1.00  0.00     0.040 A 
HETATM    9  C7  UNK     1      19.529  -1.583  11.650  1.00  0.00     0.020 A 
HETATM   10  C10 UNK     1      19.335  -2.427  10.633  1.00  0.00     0.083 A 
HETATM   11  C11 UNK     1      18.838  -3.800  10.841  1.00  0.00     0.288 A 
ENDROOT
BRANCH   4  12
HETATM   12  N1  UNK     1      19.343  -0.766  16.491  1.00  0.00    -0.323 N 
HETATM   13  C8  UNK     1      18.452  -0.499  17.539  1.00  0.00     0.259 C 
HETATM   14  O2  UNK     1      17.329  -0.970  17.688  1.00  0.00    -0.267 OA
HETATM   15  H4  UNK     1      20.242  -0.290  16.519  1.00  0.00     0.169 HD
BRANCH  13  16
HETATM   16  C9  UNK     1      18.932   0.480  18.549  1.00  0.00     0.072 A 
HETATM   17  C12 UNK     1      19.081   0.052  19.848  1.00  0.00     0.022 A 
HETATM   18  C14 UNK     1      19.529   0.959  20.801  1.00  0.00     0.020 A 
HETATM   19  C15 UNK     1      19.800   2.253  20.387  1.00  0.00     0.118 A 
HETATM   20  N2  UNK     1      19.658   2.686  19.114  1.00  0.00    -0.248 NA
HETATM   21  C13 UNK     1      19.221   1.775  18.216  1.00  0.00     0.141 A 
HETATM   22 Cl1  UNK     1      19.064   2.403  16.621  1.00  0.00    -0.061 Cl
ENDBRANCH  13  16
ENDBRANCH   4  12
TORSDOF 2
ENDMDL
MODEL 10
REMARK VINA RESULT:      -8.0      2.841      7.763
REMARK  2 active torsions:
REMARK  status: ('A' for Active; 'I' for Inactive)
REMARK    1  A    between atoms: C2_8  and  N1_5 
REMARK       I    between atoms: C8_14  and  N1_5 
REMARK    2  A    between atoms: C8_14  and  C9_15 
ROOT
HETATM    1  O1  UNK     1      19.927  -0.502  29.541  1.00  0.00    -0.275 OA
HETATM    2  O3  UNK     1      20.722  -2.643  29.722  1.00  0.00    -0.260 OA
HETATM    3  C1  UNK     1      19.090   0.621  31.532  1.00  0.00     0.000 A 
HETATM    4  C2  UNK     1      18.253   2.882  31.328  1.00  0.00     0.035 A 
HETATM    5  C3  UNK     1      19.362   0.628  30.166  1.00  0.00     0.089 A 
HETATM    6  C4  UNK     1      18.531   1.760  32.114  1.00  0.00     0.043 A 
HETATM    7  C5  UNK     1      18.533   2.872  29.959  1.00  0.00     0.032 A 
HETATM    8  C6  UNK     1      19.092   1.739  29.370  1.00  0.00     0.040 A 
HETATM    9  C7  UNK     1      19.398  -0.573  32.302  1.00  0.00     0.020 A 
HETATM   10  C10 UNK     1      19.932  -1.639  31.702  1.00  0.00     0.083 A 
HETATM   11  C11 UNK     1      20.230  -1.656  30.257  1.00  0.00     0.288 A 
ENDROOT
BRANCH   4  12
HETATM   12  N1  UNK     1      17.694   4.020  31.913  1.00  0.00    -0.323 N 
HETATM   13  C8  UNK     1      18.219   5.317  31.948  1.00  0.00     0.259 C 
HETATM   14  O2  UNK     1      19.281   5.696  31.463  1.00  0.00    -0.267 OA
HETATM   15  H4  UNK     1      16.793   3.875  32.366  1.00  0.00     0.169 HD
BRANCH  13  16
HETATM   16  C9  UNK     1      17.396   6.318  32.678  1.00  0.00     0.072 A 
HETATM   17  C12 UNK     1      16.119   6.562  32.226  1.00  0.00     0.022 A 
HETATM   18  C14 UNK     1      15.342   7.496  32.900  1.00  0.00     0.020 A 
HETATM   19  C15 UNK     1      15.900   8.135  33.996  1.00  0.00     0.118 A 
HETATM   20  N2  UNK     1      17.153   7.904  34.450  1.00  0.00    -0.248 NA
HETATM   21  C13 UNK     1      17.879   6.989  33.768  1.00  0.00     0.141 A 
HETATM   22 Cl1  UNK     1      19.460   6.753  34.405  1.00  0.00    -0.061 Cl
ENDBRANCH  13  16
ENDBRANCH   4  12
TORSDOF 2
ENDMDL
