MODEL 1
REMARK VINA RESULT:      -7.2      0.000      0.000
REMARK  8 active torsions:
REMARK  status: ('A' for Active; 'I' for Inactive)
REMARK    1  A    between atoms: C2_9  and  O1_2 
REMARK    2  A    between atoms: C3_10  and  O1_2 
REMARK    3  A    between atoms: C10_17  and  O2_3 
REMARK    4  A    between atoms: C4_11  and  O2_3 
REMARK    5  A    between atoms: C20_27  and  N1_6 
REMARK    6  A    between atoms: C1_8  and  C5_12 
REMARK    7  A    between atoms: C3_10  and  C4_11 
REMARK    8  A    between atoms: C6_13  and  C7_14 
ROOT
HETATM    1  N2  UNK     1      31.338 -10.191  35.808  1.00  0.00    -0.191 NA
HETATM    2  C5  UNK     1      28.556  -8.349  34.938  1.00  0.00     0.038 C 
HETATM    3  C7  UNK     1      29.481  -9.135  34.325  1.00  0.00     0.055 C 
HETATM    4  C24 UNK     1      30.505  -9.716  35.154  1.00  0.00     0.100 C 
ENDROOT
BRANCH   3   5
HETATM    5  C6  UNK     1      29.483  -9.421  32.900  1.00  0.00    -0.015 A 
HETATM    6  C14 UNK     1      28.534  -8.828  32.066  1.00  0.00     0.015 A 
HETATM    7  C21 UNK     1      28.540  -9.101  30.699  1.00  0.00     0.037 A 
HETATM    8  C20 UNK     1      29.494  -9.968  30.163  1.00  0.00     0.102 A 
HETATM    9  C22 UNK     1      30.442 -10.560  30.997  1.00  0.00     0.037 A 
HETATM   10  C15 UNK     1      30.437 -10.287  32.365  1.00  0.00     0.015 A 
BRANCH   8  11
HETATM   11  N1  UNK     1      29.499 -10.247  28.771  1.00  0.00    -0.116 N 
HETATM   12  O3  UNK     1      30.598 -10.407  28.188  1.00  0.00    -0.532 OA
HETATM   13  O4  UNK     1      28.404 -10.326  28.163  1.00  0.00    -0.532 OA
ENDBRANCH   8  11
ENDBRANCH   3   5
BRANCH   2  14
HETATM   14  C1  UNK     1      28.510  -8.039  36.374  1.00  0.00    -0.000 A 
HETATM   15  C2  UNK     1      29.021  -6.840  36.853  1.00  0.00     0.079 A 
HETATM   16  C9  UNK     1      28.967  -6.567  38.219  1.00  0.00     0.039 A 
HETATM   17  C12 UNK     1      28.403  -7.495  39.094  1.00  0.00     0.022 A 
HETATM   18  C11 UNK     1      27.893  -8.697  38.603  1.00  0.00     0.011 A 
HETATM   19 Br1  UNK     1      27.132  -9.955  39.790  1.00  0.00    -0.051 Br
HETATM   20  C8  UNK     1      27.948  -8.970  37.237  1.00  0.00     0.033 A 
BRANCH  15  21
HETATM   21  O1  UNK     1      29.577  -5.915  36.019  1.00  0.00    -0.348 OA
BRANCH  21  22
HETATM   22  C3  UNK     1      30.820  -5.345  36.423  1.00  0.00     0.202 C 
BRANCH  22  23
HETATM   23  C4  UNK     1      31.700  -5.163  35.201  1.00  0.00     0.202 C 
BRANCH  23  24
HETATM   24  O2  UNK     1      31.919  -6.430  34.593  1.00  0.00    -0.349 OA
BRANCH  24  25
HETATM   25  C10 UNK     1      31.704  -6.511  33.242  1.00  0.00     0.068 A 
HETATM   26  C16 UNK     1      30.642  -5.818  32.673  1.00  0.00     0.037 A 
HETATM   27  C18 UNK     1      30.421  -5.900  31.298  1.00  0.00     0.009 A 
HETATM   28  C13 UNK     1      31.264  -6.675  30.502  1.00  0.00    -0.062 A 
HETATM   29  C19 UNK     1      32.328  -7.367  31.079  1.00  0.00     0.009 A 
HETATM   30  C23 UNK     1      31.029  -6.763  29.031  1.00  0.00     0.048 C 
HETATM   31  C17 UNK     1      32.549  -7.285  32.454  1.00  0.00     0.037 A 
ENDBRANCH  24  25
ENDBRANCH  23  24
ENDBRANCH  22  23
ENDBRANCH  21  22
ENDBRANCH  15  21
ENDBRANCH   2  14
TORSDOF 8
ENDMDL
MODEL 2
REMARK VINA RESULT:      -7.1      2.512      4.601
REMARK  8 active torsions:
REMARK  status: ('A' for Active; 'I' for Inactive)
REMARK    1  A    between atoms: C2_9  and  O1_2 
REMARK    2  A    between atoms: C3_10  and  O1_2 
REMARK    3  A    between atoms: C10_17  and  O2_3 
REMARK    4  A    between atoms: C4_11  and  O2_3 
REMARK    5  A    between atoms: C20_27  and  N1_6 
REMARK    6  A    between atoms: C1_8  and  C5_12 
REMARK    7  A    between atoms: C3_10  and  C4_11 
REMARK    8  A    between atoms: C6_13  and  C7_14 
ROOT
HETATM    1  N2  UNK     1      29.946  -3.820  32.146  1.00  0.00    -0.191 NA
HETATM    2  C5  UNK     1      30.721  -6.799  33.698  1.00  0.00     0.038 C 
HETATM    3  C7  UNK     1      30.347  -6.369  32.464  1.00  0.00     0.055 C 
HETATM    4  C24 UNK     1      30.127  -4.956  32.297  1.00  0.00     0.100 C 
ENDROOT
BRANCH   3   5
HETATM    5  C6  UNK     1      30.168  -7.249  31.320  1.00  0.00    -0.015 A 
HETATM    6  C14 UNK     1      30.777  -6.944  30.102  1.00  0.00     0.015 A 
HETATM    7  C21 UNK     1      30.607  -7.790  29.007  1.00  0.00     0.037 A 
HETATM    8  C20 UNK     1      29.827  -8.941  29.127  1.00  0.00     0.102 A 
HETATM    9  C22 UNK     1      29.218  -9.245  30.345  1.00  0.00     0.037 A 
HETATM   10  C15 UNK     1      29.388  -8.399  31.441  1.00  0.00     0.015 A 
BRANCH   8  11
HETATM   11  N1  UNK     1      29.652  -9.802  28.012  1.00  0.00    -0.116 N 
HETATM   12  O3  UNK     1      28.533 -10.337  27.827  1.00  0.00    -0.532 OA
HETATM   13  O4  UNK     1      30.622 -10.003  27.241  1.00  0.00    -0.532 OA
ENDBRANCH   8  11
ENDBRANCH   3   5
BRANCH   2  14
HETATM   14  C1  UNK     1      30.920  -5.946  34.879  1.00  0.00    -0.000 A 
HETATM   15  C2  UNK     1      32.062  -5.165  35.000  1.00  0.00     0.079 A 
HETATM   16  C9  UNK     1      32.229  -4.364  36.129  1.00  0.00     0.039 A 
HETATM   17  C12 UNK     1      31.254  -4.352  37.126  1.00  0.00     0.022 A 
HETATM   18  C11 UNK     1      30.112  -5.140  36.995  1.00  0.00     0.011 A 
HETATM   19 Br1  UNK     1      28.792  -5.125  38.348  1.00  0.00    -0.051 Br
HETATM   20  C8  UNK     1      29.944  -5.942  35.866  1.00  0.00     0.033 A 
BRANCH  15  21
HETATM   21  O1  UNK     1      33.030  -5.158  34.040  1.00  0.00    -0.348 OA
BRANCH  21  22
HETATM   22  C3  UNK     1      34.380  -5.277  34.482  1.00  0.00     0.202 C 
BRANCH  22  23
HETATM   23  C4  UNK     1      34.762  -6.744  34.516  1.00  0.00     0.202 C 
BRANCH  23  24
HETATM   24  O2  UNK     1      34.889  -7.160  35.870  1.00  0.00    -0.349 OA
BRANCH  24  25
HETATM   25  C10 UNK     1      33.786  -7.733  36.446  1.00  0.00     0.068 A 
HETATM   26  C16 UNK     1      33.062  -8.689  35.744  1.00  0.00     0.037 A 
HETATM   27  C18 UNK     1      31.938  -9.272  36.329  1.00  0.00     0.009 A 
HETATM   28  C13 UNK     1      31.546  -8.894  37.613  1.00  0.00    -0.062 A 
HETATM   29  C19 UNK     1      32.276  -7.934  38.312  1.00  0.00     0.009 A 
HETATM   30  C23 UNK     1      30.344  -9.518  38.239  1.00  0.00     0.048 C 
HETATM   31  C17 UNK     1      33.401  -7.351  37.727  1.00  0.00     0.037 A 
ENDBRANCH  24  25
ENDBRANCH  23  24
ENDBRANCH  22  23
ENDBRANCH  21  22
ENDBRANCH  15  21
ENDBRANCH   2  14
TORSDOF 8
ENDMDL
MODEL 3
REMARK VINA RESULT:      -7.1      4.213      7.232
REMARK  8 active torsions:
REMARK  status: ('A' for Active; 'I' for Inactive)
REMARK    1  A    between atoms: C2_9  and  O1_2 
REMARK    2  A    between atoms: C3_10  and  O1_2 
REMARK    3  A    between atoms: C10_17  and  O2_3 
REMARK    4  A    between atoms: C4_11  and  O2_3 
REMARK    5  A    between atoms: C20_27  and  N1_6 
REMARK    6  A    between atoms: C1_8  and  C5_12 
REMARK    7  A    between atoms: C3_10  and  C4_11 
REMARK    8  A    between atoms: C6_13  and  C7_14 
ROOT
HETATM    1  N2  UNK     1      32.221 -10.742  34.344  1.00  0.00    -0.191 NA
HETATM    2  C5  UNK     1      32.192  -7.298  34.188  1.00  0.00     0.038 C 
HETATM    3  C7  UNK     1      31.531  -8.286  34.847  1.00  0.00     0.055 C 
HETATM    4  C24 UNK     1      31.920  -9.643  34.562  1.00  0.00     0.100 C 
ENDROOT
BRANCH   3   5
HETATM    5  C6  UNK     1      30.473  -8.047  35.816  1.00  0.00    -0.015 A 
HETATM    6  C14 UNK     1      29.492  -7.089  35.555  1.00  0.00     0.015 A 
HETATM    7  C21 UNK     1      28.476  -6.862  36.484  1.00  0.00     0.037 A 
HETATM    8  C20 UNK     1      28.442  -7.591  37.673  1.00  0.00     0.102 A 
HETATM    9  C22 UNK     1      29.423  -8.548  37.933  1.00  0.00     0.037 A 
HETATM   10  C15 UNK     1      30.439  -8.775  37.004  1.00  0.00     0.015 A 
BRANCH   8  11
HETATM   11  N1  UNK     1      27.409  -7.359  38.620  1.00  0.00    -0.116 N 
HETATM   12  O3  UNK     1      27.480  -7.911  39.744  1.00  0.00    -0.532 OA
HETATM   13  O4  UNK     1      26.453  -6.609  38.306  1.00  0.00    -0.532 OA
ENDBRANCH   8  11
ENDBRANCH   3   5
BRANCH   2  14
HETATM   14  C1  UNK     1      33.270  -7.494  33.207  1.00  0.00    -0.000 A 
HETATM   15  C2  UNK     1      34.590  -7.598  33.623  1.00  0.00     0.079 A 
HETATM   16  C9  UNK     1      35.596  -7.783  32.675  1.00  0.00     0.039 A 
HETATM   17  C12 UNK     1      35.272  -7.863  31.321  1.00  0.00     0.022 A 
HETATM   18  C11 UNK     1      33.942  -7.758  30.914  1.00  0.00     0.011 A 
HETATM   19 Br1  UNK     1      33.504  -7.864  29.079  1.00  0.00    -0.051 Br
HETATM   20  C8  UNK     1      32.936  -7.572  31.862  1.00  0.00     0.033 A 
BRANCH  15  21
HETATM   21  O1  UNK     1      34.934  -7.523  34.940  1.00  0.00    -0.348 OA
BRANCH  21  22
HETATM   22  C3  UNK     1      35.862  -6.504  35.310  1.00  0.00     0.202 C 
BRANCH  22  23
HETATM   23  C4  UNK     1      35.244  -5.644  36.395  1.00  0.00     0.202 C 
BRANCH  23  24
HETATM   24  O2  UNK     1      34.128  -4.945  35.856  1.00  0.00    -0.349 OA
BRANCH  24  25
HETATM   25  C10 UNK     1      33.021  -4.838  36.657  1.00  0.00     0.068 A 
HETATM   26  C16 UNK     1      32.857  -5.714  37.723  1.00  0.00     0.037 A 
HETATM   27  C18 UNK     1      31.730  -5.606  38.538  1.00  0.00     0.009 A 
HETATM   28  C13 UNK     1      30.776  -4.622  38.281  1.00  0.00    -0.062 A 
HETATM   29  C19 UNK     1      30.948  -3.745  37.211  1.00  0.00     0.009 A 
HETATM   30  C23 UNK     1      29.572  -4.505  39.154  1.00  0.00     0.048 C 
HETATM   31  C17 UNK     1      32.075  -3.854  36.395  1.00  0.00     0.037 A 
ENDBRANCH  24  25
ENDBRANCH  23  24
ENDBRANCH  22  23
ENDBRANCH  21  22
ENDBRANCH  15  21
ENDBRANCH   2  14
TORSDOF 8
ENDMDL
MODEL 4
REMARK VINA RESULT:      -7.0      4.316      7.293
REMARK  8 active torsions:
REMARK  status: ('A' for Active; 'I' for Inactive)
REMARK    1  A    between atoms: C2_9  and  O1_2 
REMARK    2  A    between atoms: C3_10  and  O1_2 
REMARK    3  A    between atoms: C10_17  and  O2_3 
REMARK    4  A    between atoms: C4_11  and  O2_3 
REMARK    5  A    between atoms: C20_27  and  N1_6 
REMARK    6  A    between atoms: C1_8  and  C5_12 
REMARK    7  A    between atoms: C3_10  and  C4_11 
REMARK    8  A    between atoms: C6_13  and  C7_14 
ROOT
HETATM    1  N2  UNK     1      30.936  -5.145  33.156  1.00  0.00    -0.191 NA
HETATM    2  C5  UNK     1      32.163  -8.100  34.441  1.00  0.00     0.038 C 
HETATM    3  C7  UNK     1      31.141  -7.238  34.686  1.00  0.00     0.055 C 
HETATM    4  C24 UNK     1      31.035  -6.082  33.834  1.00  0.00     0.100 C 
ENDROOT
BRANCH   3   5
HETATM    5  C6  UNK     1      30.160  -7.425  35.743  1.00  0.00    -0.015 A 
HETATM    6  C14 UNK     1      30.411  -8.327  36.777  1.00  0.00     0.015 A 
HETATM    7  C21 UNK     1      29.470  -8.503  37.792  1.00  0.00     0.037 A 
HETATM    8  C20 UNK     1      28.279  -7.778  37.773  1.00  0.00     0.102 A 
HETATM    9  C22 UNK     1      28.029  -6.875  36.739  1.00  0.00     0.037 A 
HETATM   10  C15 UNK     1      28.969  -6.699  35.724  1.00  0.00     0.015 A 
BRANCH   8  11
HETATM   11  N1  UNK     1      27.320  -7.958  38.806  1.00  0.00    -0.116 N 
HETATM   12  O3  UNK     1      27.592  -8.726  39.759  1.00  0.00    -0.532 OA
HETATM   13  O4  UNK     1      26.229  -7.343  38.736  1.00  0.00    -0.532 OA
ENDBRANCH   8  11
ENDBRANCH   3   5
BRANCH   2  14
HETATM   14  C1  UNK     1      33.171  -7.955  33.381  1.00  0.00    -0.000 A 
HETATM   15  C2  UNK     1      34.494  -7.680  33.700  1.00  0.00     0.079 A 
HETATM   16  C9  UNK     1      35.434  -7.547  32.678  1.00  0.00     0.039 A 
HETATM   17  C12 UNK     1      35.042  -7.690  31.347  1.00  0.00     0.022 A 
HETATM   18  C11 UNK     1      33.710  -7.966  31.038  1.00  0.00     0.011 A 
HETATM   19 Br1  UNK     1      33.180  -8.158  29.234  1.00  0.00    -0.051 Br
HETATM   20  C8  UNK     1      32.770  -8.099  32.059  1.00  0.00     0.033 A 
BRANCH  15  21
HETATM   21  O1  UNK     1      34.904  -7.536  34.993  1.00  0.00    -0.348 OA
BRANCH  21  22
HETATM   22  C3  UNK     1      35.811  -6.470  35.268  1.00  0.00     0.202 C 
BRANCH  22  23
HETATM   23  C4  UNK     1      35.235  -5.604  36.371  1.00  0.00     0.202 C 
BRANCH  23  24
HETATM   24  O2  UNK     1      34.120  -4.883  35.862  1.00  0.00    -0.349 OA
BRANCH  24  25
HETATM   25  C10 UNK     1      33.016  -4.803  36.669  1.00  0.00     0.068 A 
HETATM   26  C16 UNK     1      32.032  -3.860  36.396  1.00  0.00     0.037 A 
HETATM   27  C18 UNK     1      30.907  -3.778  37.217  1.00  0.00     0.009 A 
HETATM   28  C13 UNK     1      30.775  -4.640  38.305  1.00  0.00    -0.062 A 
HETATM   29  C19 UNK     1      31.765  -5.585  38.573  1.00  0.00     0.009 A 
HETATM   30  C23 UNK     1      29.572  -4.553  39.183  1.00  0.00     0.048 C 
HETATM   31  C17 UNK     1      32.890  -5.667  37.751  1.00  0.00     0.037 A 
ENDBRANCH  24  25
ENDBRANCH  23  24
ENDBRANCH  22  23
ENDBRANCH  21  22
ENDBRANCH  15  21
ENDBRANCH   2  14
TORSDOF 8
ENDMDL
MODEL 5
REMARK VINA RESULT:      -6.9      2.957      4.209
REMARK  8 active torsions:
REMARK  status: ('A' for Active; 'I' for Inactive)
REMARK    1  A    between atoms: C2_9  and  O1_2 
REMARK    2  A    between atoms: C3_10  and  O1_2 
REMARK    3  A    between atoms: C10_17  and  O2_3 
REMARK    4  A    between atoms: C4_11  and  O2_3 
REMARK    5  A    between atoms: C20_27  and  N1_6 
REMARK    6  A    between atoms: C1_8  and  C5_12 
REMARK    7  A    between atoms: C3_10  and  C4_11 
REMARK    8  A    between atoms: C6_13  and  C7_14 
ROOT
HETATM    1  N2  UNK     1      28.382  -7.704  33.999  1.00  0.00    -0.191 NA
HETATM    2  C5  UNK     1      30.956  -7.799  36.290  1.00  0.00     0.038 C 
HETATM    3  C7  UNK     1      30.797  -7.894  34.944  1.00  0.00     0.055 C 
HETATM    4  C24 UNK     1      29.457  -7.787  34.429  1.00  0.00     0.100 C 
ENDROOT
BRANCH   3   5
HETATM    5  C6  UNK     1      31.896  -8.087  34.010  1.00  0.00    -0.015 A 
HETATM    6  C14 UNK     1      32.843  -9.084  34.243  1.00  0.00     0.015 A 
HETATM    7  C21 UNK     1      33.895  -9.270  33.345  1.00  0.00     0.037 A 
HETATM    8  C20 UNK     1      33.999  -8.458  32.215  1.00  0.00     0.102 A 
HETATM    9  C22 UNK     1      33.052  -7.461  31.983  1.00  0.00     0.037 A 
HETATM   10  C15 UNK     1      32.000  -7.275  32.881  1.00  0.00     0.015 A 
BRANCH   8  11
HETATM   11  N1  UNK     1      35.071  -8.646  31.302  1.00  0.00    -0.116 N 
HETATM   12  O3  UNK     1      35.962  -7.766  31.223  1.00  0.00    -0.532 OA
HETATM   13  O4  UNK     1      35.096  -9.685  30.600  1.00  0.00    -0.532 OA
ENDBRANCH   8  11
ENDBRANCH   3   5
BRANCH   2  14
HETATM   14  C1  UNK     1      29.878  -7.598  37.269  1.00  0.00    -0.000 A 
HETATM   15  C2  UNK     1      29.358  -6.331  37.495  1.00  0.00     0.079 A 
HETATM   16  C9  UNK     1      28.335  -6.164  38.427  1.00  0.00     0.039 A 
HETATM   17  C12 UNK     1      27.842  -7.266  39.126  1.00  0.00     0.022 A 
HETATM   18  C11 UNK     1      28.371  -8.535  38.892  1.00  0.00     0.011 A 
HETATM   19 Br1  UNK     1      27.704 -10.027  39.840  1.00  0.00    -0.051 Br
HETATM   20  C8  UNK     1      29.394  -8.702  37.959  1.00  0.00     0.033 A 
BRANCH  15  21
HETATM   21  O1  UNK     1      29.822  -5.237  36.825  1.00  0.00    -0.348 OA
BRANCH  21  22
HETATM   22  C3  UNK     1      30.428  -4.210  37.607  1.00  0.00     0.202 C 
BRANCH  22  23
HETATM   23  C4  UNK     1      31.931  -4.417  37.614  1.00  0.00     0.202 C 
BRANCH  23  24
HETATM   24  O2  UNK     1      32.443  -4.151  36.315  1.00  0.00    -0.349 OA
BRANCH  24  25
HETATM   25  C10 UNK     1      33.498  -4.919  35.897  1.00  0.00     0.068 A 
HETATM   26  C16 UNK     1      34.005  -5.904  36.737  1.00  0.00     0.037 A 
HETATM   27  C18 UNK     1      35.079  -6.687  36.313  1.00  0.00     0.009 A 
HETATM   28  C13 UNK     1      35.638  -6.479  35.053  1.00  0.00    -0.062 A 
HETATM   29  C19 UNK     1      35.124  -5.490  34.215  1.00  0.00     0.009 A 
HETATM   30  C23 UNK     1      36.786  -7.317  34.599  1.00  0.00     0.048 C 
HETATM   31  C17 UNK     1      34.050  -4.707  34.639  1.00  0.00     0.037 A 
ENDBRANCH  24  25
ENDBRANCH  23  24
ENDBRANCH  22  23
ENDBRANCH  21  22
ENDBRANCH  15  21
ENDBRANCH   2  14
TORSDOF 8
ENDMDL
MODEL 6
REMARK VINA RESULT:      -6.9      3.379      7.383
REMARK  8 active torsions:
REMARK  status: ('A' for Active; 'I' for Inactive)
REMARK    1  A    between atoms: C2_9  and  O1_2 
REMARK    2  A    between atoms: C3_10  and  O1_2 
REMARK    3  A    between atoms: C10_17  and  O2_3 
REMARK    4  A    between atoms: C4_11  and  O2_3 
REMARK    5  A    between atoms: C20_27  and  N1_6 
REMARK    6  A    between atoms: C1_8  and  C5_12 
REMARK    7  A    between atoms: C3_10  and  C4_11 
REMARK    8  A    between atoms: C6_13  and  C7_14 
ROOT
HETATM    1  N2  UNK     1      34.199  -5.293  34.206  1.00  0.00    -0.191 NA
HETATM    2  C5  UNK     1      31.342  -7.184  33.825  1.00  0.00     0.038 C 
HETATM    3  C7  UNK     1      31.816  -6.227  34.665  1.00  0.00     0.055 C 
HETATM    4  C24 UNK     1      33.136  -5.715  34.403  1.00  0.00     0.100 C 
ENDROOT
BRANCH   3   5
HETATM    5  C6  UNK     1      31.067  -5.696  35.793  1.00  0.00    -0.015 A 
HETATM    6  C14 UNK     1      29.904  -6.337  36.222  1.00  0.00     0.015 A 
HETATM    7  C21 UNK     1      29.188  -5.828  37.306  1.00  0.00     0.037 A 
HETATM    8  C20 UNK     1      29.634  -4.679  37.960  1.00  0.00     0.102 A 
HETATM    9  C22 UNK     1      30.797  -4.039  37.530  1.00  0.00     0.037 A 
HETATM   10  C15 UNK     1      31.513  -4.548  36.446  1.00  0.00     0.015 A 
BRANCH   8  11
HETATM   11  N1  UNK     1      28.904  -4.160  39.063  1.00  0.00    -0.116 N 
HETATM   12  O3  UNK     1      27.655  -4.277  39.073  1.00  0.00    -0.532 OA
HETATM   13  O4  UNK     1      29.529  -3.599  39.995  1.00  0.00    -0.532 OA
ENDBRANCH   8  11
ENDBRANCH   3   5
BRANCH   2  14
HETATM   14  C1  UNK     1      32.060  -7.744  32.670  1.00  0.00    -0.000 A 
HETATM   15  C2  UNK     1      31.875  -7.215  31.400  1.00  0.00     0.079 A 
HETATM   16  C9  UNK     1      32.567  -7.762  30.320  1.00  0.00     0.039 A 
HETATM   17  C12 UNK     1      33.437  -8.834  30.521  1.00  0.00     0.022 A 
HETATM   18  C11 UNK     1      33.616  -9.358  31.801  1.00  0.00     0.011 A 
HETATM   19 Br1  UNK     1      34.794 -10.810  32.071  1.00  0.00    -0.051 Br
HETATM   20  C8  UNK     1      32.924  -8.811  32.881  1.00  0.00     0.033 A 
BRANCH  15  21
HETATM   21  O1  UNK     1      31.030  -6.168  31.177  1.00  0.00    -0.348 OA
BRANCH  21  22
HETATM   22  C3  UNK     1      30.134  -6.284  30.073  1.00  0.00     0.202 C 
BRANCH  22  23
HETATM   23  C4  UNK     1      28.754  -6.641  30.593  1.00  0.00     0.202 C 
BRANCH  23  24
HETATM   24  O2  UNK     1      28.390  -7.925  30.100  1.00  0.00    -0.349 OA
BRANCH  24  25
HETATM   25  C10 UNK     1      28.966  -9.007  30.711  1.00  0.00     0.068 A 
HETATM   26  C16 UNK     1      28.779  -9.206  32.074  1.00  0.00     0.037 A 
HETATM   27  C18 UNK     1      29.366 -10.307  32.698  1.00  0.00     0.009 A 
HETATM   28  C13 UNK     1      30.135 -11.202  31.954  1.00  0.00    -0.062 A 
HETATM   29  C19 UNK     1      30.318 -10.997  30.587  1.00  0.00     0.009 A 
HETATM   30  C23 UNK     1      30.762 -12.380  32.621  1.00  0.00     0.048 C 
HETATM   31  C17 UNK     1      29.731  -9.895  29.963  1.00  0.00     0.037 A 
ENDBRANCH  24  25
ENDBRANCH  23  24
ENDBRANCH  22  23
ENDBRANCH  21  22
ENDBRANCH  15  21
ENDBRANCH   2  14
TORSDOF 8
ENDMDL
MODEL 7
REMARK VINA RESULT:      -6.9      2.534      3.634
REMARK  8 active torsions:
REMARK  status: ('A' for Active; 'I' for Inactive)
REMARK    1  A    between atoms: C2_9  and  O1_2 
REMARK    2  A    between atoms: C3_10  and  O1_2 
REMARK    3  A    between atoms: C10_17  and  O2_3 
REMARK    4  A    between atoms: C4_11  and  O2_3 
REMARK    5  A    between atoms: C20_27  and  N1_6 
REMARK    6  A    between atoms: C1_8  and  C5_12 
REMARK    7  A    between atoms: C3_10  and  C4_11 
REMARK    8  A    between atoms: C6_13  and  C7_14 
ROOT
HETATM    1  N2  UNK     1      33.051  -8.409  36.386  1.00  0.00    -0.191 NA
HETATM    2  C5  UNK     1      30.844  -6.349  34.721  1.00  0.00     0.038 C 
HETATM    3  C7  UNK     1      31.700  -7.363  34.426  1.00  0.00     0.055 C 
HETATM    4  C24 UNK     1      32.444  -7.936  35.518  1.00  0.00     0.100 C 
ENDROOT
BRANCH   3   5
HETATM    5  C6  UNK     1      31.894  -7.894  33.087  1.00  0.00    -0.015 A 
HETATM    6  C14 UNK     1      32.263  -9.229  32.912  1.00  0.00     0.015 A 
HETATM    7  C21 UNK     1      32.446  -9.739  31.626  1.00  0.00     0.037 A 
HETATM    8  C20 UNK     1      32.261  -8.915  30.516  1.00  0.00     0.102 A 
HETATM    9  C22 UNK     1      31.893  -7.581  30.691  1.00  0.00     0.037 A 
HETATM   10  C15 UNK     1      31.710  -7.071  31.977  1.00  0.00     0.015 A 
BRANCH   8  11
HETATM   11  N1  UNK     1      32.449  -9.433  29.207  1.00  0.00    -0.116 N 
HETATM   12  O3  UNK     1      33.156  -8.789  28.395  1.00  0.00    -0.532 OA
HETATM   13  O4  UNK     1      31.903 -10.520  28.899  1.00  0.00    -0.532 OA
ENDBRANCH   8  11
ENDBRANCH   3   5
BRANCH   2  14
HETATM   14  C1  UNK     1      30.611  -5.785  36.059  1.00  0.00    -0.000 A 
HETATM   15  C2  UNK     1      31.344  -4.691  36.500  1.00  0.00     0.079 A 
HETATM   16  C9  UNK     1      31.106  -4.173  37.773  1.00  0.00     0.039 A 
HETATM   17  C12 UNK     1      30.138  -4.754  38.592  1.00  0.00     0.022 A 
HETATM   18  C11 UNK     1      29.408  -5.852  38.139  1.00  0.00     0.011 A 
HETATM   19 Br1  UNK     1      28.098  -6.639  39.251  1.00  0.00    -0.051 Br
HETATM   20  C8  UNK     1      29.646  -6.371  36.867  1.00  0.00     0.033 A 
BRANCH  15  21
HETATM   21  O1  UNK     1      32.296  -4.105  35.719  1.00  0.00    -0.348 OA
BRANCH  21  22
HETATM   22  C3  UNK     1      33.655  -4.431  36.002  1.00  0.00     0.202 C 
BRANCH  22  23
HETATM   23  C4  UNK     1      34.375  -4.718  34.698  1.00  0.00     0.202 C 
BRANCH  23  24
HETATM   24  O2  UNK     1      35.344  -5.737  34.916  1.00  0.00    -0.349 OA
BRANCH  24  25
HETATM   25  C10 UNK     1      35.521  -6.647  33.907  1.00  0.00     0.068 A 
HETATM   26  C16 UNK     1      35.281  -6.269  32.592  1.00  0.00     0.037 A 
HETATM   27  C18 UNK     1      35.460  -7.195  31.564  1.00  0.00     0.009 A 
HETATM   28  C13 UNK     1      35.877  -8.493  31.859  1.00  0.00    -0.062 A 
HETATM   29  C19 UNK     1      36.116  -8.865  33.182  1.00  0.00     0.009 A 
HETATM   30  C23 UNK     1      36.070  -9.483  30.761  1.00  0.00     0.048 C 
HETATM   31  C17 UNK     1      35.937  -7.939  34.210  1.00  0.00     0.037 A 
ENDBRANCH  24  25
ENDBRANCH  23  24
ENDBRANCH  22  23
ENDBRANCH  21  22
ENDBRANCH  15  21
ENDBRANCH   2  14
TORSDOF 8
ENDMDL
MODEL 8
REMARK VINA RESULT:      -6.9      4.237      7.254
REMARK  8 active torsions:
REMARK  status: ('A' for Active; 'I' for Inactive)
REMARK    1  A    between atoms: C2_9  and  O1_2 
REMARK    2  A    between atoms: C3_10  and  O1_2 
REMARK    3  A    between atoms: C10_17  and  O2_3 
REMARK    4  A    between atoms: C4_11  and  O2_3 
REMARK    5  A    between atoms: C20_27  and  N1_6 
REMARK    6  A    between atoms: C1_8  and  C5_12 
REMARK    7  A    between atoms: C3_10  and  C4_11 
REMARK    8  A    between atoms: C6_13  and  C7_14 
ROOT
HETATM    1  N2  UNK     1      31.814  -7.035  32.067  1.00  0.00    -0.191 NA
HETATM    2  C5  UNK     1      33.222  -8.660  34.762  1.00  0.00     0.038 C 
HETATM    3  C7  UNK     1      32.073  -7.994  34.470  1.00  0.00     0.055 C 
HETATM    4  C24 UNK     1      31.938  -7.467  33.137  1.00  0.00     0.100 C 
ENDROOT
BRANCH   3   5
HETATM    5  C6  UNK     1      30.988  -7.799  35.418  1.00  0.00    -0.015 A 
HETATM    6  C14 UNK     1      30.015  -6.828  35.175  1.00  0.00     0.015 A 
HETATM    7  C21 UNK     1      28.973  -6.643  36.083  1.00  0.00     0.037 A 
HETATM    8  C20 UNK     1      28.903  -7.428  37.234  1.00  0.00     0.102 A 
HETATM    9  C22 UNK     1      29.875  -8.398  37.476  1.00  0.00     0.037 A 
HETATM   10  C15 UNK     1      30.918  -8.583  36.568  1.00  0.00     0.015 A 
BRANCH   8  11
HETATM   11  N1  UNK     1      27.842  -7.239  38.160  1.00  0.00    -0.116 N 
HETATM   12  O3  UNK     1      28.070  -7.395  39.384  1.00  0.00    -0.532 OA
HETATM   13  O4  UNK     1      26.708  -6.922  37.728  1.00  0.00    -0.532 OA
ENDBRANCH   8  11
ENDBRANCH   3   5
BRANCH   2  14
HETATM   14  C1  UNK     1      34.341  -8.887  33.835  1.00  0.00    -0.000 A 
HETATM   15  C2  UNK     1      35.279  -7.890  33.606  1.00  0.00     0.079 A 
HETATM   16  C9  UNK     1      36.332  -8.127  32.723  1.00  0.00     0.039 A 
HETATM   17  C12 UNK     1      36.436  -9.360  32.078  1.00  0.00     0.022 A 
HETATM   18  C11 UNK     1      35.488 -10.354  32.315  1.00  0.00     0.011 A 
HETATM   19 Br1  UNK     1      35.629 -12.023  31.440  1.00  0.00    -0.051 Br
HETATM   20  C8  UNK     1      34.435 -10.117  33.198  1.00  0.00     0.033 A 
BRANCH  15  21
HETATM   21  O1  UNK     1      35.201  -6.676  34.223  1.00  0.00    -0.348 OA
BRANCH  21  22
HETATM   22  C3  UNK     1      36.016  -6.485  35.378  1.00  0.00     0.202 C 
BRANCH  22  23
HETATM   23  C4  UNK     1      35.237  -5.685  36.405  1.00  0.00     0.202 C 
BRANCH  23  24
HETATM   24  O2  UNK     1      34.052  -5.182  35.801  1.00  0.00    -0.349 OA
BRANCH  24  25
HETATM   25  C10 UNK     1      32.987  -4.949  36.631  1.00  0.00     0.068 A 
HETATM   26  C16 UNK     1      32.051  -3.979  36.292  1.00  0.00     0.037 A 
HETATM   27  C18 UNK     1      30.966  -3.741  37.137  1.00  0.00     0.009 A 
HETATM   28  C13 UNK     1      30.826  -4.475  38.315  1.00  0.00    -0.062 A 
HETATM   29  C19 UNK     1      31.768  -5.447  38.648  1.00  0.00     0.009 A 
HETATM   30  C23 UNK     1      29.666  -4.221  39.218  1.00  0.00     0.048 C 
HETATM   31  C17 UNK     1      32.853  -5.685  37.803  1.00  0.00     0.037 A 
ENDBRANCH  24  25
ENDBRANCH  23  24
ENDBRANCH  22  23
ENDBRANCH  21  22
ENDBRANCH  15  21
ENDBRANCH   2  14
TORSDOF 8
ENDMDL
MODEL 9
REMARK VINA RESULT:      -6.9      2.476      3.497
REMARK  8 active torsions:
REMARK  status: ('A' for Active; 'I' for Inactive)
REMARK    1  A    between atoms: C2_9  and  O1_2 
REMARK    2  A    between atoms: C3_10  and  O1_2 
REMARK    3  A    between atoms: C10_17  and  O2_3 
REMARK    4  A    between atoms: C4_11  and  O2_3 
REMARK    5  A    between atoms: C20_27  and  N1_6 
REMARK    6  A    between atoms: C1_8  and  C5_12 
REMARK    7  A    between atoms: C3_10  and  C4_11 
REMARK    8  A    between atoms: C6_13  and  C7_14 
ROOT
HETATM    1  N2  UNK     1      32.924  -8.455  36.377  1.00  0.00    -0.191 NA
HETATM    2  C5  UNK     1      30.743  -6.363  34.719  1.00  0.00     0.038 C 
HETATM    3  C7  UNK     1      31.598  -7.376  34.418  1.00  0.00     0.055 C 
HETATM    4  C24 UNK     1      32.328  -7.968  35.509  1.00  0.00     0.100 C 
ENDROOT
BRANCH   3   5
HETATM    5  C6  UNK     1      31.803  -7.891  33.074  1.00  0.00    -0.015 A 
HETATM    6  C14 UNK     1      31.691  -7.038  31.975  1.00  0.00     0.015 A 
HETATM    7  C21 UNK     1      31.891  -7.531  30.686  1.00  0.00     0.037 A 
HETATM    8  C20 UNK     1      32.203  -8.878  30.495  1.00  0.00     0.102 A 
HETATM    9  C22 UNK     1      32.315  -9.730  31.593  1.00  0.00     0.037 A 
HETATM   10  C15 UNK     1      32.114  -9.236  32.882  1.00  0.00     0.015 A 
BRANCH   8  11
HETATM   11  N1  UNK     1      32.405  -9.381  29.182  1.00  0.00    -0.116 N 
HETATM   12  O3  UNK     1      31.810 -10.430  28.836  1.00  0.00    -0.532 OA
HETATM   13  O4  UNK     1      33.173  -8.764  28.406  1.00  0.00    -0.532 OA
ENDBRANCH   8  11
ENDBRANCH   3   5
BRANCH   2  14
HETATM   14  C1  UNK     1      30.499  -5.817  36.062  1.00  0.00    -0.000 A 
HETATM   15  C2  UNK     1      31.244  -4.745  36.533  1.00  0.00     0.079 A 
HETATM   16  C9  UNK     1      30.995  -4.243  37.809  1.00  0.00     0.039 A 
HETATM   17  C12 UNK     1      30.004  -4.818  38.604  1.00  0.00     0.022 A 
HETATM   18  C11 UNK     1      29.261  -5.895  38.121  1.00  0.00     0.011 A 
HETATM   19 Br1  UNK     1      27.919  -6.676  39.199  1.00  0.00    -0.051 Br
HETATM   20  C8  UNK     1      29.510  -6.397  36.844  1.00  0.00     0.033 A 
BRANCH  15  21
HETATM   21  O1  UNK     1      32.220  -4.163  35.776  1.00  0.00    -0.348 OA
BRANCH  21  22
HETATM   22  C3  UNK     1      33.569  -4.503  36.090  1.00  0.00     0.202 C 
BRANCH  22  23
HETATM   23  C4  UNK     1      34.359  -4.625  34.801  1.00  0.00     0.202 C 
BRANCH  23  24
HETATM   24  O2  UNK     1      35.352  -5.632  34.958  1.00  0.00    -0.349 OA
BRANCH  24  25
HETATM   25  C10 UNK     1      35.479  -6.538  33.938  1.00  0.00     0.068 A 
HETATM   26  C16 UNK     1      35.323  -6.118  32.623  1.00  0.00     0.037 A 
HETATM   27  C18 UNK     1      35.452  -7.040  31.583  1.00  0.00     0.009 A 
HETATM   28  C13 UNK     1      35.734  -8.375  31.867  1.00  0.00    -0.062 A 
HETATM   29  C19 UNK     1      35.890  -8.790  33.190  1.00  0.00     0.009 A 
HETATM   30  C23 UNK     1      35.873  -9.361  30.757  1.00  0.00     0.048 C 
HETATM   31  C17 UNK     1      35.762  -7.868  34.229  1.00  0.00     0.037 A 
ENDBRANCH  24  25
ENDBRANCH  23  24
ENDBRANCH  22  23
ENDBRANCH  21  22
ENDBRANCH  15  21
ENDBRANCH   2  14
TORSDOF 8
ENDMDL
MODEL 10
REMARK VINA RESULT:      -6.9      3.602      7.526
REMARK  8 active torsions:
REMARK  status: ('A' for Active; 'I' for Inactive)
REMARK    1  A    between atoms: C2_9  and  O1_2 
REMARK    2  A    between atoms: C3_10  and  O1_2 
REMARK    3  A    between atoms: C10_17  and  O2_3 
REMARK    4  A    between atoms: C4_11  and  O2_3 
REMARK    5  A    between atoms: C20_27  and  N1_6 
REMARK    6  A    between atoms: C1_8  and  C5_12 
REMARK    7  A    between atoms: C3_10  and  C4_11 
REMARK    8  A    between atoms: C6_13  and  C7_14 
ROOT
HETATM    1  N2  UNK     1      29.800  -4.663  30.995  1.00  0.00    -0.191 NA
HETATM    2  C5  UNK     1      31.132  -7.546  32.338  1.00  0.00     0.038 C 
HETATM    3  C7  UNK     1      30.730  -6.321  32.769  1.00  0.00     0.055 C 
HETATM    4  C24 UNK     1      30.216  -5.410  31.780  1.00  0.00     0.100 C 
ENDROOT
BRANCH   3   5
HETATM    5  C6  UNK     1      30.783  -5.894  34.159  1.00  0.00    -0.015 A 
HETATM    6  C14 UNK     1      31.768  -4.998  34.576  1.00  0.00     0.015 A 
HETATM    7  C21 UNK     1      31.816  -4.587  35.908  1.00  0.00     0.037 A 
HETATM    8  C20 UNK     1      30.881  -5.072  36.823  1.00  0.00     0.102 A 
HETATM    9  C22 UNK     1      29.897  -5.968  36.405  1.00  0.00     0.037 A 
HETATM   10  C15 UNK     1      29.848  -6.379  35.073  1.00  0.00     0.015 A 
BRANCH   8  11
HETATM   11  N1  UNK     1      30.930  -4.655  38.180  1.00  0.00    -0.116 N 
HETATM   12  O3  UNK     1      29.916  -4.118  38.687  1.00  0.00    -0.532 OA
HETATM   13  O4  UNK     1      31.987  -4.835  38.833  1.00  0.00    -0.532 OA
ENDBRANCH   8  11
ENDBRANCH   3   5
BRANCH   2  14
HETATM   14  C1  UNK     1      31.090  -8.021  30.948  1.00  0.00    -0.000 A 
HETATM   15  C2  UNK     1      32.199  -7.890  30.124  1.00  0.00     0.079 A 
HETATM   16  C9  UNK     1      32.137  -8.349  28.808  1.00  0.00     0.039 A 
HETATM   17  C12 UNK     1      30.965  -8.934  28.329  1.00  0.00     0.022 A 
HETATM   18  C11 UNK     1      29.855  -9.061  29.165  1.00  0.00     0.011 A 
HETATM   19 Br1  UNK     1      28.268  -9.852  28.514  1.00  0.00    -0.051 Br
HETATM   20  C8  UNK     1      29.918  -8.602  30.480  1.00  0.00     0.033 A 
BRANCH  15  21
HETATM   21  O1  UNK     1      33.357  -7.322  30.567  1.00  0.00    -0.348 OA
BRANCH  21  22
HETATM   22  C3  UNK     1      34.556  -8.073  30.387  1.00  0.00     0.202 C 
BRANCH  22  23
HETATM   23  C4  UNK     1      34.951  -8.700  31.711  1.00  0.00     0.202 C 
BRANCH  23  24
HETATM   24  O2  UNK     1      35.189  -7.668  32.660  1.00  0.00    -0.349 OA
BRANCH  24  25
HETATM   25  C10 UNK     1      34.567  -7.791  33.875  1.00  0.00     0.068 A 
HETATM   26  C16 UNK     1      34.967  -6.989  34.937  1.00  0.00     0.037 A 
HETATM   27  C18 UNK     1      34.335  -7.114  36.174  1.00  0.00     0.009 A 
HETATM   28  C13 UNK     1      33.307  -8.041  36.340  1.00  0.00    -0.062 A 
HETATM   29  C19 UNK     1      32.909  -8.843  35.271  1.00  0.00     0.009 A 
HETATM   30  C23 UNK     1      32.630  -8.175  37.663  1.00  0.00     0.048 C 
HETATM   31  C17 UNK     1      33.542  -8.717  34.033  1.00  0.00     0.037 A 
ENDBRANCH  24  25
ENDBRANCH  23  24
ENDBRANCH  22  23
ENDBRANCH  21  22
ENDBRANCH  15  21
ENDBRANCH   2  14
TORSDOF 8
ENDMDL
