MODEL 1
REMARK VINA RESULT:      -9.1      0.000      0.000
REMARK  6 active torsions:
REMARK  status: ('A' for Active; 'I' for Inactive)
REMARK    1  A    between atoms: C4_8  and  N1_4 
REMARK       I    between atoms: C6_10  and  N1_4 
REMARK    2  A    between atoms: C1_5  and  C2_6 
REMARK    3  A    between atoms: C1_5  and  C3_7 
REMARK    4  A    between atoms: C2_6  and  C4_8 
REMARK    5  A    between atoms: C3_7  and  C5_9 
REMARK    6  A    between atoms: C6_10  and  C9_13 
ROOT
HETATM    1  O2  UNK     1      17.973   2.994  28.596  1.00  0.00    -0.267 OA
HETATM    2  N1  UNK     1      19.168   4.131  30.243  1.00  0.00    -0.357 N 
HETATM    3  C6  UNK     1      18.639   3.010  29.630  1.00  0.00     0.257 C 
HETATM    4  H9  UNK     1      19.684   4.042  31.113  1.00  0.00     0.162 HD
ENDROOT
BRANCH   3   5
HETATM    5  C9  UNK     1      18.951   1.766  30.344  1.00  0.00     0.108 A 
HETATM    6  C11 UNK     1      19.573   0.817  29.635  1.00  0.00     0.037 A 
HETATM    7  C10 UNK     1      19.923  -0.452  30.256  1.00  0.00    -0.001 A 
HETATM    8  C12 UNK     1      19.600  -0.658  31.593  1.00  0.00     0.089 A 
HETATM    9  C17 UNK     1      20.573  -1.469  29.554  1.00  0.00     0.014 A 
HETATM   10  O1  UNK     1      18.945   0.345  32.334  1.00  0.00    -0.274 OA
HETATM   11  C18 UNK     1      19.907  -1.849  32.246  1.00  0.00     0.038 A 
HETATM   12  C15 UNK     1      18.598   1.569  31.768  1.00  0.00     0.304 A 
HETATM   13  O3  UNK     1      18.027   2.435  32.421  1.00  0.00    -0.259 OA
HETATM   14  C20 UNK     1      20.555  -2.860  31.539  1.00  0.00     0.003 A 
HETATM   15  C19 UNK     1      20.887  -2.671  30.196  1.00  0.00     0.001 A 
ENDBRANCH   3   5
BRANCH   2  16
HETATM   16  C4  UNK     1      18.996   5.468  29.724  1.00  0.00     0.123 C 
BRANCH  16  17
HETATM   17  C2  UNK     1      18.948   6.519  30.829  1.00  0.00     0.020 C 
BRANCH  17  18
HETATM   18  C1  UNK     1      19.654   6.061  32.108  1.00  0.00     0.006 C 
BRANCH  18  19
HETATM   19  C3  UNK     1      18.840   6.429  33.351  1.00  0.00     0.038 C 
BRANCH  19  20
HETATM   20  C5  UNK     1      18.962   7.893  33.686  1.00  0.00    -0.058 A 
HETATM   21  C7  UNK     1      20.167   8.384  34.168  1.00  0.00     0.007 A 
HETATM   22  C13 UNK     1      20.281   9.739  34.478  1.00  0.00     0.001 A 
HETATM   23  C16 UNK     1      19.189  10.589  34.302  1.00  0.00     0.000 A 
HETATM   24  C14 UNK     1      17.983  10.082  33.816  1.00  0.00     0.001 A 
HETATM   25  C8  UNK     1      17.869   8.727  33.506  1.00  0.00     0.007 A 
ENDBRANCH  19  20
ENDBRANCH  18  19
ENDBRANCH  17  18
ENDBRANCH  16  17
ENDBRANCH   2  16
TORSDOF 6
ENDMDL
MODEL 2
REMARK VINA RESULT:      -9.0      1.856      3.014
REMARK  6 active torsions:
REMARK  status: ('A' for Active; 'I' for Inactive)
REMARK    1  A    between atoms: C4_8  and  N1_4 
REMARK       I    between atoms: C6_10  and  N1_4 
REMARK    2  A    between atoms: C1_5  and  C2_6 
REMARK    3  A    between atoms: C1_5  and  C3_7 
REMARK    4  A    between atoms: C2_6  and  C4_8 
REMARK    5  A    between atoms: C3_7  and  C5_9 
REMARK    6  A    between atoms: C6_10  and  C9_13 
ROOT
HETATM    1  O2  UNK     1      17.533   3.593  31.749  1.00  0.00    -0.267 OA
HETATM    2  N1  UNK     1      19.224   4.485  30.414  1.00  0.00    -0.357 N 
HETATM    3  C6  UNK     1      18.451   3.466  30.940  1.00  0.00     0.257 C 
HETATM    4  H9  UNK     1      19.978   4.273  29.768  1.00  0.00     0.162 HD
ENDROOT
BRANCH   3   5
HETATM    5  C9  UNK     1      18.825   2.142  30.428  1.00  0.00     0.108 A 
HETATM    6  C11 UNK     1      19.373   1.300  31.312  1.00  0.00     0.037 A 
HETATM    7  C10 UNK     1      19.778  -0.035  30.899  1.00  0.00    -0.001 A 
HETATM    8  C12 UNK     1      19.587  -0.417  29.575  1.00  0.00     0.089 A 
HETATM    9  C17 UNK     1      20.353  -0.947  31.787  1.00  0.00     0.014 A 
HETATM   10  O1  UNK     1      19.011   0.475  28.649  1.00  0.00    -0.274 OA
HETATM   11  C18 UNK     1      19.954  -1.680  29.116  1.00  0.00     0.038 A 
HETATM   12  C15 UNK     1      18.612   1.757  29.015  1.00  0.00     0.304 A 
HETATM   13  O3  UNK     1      18.112   2.527  28.202  1.00  0.00    -0.259 OA
HETATM   14  C20 UNK     1      20.527  -2.583  30.008  1.00  0.00     0.003 A 
HETATM   15  C19 UNK     1      20.726  -2.218  31.341  1.00  0.00     0.001 A 
ENDBRANCH   3   5
BRANCH   2  16
HETATM   16  C4  UNK     1      19.040   5.874  30.765  1.00  0.00     0.123 C 
BRANCH  16  17
HETATM   17  C2  UNK     1      19.786   6.255  32.040  1.00  0.00     0.020 C 
BRANCH  17  18
HETATM   18  C1  UNK     1      18.991   7.224  32.920  1.00  0.00     0.006 C 
BRANCH  18  19
HETATM   19  C3  UNK     1      17.929   6.484  33.739  1.00  0.00     0.038 C 
BRANCH  19  20
HETATM   20  C5  UNK     1      16.542   6.996  33.447  1.00  0.00    -0.058 A 
HETATM   21  C7  UNK     1      15.939   6.678  32.239  1.00  0.00     0.007 A 
HETATM   22  C13 UNK     1      14.656   7.151  31.968  1.00  0.00     0.001 A 
HETATM   23  C16 UNK     1      13.989   7.938  32.908  1.00  0.00     0.000 A 
HETATM   24  C14 UNK     1      14.607   8.250  34.119  1.00  0.00     0.001 A 
HETATM   25  C8  UNK     1      15.891   7.777  34.390  1.00  0.00     0.007 A 
ENDBRANCH  19  20
ENDBRANCH  18  19
ENDBRANCH  17  18
ENDBRANCH  16  17
ENDBRANCH   2  16
TORSDOF 6
ENDMDL
MODEL 3
REMARK VINA RESULT:      -9.0      2.755      4.760
REMARK  6 active torsions:
REMARK  status: ('A' for Active; 'I' for Inactive)
REMARK    1  A    between atoms: C4_8  and  N1_4 
REMARK       I    between atoms: C6_10  and  N1_4 
REMARK    2  A    between atoms: C1_5  and  C2_6 
REMARK    3  A    between atoms: C1_5  and  C3_7 
REMARK    4  A    between atoms: C2_6  and  C4_8 
REMARK    5  A    between atoms: C3_7  and  C5_9 
REMARK    6  A    between atoms: C6_10  and  C9_13 
ROOT
HETATM    1  O2  UNK     1      20.880   0.014  30.930  1.00  0.00    -0.267 OA
HETATM    2  N1  UNK     1      18.634   0.412  30.448  1.00  0.00    -0.357 N 
HETATM    3  C6  UNK     1      19.695   0.051  31.258  1.00  0.00     0.257 C 
HETATM    4  H9  UNK     1      17.685   0.386  30.807  1.00  0.00     0.162 HD
ENDROOT
BRANCH   3   5
HETATM    5  C9  UNK     1      19.280  -0.304  32.620  1.00  0.00     0.108 A 
HETATM    6  C11 UNK     1      18.555   0.611  33.275  1.00  0.00     0.037 A 
HETATM    7  C10 UNK     1      18.098   0.351  34.631  1.00  0.00    -0.001 A 
HETATM    8  C12 UNK     1      18.426  -0.861  35.231  1.00  0.00     0.089 A 
HETATM    9  C17 UNK     1      17.340   1.276  35.351  1.00  0.00     0.014 A 
HETATM   10  O1  UNK     1      19.190  -1.820  34.537  1.00  0.00    -0.274 OA
HETATM   11  C18 UNK     1      18.020  -1.171  36.527  1.00  0.00     0.038 A 
HETATM   12  C15 UNK     1      19.641  -1.600  33.239  1.00  0.00     0.304 A 
HETATM   13  O3  UNK     1      20.305  -2.440  32.643  1.00  0.00    -0.259 OA
HETATM   14  C20 UNK     1      17.265  -0.243  37.239  1.00  0.00     0.003 A 
HETATM   15  C19 UNK     1      16.925   0.978  36.653  1.00  0.00     0.001 A 
ENDBRANCH   3   5
BRANCH   2  16
HETATM   16  C4  UNK     1      18.795   0.805  29.067  1.00  0.00     0.123 C 
BRANCH  16  17
HETATM   17  C2  UNK     1      18.139   2.148  28.764  1.00  0.00     0.020 C 
BRANCH  17  18
HETATM   18  C1  UNK     1      17.966   3.015  30.015  1.00  0.00     0.006 C 
BRANCH  18  19
HETATM   19  C3  UNK     1      18.967   4.173  30.029  1.00  0.00     0.038 C 
BRANCH  19  20
HETATM   20  C5  UNK     1      19.010   4.857  31.371  1.00  0.00    -0.058 A 
HETATM   21  C7  UNK     1      19.797   5.988  31.535  1.00  0.00     0.007 A 
HETATM   22  C13 UNK     1      19.838   6.621  32.777  1.00  0.00     0.001 A 
HETATM   23  C16 UNK     1      19.091   6.117  33.841  1.00  0.00     0.000 A 
HETATM   24  C14 UNK     1      18.304   4.979  33.663  1.00  0.00     0.001 A 
HETATM   25  C8  UNK     1      18.263   4.346  32.421  1.00  0.00     0.007 A 
ENDBRANCH  19  20
ENDBRANCH  18  19
ENDBRANCH  17  18
ENDBRANCH  16  17
ENDBRANCH   2  16
TORSDOF 6
ENDMDL
MODEL 4
REMARK VINA RESULT:      -8.7      7.018     13.050
REMARK  6 active torsions:
REMARK  status: ('A' for Active; 'I' for Inactive)
REMARK    1  A    between atoms: C4_8  and  N1_4 
REMARK       I    between atoms: C6_10  and  N1_4 
REMARK    2  A    between atoms: C1_5  and  C2_6 
REMARK    3  A    between atoms: C1_5  and  C3_7 
REMARK    4  A    between atoms: C2_6  and  C4_8 
REMARK    5  A    between atoms: C3_7  and  C5_9 
REMARK    6  A    between atoms: C6_10  and  C9_13 
ROOT
HETATM    1  O2  UNK     1      21.094  -4.458  37.236  1.00  0.00    -0.267 OA
HETATM    2  N1  UNK     1      19.145  -5.200  36.194  1.00  0.00    -0.357 N 
HETATM    3  C6  UNK     1      20.049  -4.245  36.624  1.00  0.00     0.257 C 
HETATM    4  H9  UNK     1      18.294  -4.920  35.717  1.00  0.00     0.162 HD
ENDROOT
BRANCH   3   5
HETATM    5  C9  UNK     1      19.647  -2.878  36.272  1.00  0.00     0.108 A 
HETATM    6  C11 UNK     1      18.962  -2.205  37.204  1.00  0.00     0.037 A 
HETATM    7  C10 UNK     1      18.518  -0.843  36.947  1.00  0.00    -0.001 A 
HETATM    8  C12 UNK     1      18.819  -0.257  35.721  1.00  0.00     0.089 A 
HETATM    9  C17 UNK     1      17.802  -0.103  37.890  1.00  0.00     0.014 A 
HETATM   10  O1  UNK     1      19.539  -0.972  34.744  1.00  0.00    -0.274 OA
HETATM   11  C18 UNK     1      18.423   1.042  35.413  1.00  0.00     0.038 A 
HETATM   12  C15 UNK     1      19.977  -2.275  34.961  1.00  0.00     0.304 A 
HETATM   13  O3  UNK     1      20.603  -2.890  34.104  1.00  0.00    -0.259 OA
HETATM   14  C20 UNK     1      17.708   1.773  36.359  1.00  0.00     0.003 A 
HETATM   15  C19 UNK     1      17.398   1.203  37.595  1.00  0.00     0.001 A 
ENDBRANCH   3   5
BRANCH   2  16
HETATM   16  C4  UNK     1      19.326  -6.615  36.422  1.00  0.00     0.123 C 
BRANCH  16  17
HETATM   17  C2  UNK     1      18.693  -7.080  37.729  1.00  0.00     0.020 C 
BRANCH  17  18
HETATM   18  C1  UNK     1      19.726  -7.304  38.837  1.00  0.00     0.006 C 
BRANCH  18  19
HETATM   19  C3  UNK     1      20.010  -8.795  39.035  1.00  0.00     0.038 C 
BRANCH  19  20
HETATM   20  C5  UNK     1      20.972  -9.322  38.001  1.00  0.00    -0.058 A 
HETATM   21  C7  UNK     1      20.659 -10.482  37.308  1.00  0.00     0.007 A 
HETATM   22  C13 UNK     1      21.549 -10.970  36.352  1.00  0.00     0.001 A 
HETATM   23  C16 UNK     1      22.742 -10.293  36.099  1.00  0.00     0.000 A 
HETATM   24  C14 UNK     1      23.044  -9.127  36.803  1.00  0.00     0.001 A 
HETATM   25  C8  UNK     1      22.154  -8.639  37.759  1.00  0.00     0.007 A 
ENDBRANCH  19  20
ENDBRANCH  18  19
ENDBRANCH  17  18
ENDBRANCH  16  17
ENDBRANCH   2  16
TORSDOF 6
ENDMDL
MODEL 5
REMARK VINA RESULT:      -8.6      5.317     10.545
REMARK  6 active torsions:
REMARK  status: ('A' for Active; 'I' for Inactive)
REMARK    1  A    between atoms: C4_8  and  N1_4 
REMARK       I    between atoms: C6_10  and  N1_4 
REMARK    2  A    between atoms: C1_5  and  C2_6 
REMARK    3  A    between atoms: C1_5  and  C3_7 
REMARK    4  A    between atoms: C2_6  and  C4_8 
REMARK    5  A    between atoms: C3_7  and  C5_9 
REMARK    6  A    between atoms: C6_10  and  C9_13 
ROOT
HETATM    1  O2  UNK     1      16.948  -0.951  35.358  1.00  0.00    -0.267 OA
HETATM    2  N1  UNK     1      19.084  -1.860  35.573  1.00  0.00    -0.357 N 
HETATM    3  C6  UNK     1      18.080  -1.162  34.927  1.00  0.00     0.257 C 
HETATM    4  H9  UNK     1      19.981  -2.003  35.120  1.00  0.00     0.162 HD
ENDROOT
BRANCH   3   5
HETATM    5  C9  UNK     1      18.491  -0.658  33.611  1.00  0.00     0.108 A 
HETATM    6  C11 UNK     1      19.132  -1.525  32.818  1.00  0.00     0.037 A 
HETATM    7  C10 UNK     1      19.579  -1.117  31.495  1.00  0.00    -0.001 A 
HETATM    8  C12 UNK     1      19.330   0.184  31.072  1.00  0.00     0.089 A 
HETATM    9  C17 UNK     1      20.250  -1.989  30.635  1.00  0.00     0.014 A 
HETATM   10  O1  UNK     1      18.656   1.093  31.911  1.00  0.00    -0.274 OA
HETATM   11  C18 UNK     1      19.733   0.637  29.818  1.00  0.00     0.038 A 
HETATM   12  C15 UNK     1      18.215   0.732  33.181  1.00  0.00     0.304 A 
HETATM   13  O3  UNK     1      17.630   1.530  33.905  1.00  0.00    -0.259 OA
HETATM   14  C20 UNK     1      20.402  -0.238  28.966  1.00  0.00     0.003 A 
HETATM   15  C19 UNK     1      20.661  -1.549  29.373  1.00  0.00     0.001 A 
ENDBRANCH   3   5
BRANCH   2  16
HETATM   16  C4  UNK     1      18.917  -2.449  36.882  1.00  0.00     0.123 C 
BRANCH  16  17
HETATM   17  C2  UNK     1      20.135  -3.258  37.315  1.00  0.00     0.020 C 
BRANCH  17  18
HETATM   18  C1  UNK     1      20.245  -4.597  36.579  1.00  0.00     0.006 C 
BRANCH  18  19
HETATM   19  C3  UNK     1      18.984  -5.441  36.775  1.00  0.00     0.038 C 
BRANCH  19  20
HETATM   20  C5  UNK     1      19.265  -6.687  37.576  1.00  0.00    -0.058 A 
HETATM   21  C7  UNK     1      19.931  -6.581  38.789  1.00  0.00     0.007 A 
HETATM   22  C13 UNK     1      20.192  -7.734  39.530  1.00  0.00     0.001 A 
HETATM   23  C16 UNK     1      19.783  -8.978  39.051  1.00  0.00     0.000 A 
HETATM   24  C14 UNK     1      19.114  -9.070  37.830  1.00  0.00     0.001 A 
HETATM   25  C8  UNK     1      18.854  -7.918  37.089  1.00  0.00     0.007 A 
ENDBRANCH  19  20
ENDBRANCH  18  19
ENDBRANCH  17  18
ENDBRANCH  16  17
ENDBRANCH   2  16
TORSDOF 6
ENDMDL
MODEL 6
REMARK VINA RESULT:      -8.6      6.883     12.853
REMARK  6 active torsions:
REMARK  status: ('A' for Active; 'I' for Inactive)
REMARK    1  A    between atoms: C4_8  and  N1_4 
REMARK       I    between atoms: C6_10  and  N1_4 
REMARK    2  A    between atoms: C1_5  and  C2_6 
REMARK    3  A    between atoms: C1_5  and  C3_7 
REMARK    4  A    between atoms: C2_6  and  C4_8 
REMARK    5  A    between atoms: C3_7  and  C5_9 
REMARK    6  A    between atoms: C6_10  and  C9_13 
ROOT
HETATM    1  O2  UNK     1      20.880  -4.447  37.005  1.00  0.00    -0.267 OA
HETATM    2  N1  UNK     1      18.685  -4.970  36.418  1.00  0.00    -0.357 N 
HETATM    3  C6  UNK     1      19.764  -4.124  36.605  1.00  0.00     0.257 C 
HETATM    4  H9  UNK     1      17.793  -4.599  36.107  1.00  0.00     0.162 HD
ENDROOT
BRANCH   3   5
HETATM    5  C9  UNK     1      19.460  -2.728  36.267  1.00  0.00     0.108 A 
HETATM    6  C11 UNK     1      18.729  -2.049  37.159  1.00  0.00     0.037 A 
HETATM    7  C10 UNK     1      18.376  -0.659  36.912  1.00  0.00    -0.001 A 
HETATM    8  C12 UNK     1      18.810  -0.053  35.737  1.00  0.00     0.089 A 
HETATM    9  C17 UNK     1      17.617   0.088  37.815  1.00  0.00     0.014 A 
HETATM   10  O1  UNK     1      19.578  -0.774  34.802  1.00  0.00    -0.274 OA
HETATM   11  C18 UNK     1      18.505   1.273  35.441  1.00  0.00     0.038 A 
HETATM   12  C15 UNK     1      19.932  -2.104  35.011  1.00  0.00     0.304 A 
HETATM   13  O3  UNK     1      20.600  -2.723  34.190  1.00  0.00    -0.259 OA
HETATM   14  C20 UNK     1      17.747   2.011  36.347  1.00  0.00     0.003 A 
HETATM   15  C19 UNK     1      17.303   1.421  37.531  1.00  0.00     0.001 A 
ENDBRANCH   3   5
BRANCH   2  16
HETATM   16  C4  UNK     1      18.743  -6.389  36.681  1.00  0.00     0.123 C 
BRANCH  16  17
HETATM   17  C2  UNK     1      19.028  -7.202  35.423  1.00  0.00     0.020 C 
BRANCH  17  18
HETATM   18  C1  UNK     1      20.526  -7.425  35.191  1.00  0.00     0.006 C 
BRANCH  18  19
HETATM   19  C3  UNK     1      20.921  -8.875  35.483  1.00  0.00     0.038 C 
BRANCH  19  20
HETATM   20  C5  UNK     1      20.617  -9.260  36.908  1.00  0.00    -0.058 A 
HETATM   21  C7  UNK     1      19.676 -10.249  37.160  1.00  0.00     0.007 A 
HETATM   22  C13 UNK     1      19.394 -10.606  38.479  1.00  0.00     0.001 A 
HETATM   23  C16 UNK     1      20.055  -9.971  39.530  1.00  0.00     0.000 A 
HETATM   24  C14 UNK     1      20.999  -8.979  39.262  1.00  0.00     0.001 A 
HETATM   25  C8  UNK     1      21.281  -8.622  37.944  1.00  0.00     0.007 A 
ENDBRANCH  19  20
ENDBRANCH  18  19
ENDBRANCH  17  18
ENDBRANCH  16  17
ENDBRANCH   2  16
TORSDOF 6
ENDMDL
MODEL 7
REMARK VINA RESULT:      -8.4      6.239      9.832
REMARK  6 active torsions:
REMARK  status: ('A' for Active; 'I' for Inactive)
REMARK    1  A    between atoms: C4_8  and  N1_4 
REMARK       I    between atoms: C6_10  and  N1_4 
REMARK    2  A    between atoms: C1_5  and  C2_6 
REMARK    3  A    between atoms: C1_5  and  C3_7 
REMARK    4  A    between atoms: C2_6  and  C4_8 
REMARK    5  A    between atoms: C3_7  and  C5_9 
REMARK    6  A    between atoms: C6_10  and  C9_13 
ROOT
HETATM    1  O2  UNK     1      20.848  -3.176  35.620  1.00  0.00    -0.267 OA
HETATM    2  N1  UNK     1      18.993  -2.686  36.945  1.00  0.00    -0.357 N 
HETATM    3  C6  UNK     1      20.025  -3.482  36.481  1.00  0.00     0.257 C 
HETATM    4  H9  UNK     1      18.348  -3.041  37.644  1.00  0.00     0.162 HD
ENDROOT
BRANCH   3   5
HETATM    5  C9  UNK     1      20.070  -4.796  37.134  1.00  0.00     0.108 A 
HETATM    6  C11 UNK     1      21.187  -5.080  37.815  1.00  0.00     0.037 A 
HETATM    7  C10 UNK     1      21.326  -6.359  38.495  1.00  0.00    -0.001 A 
HETATM    8  C12 UNK     1      20.282  -7.276  38.423  1.00  0.00     0.089 A 
HETATM    9  C17 UNK     1      22.472  -6.697  39.217  1.00  0.00     0.014 A 
HETATM   10  O1  UNK     1      19.110  -6.971  37.704  1.00  0.00    -0.274 OA
HETATM   11  C18 UNK     1      20.353  -8.517  39.051  1.00  0.00     0.038 A 
HETATM   12  C15 UNK     1      18.947  -5.756  37.044  1.00  0.00     0.304 A 
HETATM   13  O3  UNK     1      17.923  -5.501  36.420  1.00  0.00    -0.259 OA
HETATM   14  C20 UNK     1      21.500  -8.847  39.769  1.00  0.00     0.003 A 
HETATM   15  C19 UNK     1      22.557  -7.940  39.852  1.00  0.00     0.001 A 
ENDBRANCH   3   5
BRANCH   2  16
HETATM   16  C4  UNK     1      18.749  -1.349  36.455  1.00  0.00     0.123 C 
BRANCH  16  17
HETATM   17  C2  UNK     1      17.890  -1.340  35.194  1.00  0.00     0.020 C 
BRANCH  17  18
HETATM   18  C1  UNK     1      18.585  -0.654  34.014  1.00  0.00     0.006 C 
BRANCH  18  19
HETATM   19  C3  UNK     1      19.238  -1.681  33.084  1.00  0.00     0.038 C 
BRANCH  19  20
HETATM   20  C5  UNK     1      19.570  -1.085  31.740  1.00  0.00    -0.058 A 
HETATM   21  C7  UNK     1      19.239   0.237  31.480  1.00  0.00     0.007 A 
HETATM   22  C13 UNK     1      19.546   0.789  30.237  1.00  0.00     0.001 A 
HETATM   23  C16 UNK     1      20.181   0.013  29.267  1.00  0.00     0.000 A 
HETATM   24  C14 UNK     1      20.508  -1.315  29.541  1.00  0.00     0.001 A 
HETATM   25  C8  UNK     1      20.202  -1.866  30.785  1.00  0.00     0.007 A 
ENDBRANCH  19  20
ENDBRANCH  18  19
ENDBRANCH  17  18
ENDBRANCH  16  17
ENDBRANCH   2  16
TORSDOF 6
ENDMDL
MODEL 8
REMARK VINA RESULT:      -8.3      1.237      2.469
REMARK  6 active torsions:
REMARK  status: ('A' for Active; 'I' for Inactive)
REMARK    1  A    between atoms: C4_8  and  N1_4 
REMARK       I    between atoms: C6_10  and  N1_4 
REMARK    2  A    between atoms: C1_5  and  C2_6 
REMARK    3  A    between atoms: C1_5  and  C3_7 
REMARK    4  A    between atoms: C2_6  and  C4_8 
REMARK    5  A    between atoms: C3_7  and  C5_9 
REMARK    6  A    between atoms: C6_10  and  C9_13 
ROOT
HETATM    1  O2  UNK     1      17.751   3.308  32.812  1.00  0.00    -0.267 OA
HETATM    2  N1  UNK     1      18.478   4.724  31.109  1.00  0.00    -0.357 N 
HETATM    3  C6  UNK     1      18.259   3.497  31.708  1.00  0.00     0.257 C 
HETATM    4  H9  UNK     1      18.929   4.776  30.201  1.00  0.00     0.162 HD
ENDROOT
BRANCH   3   5
HETATM    5  C9  UNK     1      18.700   2.369  30.879  1.00  0.00     0.108 A 
HETATM    6  C11 UNK     1      19.126   1.283  31.536  1.00  0.00     0.037 A 
HETATM    7  C10 UNK     1      19.585   0.114  30.800  1.00  0.00    -0.001 A 
HETATM    8  C12 UNK     1      19.571   0.147  29.409  1.00  0.00     0.089 A 
HETATM    9  C17 UNK     1      20.038  -1.039  31.444  1.00  0.00     0.014 A 
HETATM   10  O1  UNK     1      19.121   1.292  28.724  1.00  0.00    -0.274 OA
HETATM   11  C18 UNK     1      19.997  -0.939  28.647  1.00  0.00     0.038 A 
HETATM   12  C15 UNK     1      18.676   2.425  29.400  1.00  0.00     0.304 A 
HETATM   13  O3  UNK     1      18.287   3.418  28.795  1.00  0.00    -0.259 OA
HETATM   14  C20 UNK     1      20.448  -2.085  29.297  1.00  0.00     0.003 A 
HETATM   15  C19 UNK     1      20.469  -2.136  30.692  1.00  0.00     0.001 A 
ENDBRANCH   3   5
BRANCH   2  16
HETATM   16  C4  UNK     1      18.124   5.979  31.731  1.00  0.00     0.123 C 
BRANCH  16  17
HETATM   17  C2  UNK     1      19.345   6.748  32.223  1.00  0.00     0.020 C 
BRANCH  17  18
HETATM   18  C1  UNK     1      19.420   6.819  33.751  1.00  0.00     0.006 C 
BRANCH  18  19
HETATM   19  C3  UNK     1      18.071   7.220  34.353  1.00  0.00     0.038 C 
BRANCH  19  20
HETATM   20  C5  UNK     1      17.845   8.708  34.273  1.00  0.00    -0.058 A 
HETATM   21  C7  UNK     1      16.550   9.204  34.315  1.00  0.00     0.007 A 
HETATM   22  C13 UNK     1      16.340  10.581  34.240  1.00  0.00     0.001 A 
HETATM   23  C16 UNK     1      17.427  11.447  34.125  1.00  0.00     0.000 A 
HETATM   24  C14 UNK     1      18.724  10.935  34.083  1.00  0.00     0.001 A 
HETATM   25  C8  UNK     1      18.934   9.558  34.158  1.00  0.00     0.007 A 
ENDBRANCH  19  20
ENDBRANCH  18  19
ENDBRANCH  17  18
ENDBRANCH  16  17
ENDBRANCH   2  16
TORSDOF 6
ENDMDL
MODEL 9
REMARK VINA RESULT:      -8.3      2.436      9.208
REMARK  6 active torsions:
REMARK  status: ('A' for Active; 'I' for Inactive)
REMARK    1  A    between atoms: C4_8  and  N1_4 
REMARK       I    between atoms: C6_10  and  N1_4 
REMARK    2  A    between atoms: C1_5  and  C2_6 
REMARK    3  A    between atoms: C1_5  and  C3_7 
REMARK    4  A    between atoms: C2_6  and  C4_8 
REMARK    5  A    between atoms: C3_7  and  C5_9 
REMARK    6  A    between atoms: C6_10  and  C9_13 
ROOT
HETATM    1  O2  UNK     1      17.540   4.397  32.607  1.00  0.00    -0.267 OA
HETATM    2  N1  UNK     1      18.915   5.541  31.112  1.00  0.00    -0.357 N 
HETATM    3  C6  UNK     1      18.010   5.439  32.152  1.00  0.00     0.257 C 
HETATM    4  H9  UNK     1      19.225   6.453  30.792  1.00  0.00     0.162 HD
ENDROOT
BRANCH   3   5
HETATM    5  C9  UNK     1      17.631   6.742  32.710  1.00  0.00     0.108 A 
HETATM    6  C11 UNK     1      16.325   7.032  32.702  1.00  0.00     0.037 A 
HETATM    7  C10 UNK     1      15.851   8.302  33.233  1.00  0.00    -0.001 A 
HETATM    8  C12 UNK     1      16.778   9.203  33.746  1.00  0.00     0.089 A 
HETATM    9  C17 UNK     1      14.498   8.645  33.244  1.00  0.00     0.014 A 
HETATM   10  O1  UNK     1      18.152   8.892  33.752  1.00  0.00    -0.274 OA
HETATM   11  C18 UNK     1      16.390  10.435  34.268  1.00  0.00     0.038 A 
HETATM   12  C15 UNK     1      18.634   7.686  33.252  1.00  0.00     0.304 A 
HETATM   13  O3  UNK     1      19.832   7.425  33.260  1.00  0.00    -0.259 OA
HETATM   14  C20 UNK     1      15.039  10.771  34.276  1.00  0.00     0.003 A 
HETATM   15  C19 UNK     1      14.094   9.879  33.765  1.00  0.00     0.001 A 
ENDBRANCH   3   5
BRANCH   2  16
HETATM   16  C4  UNK     1      19.437   4.393  30.406  1.00  0.00     0.123 C 
BRANCH  16  17
HETATM   17  C2  UNK     1      18.453   3.847  29.377  1.00  0.00     0.020 C 
BRANCH  17  18
HETATM   18  C1  UNK     1      18.218   2.341  29.529  1.00  0.00     0.006 C 
BRANCH  18  19
HETATM   19  C3  UNK     1      18.950   1.788  30.754  1.00  0.00     0.038 C 
BRANCH  19  20
HETATM   20  C5  UNK     1      19.524   0.419  30.491  1.00  0.00    -0.058 A 
HETATM   21  C7  UNK     1      20.152   0.165  29.280  1.00  0.00     0.007 A 
HETATM   22  C13 UNK     1      20.683  -1.101  29.035  1.00  0.00     0.001 A 
HETATM   23  C16 UNK     1      20.581  -2.099  30.004  1.00  0.00     0.000 A 
HETATM   24  C14 UNK     1      19.948  -1.830  31.218  1.00  0.00     0.001 A 
HETATM   25  C8  UNK     1      19.417  -0.564  31.462  1.00  0.00     0.007 A 
ENDBRANCH  19  20
ENDBRANCH  18  19
ENDBRANCH  17  18
ENDBRANCH  16  17
ENDBRANCH   2  16
TORSDOF 6
ENDMDL
MODEL 10
REMARK VINA RESULT:      -8.3      3.090      4.281
REMARK  6 active torsions:
REMARK  status: ('A' for Active; 'I' for Inactive)
REMARK    1  A    between atoms: C4_8  and  N1_4 
REMARK       I    between atoms: C6_10  and  N1_4 
REMARK    2  A    between atoms: C1_5  and  C2_6 
REMARK    3  A    between atoms: C1_5  and  C3_7 
REMARK    4  A    between atoms: C2_6  and  C4_8 
REMARK    5  A    between atoms: C3_7  and  C5_9 
REMARK    6  A    between atoms: C6_10  and  C9_13 
ROOT
HETATM    1  O2  UNK     1      19.096   0.773  31.560  1.00  0.00    -0.267 OA
HETATM    2  N1  UNK     1      17.794   2.700  31.727  1.00  0.00    -0.357 N 
HETATM    3  C6  UNK     1      18.444   1.582  32.218  1.00  0.00     0.257 C 
HETATM    4  H9  UNK     1      17.257   3.294  32.352  1.00  0.00     0.162 HD
ENDROOT
BRANCH   3   5
HETATM    5  C9  UNK     1      18.292   1.423  33.669  1.00  0.00     0.108 A 
HETATM    6  C11 UNK     1      18.171   0.168  34.118  1.00  0.00     0.037 A 
HETATM    7  C10 UNK     1      18.014  -0.090  35.541  1.00  0.00    -0.001 A 
HETATM    8  C12 UNK     1      17.993   0.987  36.422  1.00  0.00     0.089 A 
HETATM    9  C17 UNK     1      17.885  -1.383  36.053  1.00  0.00     0.014 A 
HETATM   10  O1  UNK     1      18.120   2.305  35.943  1.00  0.00    -0.274 OA
HETATM   11  C18 UNK     1      17.846   0.808  37.795  1.00  0.00     0.038 A 
HETATM   12  C15 UNK     1      18.272   2.584  34.588  1.00  0.00     0.304 A 
HETATM   13  O3  UNK     1      18.381   3.735  34.181  1.00  0.00    -0.259 OA
HETATM   14  C20 UNK     1      17.717  -0.485  38.298  1.00  0.00     0.003 A 
HETATM   15  C19 UNK     1      17.737  -1.578  37.430  1.00  0.00     0.001 A 
ENDBRANCH   3   5
BRANCH   2  16
HETATM   16  C4  UNK     1      17.802   3.066  30.330  1.00  0.00     0.123 C 
BRANCH  16  17
HETATM   17  C2  UNK     1      19.090   3.774  29.922  1.00  0.00     0.020 C 
BRANCH  17  18
HETATM   18  C1  UNK     1      18.956   5.300  29.947  1.00  0.00     0.006 C 
BRANCH  18  19
HETATM   19  C3  UNK     1      19.956   5.927  30.922  1.00  0.00     0.038 C 
BRANCH  19  20
HETATM   20  C5  UNK     1      19.270   6.491  32.139  1.00  0.00    -0.058 A 
HETATM   21  C7  UNK     1      20.033   6.908  33.220  1.00  0.00     0.007 A 
HETATM   22  C13 UNK     1      19.398   7.430  34.347  1.00  0.00     0.001 A 
HETATM   23  C16 UNK     1      18.007   7.530  34.380  1.00  0.00     0.000 A 
HETATM   24  C14 UNK     1      17.252   7.107  33.286  1.00  0.00     0.001 A 
HETATM   25  C8  UNK     1      17.886   6.585  32.159  1.00  0.00     0.007 A 
ENDBRANCH  19  20
ENDBRANCH  18  19
ENDBRANCH  17  18
ENDBRANCH  16  17
ENDBRANCH   2  16
TORSDOF 6
ENDMDL
