MODEL 1
REMARK VINA RESULT:      -8.8      0.000      0.000
REMARK  2 active torsions:
REMARK  status: ('A' for Active; 'I' for Inactive)
REMARK    1  A    between atoms: C17_22  and  O4_4 
REMARK       I    between atoms: C6_11  and  N1_5 
REMARK    2  A    between atoms: C6_11  and  C9_14 
ROOT
HETATM    1  O2  UNK     1      19.277  -1.810  34.638  1.00  0.00    -0.271 OA
HETATM    2  O3  UNK     1      20.633  -3.556  34.063  1.00  0.00    -0.259 OA
HETATM    3  C9  UNK     1      20.013  -3.400  36.345  1.00  0.00     0.108 A 
HETATM    4  C12 UNK     1      19.337  -2.738  37.292  1.00  0.00     0.037 A 
HETATM    5  C13 UNK     1      18.575  -1.547  36.952  1.00  0.00     0.002 A 
HETATM    6  C14 UNK     1      20.015  -2.953  34.933  1.00  0.00     0.304 A 
HETATM    7  C15 UNK     1      18.564  -1.109  35.631  1.00  0.00     0.123 A 
HETATM    8  C16 UNK     1      17.855  -0.826  37.907  1.00  0.00     0.014 A 
HETATM    9  C17 UNK     1      17.854   0.024  35.240  1.00  0.00     0.102 A 
HETATM   10  C18 UNK     1      17.139   0.315  37.529  1.00  0.00     0.004 A 
HETATM   11  C19 UNK     1      17.139   0.737  36.199  1.00  0.00     0.040 A 
ENDROOT
BRANCH   3  12
HETATM   12  C6  UNK     1      20.756  -4.599  36.789  1.00  0.00     0.264 C 
HETATM   13  O1  UNK     1      21.831  -4.412  37.357  1.00  0.00    -0.267 OA
HETATM   14  N1  UNK     1      20.179  -5.828  36.507  1.00  0.00    -0.308 N 
HETATM   15  C1  UNK     1      18.878  -6.099  35.821  1.00  0.00     0.093 C 
HETATM   16  C4  UNK     1      20.751  -7.080  36.846  1.00  0.00     0.044 A 
HETATM   17  C2  UNK     1      18.905  -7.588  35.417  1.00  0.00     0.066 C 
HETATM   18  C5  UNK     1      17.696  -5.818  36.756  1.00  0.00     0.033 C 
HETATM   19  C3  UNK     1      20.012  -8.117  36.271  1.00  0.00    -0.029 A 
HETATM   20  C7  UNK     1      20.368  -9.445  36.448  1.00  0.00     0.009 A 
HETATM   21  C10 UNK     1      21.485  -9.734  37.230  1.00  0.00     0.001 A 
HETATM   22  C11 UNK     1      22.231  -8.698  37.809  1.00  0.00     0.002 A 
HETATM   23  C8  UNK     1      21.871  -7.359  37.616  1.00  0.00     0.030 A 
ENDBRANCH   3  12
BRANCH   9  24
HETATM   24  O4  UNK     1      17.851   0.440  33.944  1.00  0.00    -0.353 OA
HETATM   25  C20 UNK     1      18.113   1.821  33.705  1.00  0.00     0.210 C 
ENDBRANCH   9  24
TORSDOF 2
ENDMDL
MODEL 2
REMARK VINA RESULT:      -8.4      1.647      2.665
REMARK  2 active torsions:
REMARK  status: ('A' for Active; 'I' for Inactive)
REMARK    1  A    between atoms: C17_22  and  O4_4 
REMARK       I    between atoms: C6_11  and  N1_5 
REMARK    2  A    between atoms: C6_11  and  C9_14 
ROOT
HETATM    1  O2  UNK     1      18.559  -1.483  35.599  1.00  0.00    -0.271 OA
HETATM    2  O3  UNK     1      18.515  -2.312  37.727  1.00  0.00    -0.259 OA
HETATM    3  C9  UNK     1      20.011  -3.353  36.214  1.00  0.00     0.108 A 
HETATM    4  C12 UNK     1      20.515  -3.404  34.975  1.00  0.00     0.037 A 
HETATM    5  C13 UNK     1      20.056  -2.472  33.957  1.00  0.00     0.002 A 
HETATM    6  C14 UNK     1      18.979  -2.362  36.594  1.00  0.00     0.304 A 
HETATM    7  C15 UNK     1      19.086  -1.532  34.293  1.00  0.00     0.123 A 
HETATM    8  C16 UNK     1      20.554  -2.489  32.653  1.00  0.00     0.014 A 
HETATM    9  C17 UNK     1      18.604  -0.612  33.366  1.00  0.00     0.102 A 
HETATM   10  C18 UNK     1      20.078  -1.572  31.710  1.00  0.00     0.004 A 
HETATM   11  C19 UNK     1      19.106  -0.636  32.067  1.00  0.00     0.040 A 
ENDROOT
BRANCH   3  12
HETATM   12  C6  UNK     1      20.542  -4.342  37.177  1.00  0.00     0.264 C 
HETATM   13  O1  UNK     1      21.383  -3.944  37.981  1.00  0.00    -0.267 OA
HETATM   14  N1  UNK     1      20.054  -5.636  37.072  1.00  0.00    -0.308 N 
HETATM   15  C1  UNK     1      19.035  -6.161  36.112  1.00  0.00     0.093 C 
HETATM   16  C4  UNK     1      20.455  -6.715  37.899  1.00  0.00     0.044 A 
HETATM   17  C2  UNK     1      19.151  -7.699  36.156  1.00  0.00     0.066 C 
HETATM   18  C5  UNK     1      17.623  -5.718  36.514  1.00  0.00     0.033 C 
HETATM   19  C3  UNK     1      19.913  -7.912  37.424  1.00  0.00    -0.029 A 
HETATM   20  C7  UNK     1      20.160  -9.120  38.058  1.00  0.00     0.009 A 
HETATM   21  C10 UNK     1      20.960  -9.120  39.198  1.00  0.00     0.001 A 
HETATM   22  C11 UNK     1      21.508  -7.923  39.679  1.00  0.00     0.002 A 
HETATM   23  C8  UNK     1      21.262  -6.709  39.028  1.00  0.00     0.030 A 
ENDBRANCH   3  12
BRANCH   9  24
HETATM   24  O4  UNK     1      17.656   0.302  33.709  1.00  0.00    -0.353 OA
HETATM   25  C20 UNK     1      18.101   1.634  33.962  1.00  0.00     0.210 C 
ENDBRANCH   9  24
TORSDOF 2
ENDMDL
MODEL 3
REMARK VINA RESULT:      -8.4      7.678     13.000
REMARK  2 active torsions:
REMARK  status: ('A' for Active; 'I' for Inactive)
REMARK    1  A    between atoms: C17_22  and  O4_4 
REMARK       I    between atoms: C6_11  and  N1_5 
REMARK    2  A    between atoms: C6_11  and  C9_14 
ROOT
HETATM    1  O2  UNK     1      18.352   4.317  31.263  1.00  0.00    -0.271 OA
HETATM    2  O3  UNK     1      18.332   6.493  30.570  1.00  0.00    -0.259 OA
HETATM    3  C9  UNK     1      18.256   6.123  32.909  1.00  0.00     0.108 A 
HETATM    4  C12 UNK     1      18.239   5.242  33.916  1.00  0.00     0.037 A 
HETATM    5  C13 UNK     1      18.278   3.814  33.642  1.00  0.00     0.002 A 
HETATM    6  C14 UNK     1      18.315   5.689  31.495  1.00  0.00     0.304 A 
HETATM    7  C15 UNK     1      18.333   3.384  32.319  1.00  0.00     0.123 A 
HETATM    8  C16 UNK     1      18.261   2.859  34.661  1.00  0.00     0.014 A 
HETATM    9  C17 UNK     1      18.373   2.031  31.989  1.00  0.00     0.102 A 
HETATM   10  C18 UNK     1      18.300   1.497  34.344  1.00  0.00     0.004 A 
HETATM   11  C19 UNK     1      18.356   1.086  33.011  1.00  0.00     0.040 A 
ENDROOT
BRANCH   3  12
HETATM   12  C6  UNK     1      18.213   7.552  33.290  1.00  0.00     0.264 C 
HETATM   13  O1  UNK     1      19.289   8.142  33.370  1.00  0.00    -0.267 OA
HETATM   14  N1  UNK     1      16.960   8.091  33.541  1.00  0.00    -0.308 N 
HETATM   15  C1  UNK     1      15.631   7.410  33.456  1.00  0.00     0.093 C 
HETATM   16  C4  UNK     1      16.727   9.434  33.928  1.00  0.00     0.044 A 
HETATM   17  C2  UNK     1      14.632   8.318  34.203  1.00  0.00     0.066 C 
HETATM   18  C5  UNK     1      15.201   7.226  31.996  1.00  0.00     0.033 C 
HETATM   19  C3  UNK     1      15.383   9.609  34.271  1.00  0.00    -0.029 A 
HETATM   20  C7  UNK     1      14.897  10.837  34.690  1.00  0.00     0.009 A 
HETATM   21  C10 UNK     1      15.780  11.914  34.754  1.00  0.00     0.001 A 
HETATM   22  C11 UNK     1      17.129  11.745  34.413  1.00  0.00     0.002 A 
HETATM   23  C8  UNK     1      17.614  10.498  34.001  1.00  0.00     0.030 A 
ENDBRANCH   3  12
BRANCH   9  24
HETATM   24  O4  UNK     1      18.429   1.625  30.691  1.00  0.00    -0.353 OA
HETATM   25  C20 UNK     1      19.494   0.747  30.331  1.00  0.00     0.210 C 
ENDBRANCH   9  24
TORSDOF 2
ENDMDL
MODEL 4
REMARK VINA RESULT:      -8.2      6.957     11.960
REMARK  2 active torsions:
REMARK  status: ('A' for Active; 'I' for Inactive)
REMARK    1  A    between atoms: C17_22  and  O4_4 
REMARK       I    between atoms: C6_11  and  N1_5 
REMARK    2  A    between atoms: C6_11  and  C9_14 
ROOT
HETATM    1  O2  UNK     1      19.203   2.828  30.210  1.00  0.00    -0.271 OA
HETATM    2  O3  UNK     1      18.854   5.023  29.684  1.00  0.00    -0.259 OA
HETATM    3  C9  UNK     1      18.051   4.296  31.791  1.00  0.00     0.108 A 
HETATM    4  C12 UNK     1      17.910   3.291  32.664  1.00  0.00     0.037 A 
HETATM    5  C13 UNK     1      18.422   1.967  32.347  1.00  0.00     0.002 A 
HETATM    6  C14 UNK     1      18.723   4.105  30.486  1.00  0.00     0.304 A 
HETATM    7  C15 UNK     1      19.057   1.766  31.125  1.00  0.00     0.123 A 
HETATM    8  C16 UNK     1      18.298   0.890  33.227  1.00  0.00     0.014 A 
HETATM    9  C17 UNK     1      19.570   0.523  30.760  1.00  0.00     0.102 A 
HETATM   10  C18 UNK     1      18.807  -0.364  32.874  1.00  0.00     0.004 A 
HETATM   11  C19 UNK     1      19.441  -0.546  31.644  1.00  0.00     0.040 A 
ENDROOT
BRANCH   3  12
HETATM   12  C6  UNK     1      17.498   5.604  32.205  1.00  0.00     0.264 C 
HETATM   13  O1  UNK     1      16.316   5.819  31.945  1.00  0.00    -0.267 OA
HETATM   14  N1  UNK     1      18.372   6.478  32.835  1.00  0.00    -0.308 N 
HETATM   15  C1  UNK     1      19.813   6.256  33.171  1.00  0.00     0.093 C 
HETATM   16  C4  UNK     1      18.023   7.774  33.290  1.00  0.00     0.044 A 
HETATM   17  C2  UNK     1      20.401   7.647  33.489  1.00  0.00     0.066 C 
HETATM   18  C5  UNK     1      19.958   5.323  34.378  1.00  0.00     0.033 C 
HETATM   19  C3  UNK     1      19.165   8.457  33.717  1.00  0.00    -0.029 A 
HETATM   20  C7  UNK     1      19.094   9.752  34.206  1.00  0.00     0.009 A 
HETATM   21  C10 UNK     1      17.845  10.367  34.275  1.00  0.00     0.001 A 
HETATM   22  C11 UNK     1      16.695   9.687  33.848  1.00  0.00     0.002 A 
HETATM   23  C8  UNK     1      16.778   8.384  33.346  1.00  0.00     0.030 A 
ENDBRANCH   3  12
BRANCH   9  24
HETATM   24  O4  UNK     1      20.189   0.341  29.563  1.00  0.00    -0.353 OA
HETATM   25  C20 UNK     1      20.631  -0.980  29.255  1.00  0.00     0.210 C 
ENDBRANCH   9  24
TORSDOF 2
ENDMDL
MODEL 5
REMARK VINA RESULT:      -8.2      6.737     10.670
REMARK  2 active torsions:
REMARK  status: ('A' for Active; 'I' for Inactive)
REMARK    1  A    between atoms: C17_22  and  O4_4 
REMARK       I    between atoms: C6_11  and  N1_5 
REMARK    2  A    between atoms: C6_11  and  C9_14 
ROOT
HETATM    1  O2  UNK     1      24.636  -8.452  37.397  1.00  0.00    -0.271 OA
HETATM    2  O3  UNK     1      26.181  -7.038  38.309  1.00  0.00    -0.259 OA
HETATM    3  C9  UNK     1      26.986  -9.118  37.508  1.00  0.00     0.108 A 
HETATM    4  C12 UNK     1      26.710 -10.292  36.927  1.00  0.00     0.037 A 
HETATM    5  C13 UNK     1      25.345 -10.615  36.541  1.00  0.00     0.002 A 
HETATM    6  C14 UNK     1      25.931  -8.115  37.778  1.00  0.00     0.304 A 
HETATM    7  C15 UNK     1      24.338  -9.686  36.786  1.00  0.00     0.123 A 
HETATM    8  C16 UNK     1      25.011 -11.827  35.933  1.00  0.00     0.014 A 
HETATM    9  C17 UNK     1      23.012  -9.934  36.439  1.00  0.00     0.102 A 
HETATM   10  C18 UNK     1      23.683 -12.090  35.581  1.00  0.00     0.004 A 
HETATM   11  C19 UNK     1      22.687 -11.145  35.833  1.00  0.00     0.040 A 
ENDROOT
BRANCH   3  12
HETATM   12  C6  UNK     1      28.403  -8.883  37.864  1.00  0.00     0.264 C 
HETATM   13  O1  UNK     1      28.825  -9.438  38.877  1.00  0.00    -0.267 OA
HETATM   14  N1  UNK     1      29.122  -8.040  37.029  1.00  0.00    -0.308 N 
HETATM   15  C1  UNK     1      28.648  -7.346  35.792  1.00  0.00     0.093 C 
HETATM   16  C4  UNK     1      30.482  -7.691  37.219  1.00  0.00     0.044 A 
HETATM   17  C2  UNK     1      29.691  -6.251  35.484  1.00  0.00     0.066 C 
HETATM   18  C5  UNK     1      28.541  -8.329  34.619  1.00  0.00     0.033 C 
HETATM   19  C3  UNK     1      30.854  -6.695  36.312  1.00  0.00    -0.029 A 
HETATM   20  C7  UNK     1      32.139  -6.174  36.295  1.00  0.00     0.009 A 
HETATM   21  C10 UNK     1      33.070  -6.676  37.202  1.00  0.00     0.001 A 
HETATM   22  C11 UNK     1      32.703  -7.675  38.115  1.00  0.00     0.002 A 
HETATM   23  C8  UNK     1      31.401  -8.187  38.133  1.00  0.00     0.030 A 
ENDBRANCH   3  12
BRANCH   9  24
HETATM   24  O4  UNK     1      22.038  -9.016  36.683  1.00  0.00    -0.353 OA
HETATM   25  C20 UNK     1      21.321  -8.515  35.556  1.00  0.00     0.210 C 
ENDBRANCH   9  24
TORSDOF 2
ENDMDL
MODEL 6
REMARK VINA RESULT:      -8.1     11.600     14.186
REMARK  2 active torsions:
REMARK  status: ('A' for Active; 'I' for Inactive)
REMARK    1  A    between atoms: C17_22  and  O4_4 
REMARK       I    between atoms: C6_11  and  N1_5 
REMARK    2  A    between atoms: C6_11  and  C9_14 
ROOT
HETATM    1  O2  UNK     1      14.257   9.846  35.254  1.00  0.00    -0.271 OA
HETATM    2  O3  UNK     1      14.217   7.885  34.085  1.00  0.00    -0.259 OA
HETATM    3  C9  UNK     1      15.895   9.445  33.484  1.00  0.00     0.108 A 
HETATM    4  C12 UNK     1      16.458  10.641  33.696  1.00  0.00     0.037 A 
HETATM    5  C13 UNK     1      15.935  11.525  34.726  1.00  0.00     0.002 A 
HETATM    6  C14 UNK     1      14.735   8.979  34.276  1.00  0.00     0.304 A 
HETATM    7  C15 UNK     1      14.844  11.106  35.482  1.00  0.00     0.123 A 
HETATM    8  C16 UNK     1      16.491  12.781  34.982  1.00  0.00     0.014 A 
HETATM    9  C17 UNK     1      14.296  11.905  36.483  1.00  0.00     0.102 A 
HETATM   10  C18 UNK     1      15.950  13.594  35.983  1.00  0.00     0.004 A 
HETATM   11  C19 UNK     1      14.857  13.156  36.732  1.00  0.00     0.040 A 
ENDROOT
BRANCH   3  12
HETATM   12  C6  UNK     1      16.499   8.620  32.415  1.00  0.00     0.264 C 
HETATM   13  O1  UNK     1      15.945   8.633  31.317  1.00  0.00    -0.267 OA
HETATM   14  N1  UNK     1      17.628   7.889  32.757  1.00  0.00    -0.308 N 
HETATM   15  C1  UNK     1      18.332   7.844  34.075  1.00  0.00     0.093 C 
HETATM   16  C4  UNK     1      18.331   7.037  31.869  1.00  0.00     0.044 A 
HETATM   17  C2  UNK     1      19.255   6.608  34.030  1.00  0.00     0.066 C 
HETATM   18  C5  UNK     1      19.153   9.119  34.303  1.00  0.00     0.033 C 
HETATM   19  C3  UNK     1      19.307   6.319  32.565  1.00  0.00    -0.029 A 
HETATM   20  C7  UNK     1      20.133   5.409  31.922  1.00  0.00     0.009 A 
HETATM   21  C10 UNK     1      19.977   5.227  30.549  1.00  0.00     0.001 A 
HETATM   22  C11 UNK     1      18.999   5.944  29.845  1.00  0.00     0.002 A 
HETATM   23  C8  UNK     1      18.163   6.853  30.504  1.00  0.00     0.030 A 
ENDBRANCH   3  12
BRANCH   9  24
HETATM   24  O4  UNK     1      13.231  11.483  37.216  1.00  0.00    -0.353 OA
HETATM   25  C20 UNK     1      13.473  11.148  38.581  1.00  0.00     0.210 C 
ENDBRANCH   9  24
TORSDOF 2
ENDMDL
MODEL 7
REMARK VINA RESULT:      -7.9      8.137     14.302
REMARK  2 active torsions:
REMARK  status: ('A' for Active; 'I' for Inactive)
REMARK    1  A    between atoms: C17_22  and  O4_4 
REMARK       I    between atoms: C6_11  and  N1_5 
REMARK    2  A    between atoms: C6_11  and  C9_14 
ROOT
HETATM    1  O2  UNK     1      17.480   5.092  33.609  1.00  0.00    -0.271 OA
HETATM    2  O3  UNK     1      16.911   6.607  35.221  1.00  0.00    -0.259 OA
HETATM    3  C9  UNK     1      17.967   7.466  33.281  1.00  0.00     0.108 A 
HETATM    4  C12 UNK     1      18.511   7.217  32.083  1.00  0.00     0.037 A 
HETATM    5  C13 UNK     1      18.569   5.856  31.573  1.00  0.00     0.002 A 
HETATM    6  C14 UNK     1      17.410   6.383  34.124  1.00  0.00     0.304 A 
HETATM    7  C15 UNK     1      18.051   4.823  32.350  1.00  0.00     0.123 A 
HETATM    8  C16 UNK     1      19.127   5.550  30.330  1.00  0.00     0.014 A 
HETATM    9  C17 UNK     1      18.075   3.499  31.919  1.00  0.00     0.102 A 
HETATM   10  C18 UNK     1      19.159   4.224  29.885  1.00  0.00     0.004 A 
HETATM   11  C19 UNK     1      18.634   3.202  30.677  1.00  0.00     0.040 A 
ENDROOT
BRANCH   3  12
HETATM   12  C6  UNK     1      17.955   8.881  33.712  1.00  0.00     0.264 C 
HETATM   13  O1  UNK     1      19.039   9.390  33.992  1.00  0.00    -0.267 OA
HETATM   14  N1  UNK     1      16.716   9.500  33.778  1.00  0.00    -0.308 N 
HETATM   15  C1  UNK     1      15.378   8.920  33.447  1.00  0.00     0.093 C 
HETATM   16  C4  UNK     1      16.510  10.844  34.179  1.00  0.00     0.044 A 
HETATM   17  C2  UNK     1      14.330   9.873  34.059  1.00  0.00     0.066 C 
HETATM   18  C5  UNK     1      15.185   8.815  31.929  1.00  0.00     0.033 C 
HETATM   19  C3  UNK     1      15.143  11.104  34.305  1.00  0.00    -0.029 A 
HETATM   20  C7  UNK     1      14.675  12.350  34.692  1.00  0.00     0.009 A 
HETATM   21  C10 UNK     1      15.604  13.357  34.947  1.00  0.00     0.001 A 
HETATM   22  C11 UNK     1      16.977  13.103  34.823  1.00  0.00     0.002 A 
HETATM   23  C8  UNK     1      17.441  11.838  34.442  1.00  0.00     0.030 A 
ENDBRANCH   3  12
BRANCH   9  24
HETATM   24  O4  UNK     1      17.565   2.499  32.688  1.00  0.00    -0.353 OA
HETATM   25  C20 UNK     1      18.481   1.781  33.512  1.00  0.00     0.210 C 
ENDBRANCH   9  24
TORSDOF 2
ENDMDL
MODEL 8
REMARK VINA RESULT:      -7.8     11.025     13.049
REMARK  2 active torsions:
REMARK  status: ('A' for Active; 'I' for Inactive)
REMARK    1  A    between atoms: C17_22  and  O4_4 
REMARK       I    between atoms: C6_11  and  N1_5 
REMARK    2  A    between atoms: C6_11  and  C9_14 
ROOT
HETATM    1  O2  UNK     1      31.112  -5.452  34.903  1.00  0.00    -0.271 OA
HETATM    2  O3  UNK     1      30.656  -5.184  32.681  1.00  0.00    -0.259 OA
HETATM    3  C9  UNK     1      31.449  -7.313  33.354  1.00  0.00     0.108 A 
HETATM    4  C12 UNK     1      31.867  -8.103  34.350  1.00  0.00     0.037 A 
HETATM    5  C13 UNK     1      31.931  -7.594  35.711  1.00  0.00     0.002 A 
HETATM    6  C14 UNK     1      31.040  -5.910  33.591  1.00  0.00     0.304 A 
HETATM    7  C15 UNK     1      31.552  -6.278  35.956  1.00  0.00     0.123 A 
HETATM    8  C16 UNK     1      32.361  -8.382  36.781  1.00  0.00     0.014 A 
HETATM    9  C17 UNK     1      31.590  -5.730  37.237  1.00  0.00     0.102 A 
HETATM   10  C18 UNK     1      32.405  -7.845  38.072  1.00  0.00     0.004 A 
HETATM   11  C19 UNK     1      32.020  -6.523  38.298  1.00  0.00     0.040 A 
ENDROOT
BRANCH   3  12
HETATM   12  C6  UNK     1      31.419  -7.922  32.006  1.00  0.00     0.264 C 
HETATM   13  O1  UNK     1      32.489  -8.009  31.407  1.00  0.00    -0.267 OA
HETATM   14  N1  UNK     1      30.178  -8.324  31.532  1.00  0.00    -0.308 N 
HETATM   15  C1  UNK     1      28.856  -8.237  32.226  1.00  0.00     0.093 C 
HETATM   16  C4  UNK     1      29.956  -8.915  30.264  1.00  0.00     0.044 A 
HETATM   17  C2  UNK     1      27.782  -8.441  31.136  1.00  0.00     0.066 C 
HETATM   18  C5  UNK     1      28.732  -9.314  33.309  1.00  0.00     0.033 C 
HETATM   19  C3  UNK     1      28.585  -9.039  30.025  1.00  0.00    -0.029 A 
HETATM   20  C7  UNK     1      28.101  -9.585  28.846  1.00  0.00     0.009 A 
HETATM   21  C10 UNK     1      29.019 -10.025  27.894  1.00  0.00     0.001 A 
HETATM   22  C11 UNK     1      30.396  -9.903  28.127  1.00  0.00     0.002 A 
HETATM   23  C8  UNK     1      30.875  -9.340  29.315  1.00  0.00     0.030 A 
ENDBRANCH   3  12
BRANCH   9  24
HETATM   24  O4  UNK     1      31.215  -4.442  37.462  1.00  0.00    -0.353 OA
HETATM   25  C20 UNK     1      29.898  -4.228  37.967  1.00  0.00     0.210 C 
ENDBRANCH   9  24
TORSDOF 2
ENDMDL
MODEL 9
REMARK VINA RESULT:      -7.7      9.104     12.497
REMARK  2 active torsions:
REMARK  status: ('A' for Active; 'I' for Inactive)
REMARK    1  A    between atoms: C17_22  and  O4_4 
REMARK       I    between atoms: C6_11  and  N1_5 
REMARK    2  A    between atoms: C6_11  and  C9_14 
ROOT
HETATM    1  O2  UNK     1      27.301  -7.461  36.629  1.00  0.00    -0.271 OA
HETATM    2  O3  UNK     1      28.475  -6.539  34.900  1.00  0.00    -0.259 OA
HETATM    3  C9  UNK     1      29.658  -8.031  36.309  1.00  0.00     0.108 A 
HETATM    4  C12 UNK     1      29.635  -8.842  37.375  1.00  0.00     0.037 A 
HETATM    5  C13 UNK     1      28.411  -9.008  38.143  1.00  0.00     0.002 A 
HETATM    6  C14 UNK     1      28.458  -7.281  35.875  1.00  0.00     0.304 A 
HETATM    7  C15 UNK     1      27.271  -8.312  37.751  1.00  0.00     0.123 A 
HETATM    8  C16 UNK     1      28.341  -9.842  39.260  1.00  0.00     0.014 A 
HETATM    9  C17 UNK     1      26.067  -8.427  38.444  1.00  0.00     0.102 A 
HETATM   10  C18 UNK     1      27.139  -9.967  39.966  1.00  0.00     0.004 A 
HETATM   11  C19 UNK     1      26.006  -9.262  39.557  1.00  0.00     0.040 A 
ENDROOT
BRANCH   3  12
HETATM   12  C6  UNK     1      30.949  -7.929  35.594  1.00  0.00     0.264 C 
HETATM   13  O1  UNK     1      31.087  -8.620  34.586  1.00  0.00    -0.267 OA
HETATM   14  N1  UNK     1      31.895  -7.074  36.139  1.00  0.00    -0.308 N 
HETATM   15  C1  UNK     1      31.769  -6.218  37.359  1.00  0.00     0.093 C 
HETATM   16  C4  UNK     1      33.188  -6.858  35.599  1.00  0.00     0.044 A 
HETATM   17  C2  UNK     1      33.203  -5.789  37.736  1.00  0.00     0.066 C 
HETATM   18  C5  UNK     1      30.897  -4.989  37.080  1.00  0.00     0.033 C 
HETATM   19  C3  UNK     1      33.951  -6.081  36.475  1.00  0.00    -0.029 A 
HETATM   20  C7  UNK     1      35.259  -5.731  36.180  1.00  0.00     0.009 A 
HETATM   21  C10 UNK     1      35.806  -6.164  34.973  1.00  0.00     0.001 A 
HETATM   22  C11 UNK     1      35.046  -6.944  34.090  1.00  0.00     0.002 A 
HETATM   23  C8  UNK     1      33.729  -7.302  34.401  1.00  0.00     0.030 A 
ENDBRANCH   3  12
BRANCH   9  24
HETATM   24  O4  UNK     1      24.960  -7.742  38.049  1.00  0.00    -0.353 OA
HETATM   25  C20 UNK     1      23.835  -7.765  38.926  1.00  0.00     0.210 C 
ENDBRANCH   9  24
TORSDOF 2
ENDMDL
MODEL 10
REMARK VINA RESULT:      -7.6      6.213     11.775
REMARK  2 active torsions:
REMARK  status: ('A' for Active; 'I' for Inactive)
REMARK    1  A    between atoms: C17_22  and  O4_4 
REMARK       I    between atoms: C6_11  and  N1_5 
REMARK    2  A    between atoms: C6_11  and  C9_14 
ROOT
HETATM    1  O2  UNK     1      18.678   1.575  33.010  1.00  0.00    -0.271 OA
HETATM    2  O3  UNK     1      17.970   3.078  34.576  1.00  0.00    -0.259 OA
HETATM    3  C9  UNK     1      18.043   3.837  32.333  1.00  0.00     0.108 A 
HETATM    4  C12 UNK     1      18.314   3.560  31.051  1.00  0.00     0.037 A 
HETATM    5  C13 UNK     1      18.794   2.240  30.673  1.00  0.00     0.002 A 
HETATM    6  C14 UNK     1      18.218   2.828  33.402  1.00  0.00     0.304 A 
HETATM    7  C15 UNK     1      18.966   1.277  31.663  1.00  0.00     0.123 A 
HETATM    8  C16 UNK     1      19.090   1.906  29.350  1.00  0.00     0.014 A 
HETATM    9  C17 UNK     1      19.422  -0.006  31.367  1.00  0.00     0.102 A 
HETATM   10  C18 UNK     1      19.549   0.623  29.038  1.00  0.00     0.004 A 
HETATM   11  C19 UNK     1      19.714  -0.330  30.044  1.00  0.00     0.040 A 
ENDROOT
BRANCH   3  12
HETATM   12  C6  UNK     1      17.560   5.206  32.617  1.00  0.00     0.264 C 
HETATM   13  O1  UNK     1      16.369   5.434  32.409  1.00  0.00    -0.267 OA
HETATM   14  N1  UNK     1      18.502   6.115  33.076  1.00  0.00    -0.308 N 
HETATM   15  C1  UNK     1      19.955   5.880  33.342  1.00  0.00     0.093 C 
HETATM   16  C4  UNK     1      18.225   7.469  33.388  1.00  0.00     0.044 A 
HETATM   17  C2  UNK     1      20.606   7.275  33.446  1.00  0.00     0.066 C 
HETATM   18  C5  UNK     1      20.154   5.095  34.644  1.00  0.00     0.033 C 
HETATM   19  C3  UNK     1      19.415   8.154  33.652  1.00  0.00    -0.029 A 
HETATM   20  C7  UNK     1      19.417   9.501  33.980  1.00  0.00     0.009 A 
HETATM   21  C10 UNK     1      18.196  10.168  34.054  1.00  0.00     0.001 A 
HETATM   22  C11 UNK     1      16.999   9.487  33.789  1.00  0.00     0.002 A 
HETATM   23  C8  UNK     1      17.007   8.130  33.448  1.00  0.00     0.030 A 
ENDBRANCH   3  12
BRANCH   9  24
HETATM   24  O4  UNK     1      19.584  -0.938  32.344  1.00  0.00    -0.353 OA
HETATM   25  C20 UNK     1      20.475  -2.018  32.071  1.00  0.00     0.210 C 
ENDBRANCH   9  24
TORSDOF 2
ENDMDL
