MODEL 1
REMARK VINA RESULT:      -7.9      0.000      0.000
REMARK  7 active torsions:
REMARK  status: ('A' for Active; 'I' for Inactive)
REMARK    1  A    between atoms: C12_20  and  O2_2 
REMARK    2  A    between atoms: C14_22  and  O5_5 
REMARK    3  A    between atoms: C21_29  and  O5_5 
REMARK    4  A    between atoms: C12_20  and  C2_10 
REMARK    5  A    between atoms: C11_19  and  C6_14 
REMARK    6  A    between atoms: C14_22  and  C8_16 
REMARK    7  A    between atoms: C21_29  and  C24_32 
ROOT
HETATM    1  O1  UNK     1      29.213  -7.974  36.665  1.00  0.00    -0.292 OA
HETATM    2  N1  UNK     1      33.585  -6.156  36.593  1.00  0.00    -0.362 N 
HETATM    3  C1  UNK     1      30.539  -5.229  38.630  1.00  0.00     0.008 C 
HETATM    4  C2  UNK     1      29.815  -6.579  38.527  1.00  0.00     0.164 C 
HETATM    5  C3  UNK     1      32.037  -5.446  38.361  1.00  0.00     0.063 C 
HETATM    6  C4  UNK     1      31.391  -7.047  36.528  1.00  0.00     0.025 C 
HETATM    7  C5  UNK     1      32.310  -6.254  37.118  1.00  0.00     0.020 C 
HETATM    8  C6  UNK     1      31.705  -7.790  35.232  1.00  0.00     0.104 C 
HETATM    9  C7  UNK     1      30.057  -7.242  37.181  1.00  0.00     0.172 C 
HETATM   10  C8  UNK     1      33.194  -7.743  34.881  1.00  0.00     0.052 C 
HETATM   11  C9  UNK     1      29.961  -4.155  37.695  1.00  0.00     0.011 C 
HETATM   12  C10 UNK     1      34.049  -6.924  35.537  1.00  0.00     0.018 C 
HETATM   13  C13 UNK     1      35.513  -6.762  35.228  1.00  0.00     0.069 C 
HETATM   14  H9  UNK     1      34.249  -5.556  37.069  1.00  0.00     0.165 HD
ENDROOT
BRANCH   8  15
HETATM   15  C11 UNK     1      30.885  -7.237  34.092  1.00  0.00     0.029 A 
HETATM   16  C15 UNK     1      29.973  -8.155  33.365  1.00  0.00     0.194 A 
HETATM   17  O7  UNK     1      29.866  -9.338  33.661  1.00  0.00    -0.287 OA
HETATM   18  C17 UNK     1      29.196  -7.564  32.258  1.00  0.00     0.048 A 
HETATM   19  C18 UNK     1      29.358  -6.210  31.965  1.00  0.00     0.089 A 
HETATM   20  C19 UNK     1      28.310  -8.345  31.513  1.00  0.00     0.018 A 
HETATM   21  O3  UNK     1      30.212  -5.396  32.665  1.00  0.00    -0.321 OA
HETATM   22  C22 UNK     1      28.633  -5.629  30.923  1.00  0.00     0.038 A 
HETATM   23  C16 UNK     1      30.929  -5.960  33.691  1.00  0.00     0.154 A 
HETATM   24  C25 UNK     1      27.748  -6.408  30.178  1.00  0.00     0.003 A 
HETATM   25  C23 UNK     1      27.587  -7.762  30.471  1.00  0.00     0.001 A 
ENDBRANCH   8  15
BRANCH  10  26
HETATM   26  C14 UNK     1      33.659  -8.673  33.839  1.00  0.00     0.292 C 
HETATM   27  O6  UNK     1      33.843  -9.860  34.035  1.00  0.00    -0.259 OA
BRANCH  26  28
HETATM   28  O5  UNK     1      33.828  -7.976  32.689  1.00  0.00    -0.318 OA
BRANCH  28  29
HETATM   29  C21 UNK     1      33.213  -8.555  31.533  1.00  0.00     0.178 C 
BRANCH  29  30
HETATM   30  C24 UNK     1      32.619  -7.442  30.684  1.00  0.00     0.022 C 
HETATM   31  C26 UNK     1      31.708  -7.985  29.598  1.00  0.00     0.007 C 
ENDBRANCH  29  30
ENDBRANCH  28  29
ENDBRANCH  26  28
ENDBRANCH  10  26
BRANCH   4  32
HETATM   32  C12 UNK     1      28.366  -6.433  38.878  1.00  0.00     0.270 C 
HETATM   33  O4  UNK     1      27.594  -5.680  38.299  1.00  0.00    -0.264 OA
BRANCH  32  34
HETATM   34  O2  UNK     1      28.063  -7.256  39.923  1.00  0.00    -0.326 OA
HETATM   35  C20 UNK     1      27.422  -8.486  39.570  1.00  0.00     0.213 C 
ENDBRANCH  32  34
ENDBRANCH   4  32
TORSDOF 7
ENDMDL
MODEL 2
REMARK VINA RESULT:      -7.9      2.205      3.362
REMARK  7 active torsions:
REMARK  status: ('A' for Active; 'I' for Inactive)
REMARK    1  A    between atoms: C12_20  and  O2_2 
REMARK    2  A    between atoms: C14_22  and  O5_5 
REMARK    3  A    between atoms: C21_29  and  O5_5 
REMARK    4  A    between atoms: C12_20  and  C2_10 
REMARK    5  A    between atoms: C11_19  and  C6_14 
REMARK    6  A    between atoms: C14_22  and  C8_16 
REMARK    7  A    between atoms: C21_29  and  C24_32 
ROOT
HETATM    1  O1  UNK     1      29.041  -9.495  36.543  1.00  0.00    -0.292 OA
HETATM    2  N1  UNK     1      30.374  -5.091  37.665  1.00  0.00    -0.362 N 
HETATM    3  C1  UNK     1      27.693  -7.325  39.116  1.00  0.00     0.008 C 
HETATM    4  C2  UNK     1      28.291  -8.667  38.670  1.00  0.00     0.164 C 
HETATM    5  C3  UNK     1      28.808  -6.268  39.145  1.00  0.00     0.063 C 
HETATM    6  C4  UNK     1      29.691  -7.263  37.007  1.00  0.00     0.025 C 
HETATM    7  C5  UNK     1      29.638  -6.239  37.886  1.00  0.00     0.020 C 
HETATM    8  C6  UNK     1      30.497  -7.151  35.715  1.00  0.00     0.104 C 
HETATM    9  C7  UNK     1      28.990  -8.548  37.326  1.00  0.00     0.172 C 
HETATM   10  C8  UNK     1      31.404  -5.918  35.700  1.00  0.00     0.052 C 
HETATM   11  C9  UNK     1      26.515  -6.861  38.243  1.00  0.00     0.011 C 
HETATM   12  C10 UNK     1      31.288  -4.944  36.634  1.00  0.00     0.018 C 
HETATM   13  C13 UNK     1      32.089  -3.670  36.669  1.00  0.00     0.069 C 
HETATM   14  H9  UNK     1      30.313  -4.348  38.352  1.00  0.00     0.165 HD
ENDROOT
BRANCH   8  15
HETATM   15  C11 UNK     1      29.579  -7.135  34.518  1.00  0.00     0.029 A 
HETATM   16  C15 UNK     1      29.789  -8.145  33.450  1.00  0.00     0.194 A 
HETATM   17  O7  UNK     1      30.679  -8.984  33.512  1.00  0.00    -0.287 OA
HETATM   18  C17 UNK     1      28.866  -8.084  32.301  1.00  0.00     0.048 A 
HETATM   19  C18 UNK     1      27.871  -7.106  32.283  1.00  0.00     0.089 A 
HETATM   20  C19 UNK     1      28.982  -8.990  31.245  1.00  0.00     0.018 A 
HETATM   21  O3  UNK     1      27.710  -6.192  33.293  1.00  0.00    -0.321 OA
HETATM   22  C22 UNK     1      26.986  -7.031  31.207  1.00  0.00     0.038 A 
HETATM   23  C16 UNK     1      28.578  -6.260  34.355  1.00  0.00     0.154 A 
HETATM   24  C25 UNK     1      27.100  -7.935  30.151  1.00  0.00     0.003 A 
HETATM   25  C23 UNK     1      28.095  -8.912  30.170  1.00  0.00     0.001 A 
ENDBRANCH   8  15
BRANCH  10  26
HETATM   26  C14 UNK     1      32.444  -5.872  34.659  1.00  0.00     0.292 C 
HETATM   27  O6  UNK     1      32.285  -5.336  33.579  1.00  0.00    -0.259 OA
BRANCH  26  28
HETATM   28  O5  UNK     1      33.544  -6.511  35.126  1.00  0.00    -0.318 OA
BRANCH  28  29
HETATM   29  C21 UNK     1      34.751  -5.742  35.093  1.00  0.00     0.178 C 
BRANCH  29  30
HETATM   30  C24 UNK     1      35.327  -5.673  36.499  1.00  0.00     0.022 C 
HETATM   31  C26 UNK     1      34.534  -6.521  37.477  1.00  0.00     0.007 C 
ENDBRANCH  29  30
ENDBRANCH  28  29
ENDBRANCH  26  28
ENDBRANCH  10  26
BRANCH   4  32
HETATM   32  C12 UNK     1      27.258  -9.751  38.721  1.00  0.00     0.270 C 
HETATM   33  O4  UNK     1      26.646 -10.161  37.744  1.00  0.00    -0.264 OA
BRANCH  32  34
HETATM   34  O2  UNK     1      27.120 -10.190  40.005  1.00  0.00    -0.326 OA
HETATM   35  C20 UNK     1      28.342 -10.495  40.685  1.00  0.00     0.213 C 
ENDBRANCH  32  34
ENDBRANCH   4  32
TORSDOF 7
ENDMDL
MODEL 3
REMARK VINA RESULT:      -7.8      1.857      2.653
REMARK  7 active torsions:
REMARK  status: ('A' for Active; 'I' for Inactive)
REMARK    1  A    between atoms: C12_20  and  O2_2 
REMARK    2  A    between atoms: C14_22  and  O5_5 
REMARK    3  A    between atoms: C21_29  and  O5_5 
REMARK    4  A    between atoms: C12_20  and  C2_10 
REMARK    5  A    between atoms: C11_19  and  C6_14 
REMARK    6  A    between atoms: C14_22  and  C8_16 
REMARK    7  A    between atoms: C21_29  and  C24_32 
ROOT
HETATM    1  O1  UNK     1      28.556  -9.323  36.662  1.00  0.00    -0.292 OA
HETATM    2  N1  UNK     1      31.278  -5.516  37.384  1.00  0.00    -0.362 N 
HETATM    3  C1  UNK     1      28.136  -6.693  39.123  1.00  0.00     0.008 C 
HETATM    4  C2  UNK     1      28.250  -8.178  38.753  1.00  0.00     0.164 C 
HETATM    5  C3  UNK     1      29.526  -6.046  39.020  1.00  0.00     0.063 C 
HETATM    6  C4  UNK     1      29.904  -7.390  36.925  1.00  0.00     0.025 C 
HETATM    7  C5  UNK     1      30.235  -6.355  37.726  1.00  0.00     0.020 C 
HETATM    8  C6  UNK     1      30.615  -7.615  35.592  1.00  0.00     0.104 C 
HETATM    9  C7  UNK     1      28.859  -8.365  37.373  1.00  0.00     0.172 C 
HETATM   10  C8  UNK     1      31.861  -6.738  35.442  1.00  0.00     0.052 C 
HETATM   11  C9  UNK     1      27.108  -5.930  38.272  1.00  0.00     0.011 C 
HETATM   12  C10 UNK     1      32.120  -5.726  36.304  1.00  0.00     0.018 C 
HETATM   13  C13 UNK     1      33.281  -4.774  36.206  1.00  0.00     0.069 C 
HETATM   14  H9  UNK     1      31.501  -4.754  38.015  1.00  0.00     0.165 HD
ENDROOT
BRANCH   8  15
HETATM   15  C11 UNK     1      29.670  -7.377  34.441  1.00  0.00     0.029 A 
HETATM   16  C15 UNK     1      29.586  -8.400  33.369  1.00  0.00     0.194 A 
HETATM   17  O7  UNK     1      30.257  -9.424  33.391  1.00  0.00    -0.287 OA
HETATM   18  C17 UNK     1      28.648  -8.116  32.266  1.00  0.00     0.048 A 
HETATM   19  C18 UNK     1      27.910  -6.933  32.292  1.00  0.00     0.089 A 
HETATM   20  C19 UNK     1      28.498  -9.018  31.209  1.00  0.00     0.018 A 
HETATM   21  O3  UNK     1      28.017  -6.014  33.304  1.00  0.00    -0.321 OA
HETATM   22  C22 UNK     1      27.016  -6.645  31.259  1.00  0.00     0.038 A 
HETATM   23  C16 UNK     1      28.895  -6.291  34.323  1.00  0.00     0.154 A 
HETATM   24  C25 UNK     1      26.865  -7.543  30.203  1.00  0.00     0.003 A 
HETATM   25  C23 UNK     1      27.603  -8.726  30.178  1.00  0.00     0.001 A 
ENDBRANCH   8  15
BRANCH  10  26
HETATM   26  C14 UNK     1      32.789  -7.085  34.354  1.00  0.00     0.292 C 
HETATM   27  O6  UNK     1      32.748  -6.573  33.251  1.00  0.00    -0.259 OA
BRANCH  26  28
HETATM   28  O5  UNK     1      33.644  -8.033  34.808  1.00  0.00    -0.318 OA
BRANCH  28  29
HETATM   29  C21 UNK     1      34.918  -8.063  34.156  1.00  0.00     0.178 C 
BRANCH  29  30
HETATM   30  C24 UNK     1      35.871  -7.139  34.899  1.00  0.00     0.022 C 
HETATM   31  C26 UNK     1      37.303  -7.305  34.426  1.00  0.00     0.007 C 
ENDBRANCH  29  30
ENDBRANCH  28  29
ENDBRANCH  26  28
ENDBRANCH  10  26
BRANCH   4  32
HETATM   32  C12 UNK     1      26.935  -8.873  38.933  1.00  0.00     0.270 C 
HETATM   33  O4  UNK     1      26.001  -8.786  38.148  1.00  0.00    -0.264 OA
BRANCH  32  34
HETATM   34  O2  UNK     1      26.956  -9.596  40.090  1.00  0.00    -0.326 OA
HETATM   35  C20 UNK     1      28.141 -10.368  40.310  1.00  0.00     0.213 C 
ENDBRANCH  32  34
ENDBRANCH   4  32
TORSDOF 7
ENDMDL
MODEL 4
REMARK VINA RESULT:      -7.7      1.588      1.990
REMARK  7 active torsions:
REMARK  status: ('A' for Active; 'I' for Inactive)
REMARK    1  A    between atoms: C12_20  and  O2_2 
REMARK    2  A    between atoms: C14_22  and  O5_5 
REMARK    3  A    between atoms: C21_29  and  O5_5 
REMARK    4  A    between atoms: C12_20  and  C2_10 
REMARK    5  A    between atoms: C11_19  and  C6_14 
REMARK    6  A    between atoms: C14_22  and  C8_16 
REMARK    7  A    between atoms: C21_29  and  C24_32 
ROOT
HETATM    1  O1  UNK     1      29.733  -9.945  35.640  1.00  0.00    -0.292 OA
HETATM    2  N1  UNK     1      34.105  -8.130  35.484  1.00  0.00    -0.362 N 
HETATM    3  C1  UNK     1      31.425  -7.938  38.142  1.00  0.00     0.008 C 
HETATM    4  C2  UNK     1      30.649  -9.198  37.732  1.00  0.00     0.164 C 
HETATM    5  C3  UNK     1      32.858  -8.037  37.598  1.00  0.00     0.063 C 
HETATM    6  C4  UNK     1      31.896  -8.988  35.474  1.00  0.00     0.025 C 
HETATM    7  C5  UNK     1      32.919  -8.407  36.137  1.00  0.00     0.020 C 
HETATM    8  C6  UNK     1      31.991  -9.280  33.978  1.00  0.00     0.104 C 
HETATM    9  C7  UNK     1      30.668  -9.400  36.226  1.00  0.00     0.172 C 
HETATM   10  C8  UNK     1      33.414  -9.104  33.440  1.00  0.00     0.052 C 
HETATM   11  C9  UNK     1      30.750  -6.633  37.689  1.00  0.00     0.011 C 
HETATM   12  C10 UNK     1      34.383  -8.519  34.184  1.00  0.00     0.018 C 
HETATM   13  C13 UNK     1      35.789  -8.246  33.724  1.00  0.00     0.069 C 
HETATM   14  H9  UNK     1      34.851  -7.700  36.019  1.00  0.00     0.165 HD
ENDROOT
BRANCH   8  15
HETATM   15  C11 UNK     1      31.031  -8.410  33.206  1.00  0.00     0.029 A 
HETATM   16  C15 UNK     1      29.983  -9.066  32.385  1.00  0.00     0.194 A 
HETATM   17  O7  UNK     1      29.875 -10.283  32.317  1.00  0.00    -0.287 OA
HETATM   18  C17 UNK     1      29.072  -8.168  31.649  1.00  0.00     0.048 A 
HETATM   19  C18 UNK     1      29.242  -6.789  31.764  1.00  0.00     0.089 A 
HETATM   20  C19 UNK     1      28.053  -8.689  30.848  1.00  0.00     0.018 A 
HETATM   21  O3  UNK     1      30.225  -6.223  32.536  1.00  0.00    -0.321 OA
HETATM   22  C22 UNK     1      28.391  -5.921  31.077  1.00  0.00     0.038 A 
HETATM   23  C16 UNK     1      31.065  -7.071  33.214  1.00  0.00     0.154 A 
HETATM   24  C25 UNK     1      27.373  -6.438  30.277  1.00  0.00     0.003 A 
HETATM   25  C23 UNK     1      27.204  -7.818  30.162  1.00  0.00     0.001 A 
ENDBRANCH   8  15
BRANCH  10  26
HETATM   26  C14 UNK     1      33.689  -9.651  32.102  1.00  0.00     0.292 C 
HETATM   27  O6  UNK     1      33.871 -10.835  31.887  1.00  0.00    -0.259 OA
BRANCH  26  28
HETATM   28  O5  UNK     1      33.696  -8.626  31.215  1.00  0.00    -0.318 OA
BRANCH  28  29
HETATM   29  C21 UNK     1      32.906  -8.836  30.040  1.00  0.00     0.178 C 
BRANCH  29  30
HETATM   30  C24 UNK     1      32.239  -7.523  29.657  1.00  0.00     0.022 C 
HETATM   31  C26 UNK     1      31.134  -7.728  28.637  1.00  0.00     0.007 C 
ENDBRANCH  29  30
ENDBRANCH  28  29
ENDBRANCH  26  28
ENDBRANCH  10  26
BRANCH   4  32
HETATM   32  C12 UNK     1      29.273  -9.191  38.324  1.00  0.00     0.270 C 
HETATM   33  O4  UNK     1      28.397  -8.396  38.012  1.00  0.00    -0.264 OA
BRANCH  32  34
HETATM   34  O2  UNK     1      29.168 -10.192  39.246  1.00  0.00    -0.326 OA
HETATM   35  C20 UNK     1      27.974 -10.177  40.035  1.00  0.00     0.213 C 
ENDBRANCH  32  34
ENDBRANCH   4  32
TORSDOF 7
ENDMDL
MODEL 5
REMARK VINA RESULT:      -7.7      1.000      1.671
REMARK  7 active torsions:
REMARK  status: ('A' for Active; 'I' for Inactive)
REMARK    1  A    between atoms: C12_20  and  O2_2 
REMARK    2  A    between atoms: C14_22  and  O5_5 
REMARK    3  A    between atoms: C21_29  and  O5_5 
REMARK    4  A    between atoms: C12_20  and  C2_10 
REMARK    5  A    between atoms: C11_19  and  C6_14 
REMARK    6  A    between atoms: C14_22  and  C8_16 
REMARK    7  A    between atoms: C21_29  and  C24_32 
ROOT
HETATM    1  O1  UNK     1      29.178  -7.941  36.599  1.00  0.00    -0.292 OA
HETATM    2  N1  UNK     1      33.600  -6.246  36.549  1.00  0.00    -0.362 N 
HETATM    3  C1  UNK     1      30.579  -5.255  38.593  1.00  0.00     0.008 C 
HETATM    4  C2  UNK     1      29.818  -6.583  38.476  1.00  0.00     0.164 C 
HETATM    5  C3  UNK     1      32.071  -5.512  38.324  1.00  0.00     0.063 C 
HETATM    6  C4  UNK     1      31.381  -7.074  36.473  1.00  0.00     0.025 C 
HETATM    7  C5  UNK     1      32.323  -6.314  37.072  1.00  0.00     0.020 C 
HETATM    8  C6  UNK     1      31.676  -7.812  35.169  1.00  0.00     0.104 C 
HETATM    9  C7  UNK     1      30.042  -7.239  37.124  1.00  0.00     0.172 C 
HETATM   10  C8  UNK     1      33.167  -7.805  34.821  1.00  0.00     0.052 C 
HETATM   11  C9  UNK     1      30.032  -4.155  37.669  1.00  0.00     0.011 C 
HETATM   12  C10 UNK     1      34.044  -7.016  35.486  1.00  0.00     0.018 C 
HETATM   13  C13 UNK     1      35.512  -6.893  35.179  1.00  0.00     0.069 C 
HETATM   14  H9  UNK     1      34.280  -5.670  37.031  1.00  0.00     0.165 HD
ENDROOT
BRANCH   8  15
HETATM   15  C11 UNK     1      30.874  -7.225  34.035  1.00  0.00     0.029 A 
HETATM   16  C15 UNK     1      29.898  -8.096  33.332  1.00  0.00     0.194 A 
HETATM   17  O7  UNK     1      29.727  -9.267  33.643  1.00  0.00    -0.287 OA
HETATM   18  C17 UNK     1      29.141  -7.472  32.229  1.00  0.00     0.048 A 
HETATM   19  C18 UNK     1      29.378  -6.133  31.918  1.00  0.00     0.089 A 
HETATM   20  C19 UNK     1      28.200  -8.209  31.506  1.00  0.00     0.018 A 
HETATM   21  O3  UNK     1      30.289  -5.364  32.595  1.00  0.00    -0.321 OA
HETATM   22  C22 UNK     1      28.673  -5.523  30.879  1.00  0.00     0.038 A 
HETATM   23  C16 UNK     1      30.986  -5.957  33.618  1.00  0.00     0.154 A 
HETATM   24  C25 UNK     1      27.733  -6.256  30.156  1.00  0.00     0.003 A 
HETATM   25  C23 UNK     1      27.497  -7.595  30.468  1.00  0.00     0.001 A 
ENDBRANCH   8  15
BRANCH  10  26
HETATM   26  C14 UNK     1      33.607  -8.736  33.769  1.00  0.00     0.292 C 
HETATM   27  O6  UNK     1      34.070  -8.372  32.704  1.00  0.00    -0.259 OA
BRANCH  26  28
HETATM   28  O5  UNK     1      33.402 -10.002  34.207  1.00  0.00    -0.318 OA
BRANCH  28  29
HETATM   29  C21 UNK     1      32.941 -10.921  33.211  1.00  0.00     0.178 C 
BRANCH  29  30
HETATM   30  C24 UNK     1      31.997 -11.919  33.863  1.00  0.00     0.022 C 
HETATM   31  C26 UNK     1      31.660 -11.528  35.291  1.00  0.00     0.007 C 
ENDBRANCH  29  30
ENDBRANCH  28  29
ENDBRANCH  26  28
ENDBRANCH  10  26
BRANCH   4  32
HETATM   32  C12 UNK     1      28.373  -6.399  38.827  1.00  0.00     0.270 C 
HETATM   33  O4  UNK     1      27.612  -5.653  38.226  1.00  0.00    -0.264 OA
BRANCH  32  34
HETATM   34  O2  UNK     1      28.061  -7.182  39.900  1.00  0.00    -0.326 OA
HETATM   35  C20 UNK     1      27.440  -8.433  39.588  1.00  0.00     0.213 C 
ENDBRANCH  32  34
ENDBRANCH   4  32
TORSDOF 7
ENDMDL
MODEL 6
REMARK VINA RESULT:      -7.7      2.281      6.640
REMARK  7 active torsions:
REMARK  status: ('A' for Active; 'I' for Inactive)
REMARK    1  A    between atoms: C12_20  and  O2_2 
REMARK    2  A    between atoms: C14_22  and  O5_5 
REMARK    3  A    between atoms: C21_29  and  O5_5 
REMARK    4  A    between atoms: C12_20  and  C2_10 
REMARK    5  A    between atoms: C11_19  and  C6_14 
REMARK    6  A    between atoms: C14_22  and  C8_16 
REMARK    7  A    between atoms: C21_29  and  C24_32 
ROOT
HETATM    1  O1  UNK     1      30.279  -9.161  31.834  1.00  0.00    -0.292 OA
HETATM    2  N1  UNK     1      28.090  -6.377  34.978  1.00  0.00    -0.362 N 
HETATM    3  C1  UNK     1      27.906  -6.492  31.205  1.00  0.00     0.008 C 
HETATM    4  C2  UNK     1      28.369  -7.946  31.029  1.00  0.00     0.164 C 
HETATM    5  C3  UNK     1      27.367  -6.312  32.633  1.00  0.00     0.063 C 
HETATM    6  C4  UNK     1      29.276  -7.739  33.444  1.00  0.00     0.025 C 
HETATM    7  C5  UNK     1      28.295  -6.846  33.694  1.00  0.00     0.020 C 
HETATM    8  C6  UNK     1      30.229  -8.194  34.547  1.00  0.00     0.104 C 
HETATM    9  C7  UNK     1      29.401  -8.334  32.075  1.00  0.00     0.172 C 
HETATM   10  C8  UNK     1      29.764  -7.750  35.937  1.00  0.00     0.052 C 
HETATM   11  C9  UNK     1      29.002  -5.461  30.894  1.00  0.00     0.011 C 
HETATM   12  C10 UNK     1      28.760  -6.855  36.093  1.00  0.00     0.018 C 
HETATM   13  C13 UNK     1      28.273  -6.312  37.410  1.00  0.00     0.069 C 
HETATM   14  H9  UNK     1      27.340  -5.712  35.127  1.00  0.00     0.165 HD
ENDROOT
BRANCH   8  15
HETATM   15  C11 UNK     1      31.626  -7.691  34.281  1.00  0.00     0.029 A 
HETATM   16  C15 UNK     1      32.718  -8.684  34.124  1.00  0.00     0.194 A 
HETATM   17  O7  UNK     1      32.520  -9.890  34.203  1.00  0.00    -0.287 OA
HETATM   18  C17 UNK     1      34.065  -8.140  33.868  1.00  0.00     0.048 A 
HETATM   19  C18 UNK     1      34.233  -6.757  33.788  1.00  0.00     0.089 A 
HETATM   20  C19 UNK     1      35.160  -8.993  33.705  1.00  0.00     0.018 A 
HETATM   21  O3  UNK     1      33.194  -5.874  33.938  1.00  0.00    -0.321 OA
HETATM   22  C22 UNK     1      35.498  -6.220  33.545  1.00  0.00     0.038 A 
HETATM   23  C16 UNK     1      31.947  -6.395  34.177  1.00  0.00     0.154 A 
HETATM   24  C25 UNK     1      36.592  -7.070  33.383  1.00  0.00     0.003 A 
HETATM   25  C23 UNK     1      36.423  -8.452  33.463  1.00  0.00     0.001 A 
ENDBRANCH   8  15
BRANCH  10  26
HETATM   26  C14 UNK     1      30.422  -8.385  37.090  1.00  0.00     0.292 C 
HETATM   27  O6  UNK     1      30.242  -9.546  37.407  1.00  0.00    -0.259 OA
BRANCH  26  28
HETATM   28  O5  UNK     1      31.219  -7.466  37.687  1.00  0.00    -0.318 OA
BRANCH  28  29
HETATM   29  C21 UNK     1      32.436  -7.984  38.235  1.00  0.00     0.178 C 
BRANCH  29  30
HETATM   30  C24 UNK     1      33.610  -7.380  37.480  1.00  0.00     0.022 C 
HETATM   31  C26 UNK     1      33.559  -5.863  37.476  1.00  0.00     0.007 C 
ENDBRANCH  29  30
ENDBRANCH  28  29
ENDBRANCH  26  28
ENDBRANCH  10  26
BRANCH   4  32
HETATM   32  C12 UNK     1      28.812  -8.195  29.620  1.00  0.00     0.270 C 
HETATM   33  O4  UNK     1      29.748  -7.616  29.084  1.00  0.00    -0.264 OA
BRANCH  32  34
HETATM   34  O2  UNK     1      28.017  -9.147  29.053  1.00  0.00    -0.326 OA
HETATM   35  C20 UNK     1      28.709 -10.209  28.389  1.00  0.00     0.213 C 
ENDBRANCH  32  34
ENDBRANCH   4  32
TORSDOF 7
ENDMDL
MODEL 7
REMARK VINA RESULT:      -7.5      2.311      6.479
REMARK  7 active torsions:
REMARK  status: ('A' for Active; 'I' for Inactive)
REMARK    1  A    between atoms: C12_20  and  O2_2 
REMARK    2  A    between atoms: C14_22  and  O5_5 
REMARK    3  A    between atoms: C21_29  and  O5_5 
REMARK    4  A    between atoms: C12_20  and  C2_10 
REMARK    5  A    between atoms: C11_19  and  C6_14 
REMARK    6  A    between atoms: C14_22  and  C8_16 
REMARK    7  A    between atoms: C21_29  and  C24_32 
ROOT
HETATM    1  O1  UNK     1      30.166  -6.809  31.970  1.00  0.00    -0.292 OA
HETATM    2  N1  UNK     1      34.051  -9.472  32.463  1.00  0.00    -0.362 N 
HETATM    3  C1  UNK     1      30.676 -10.252  30.952  1.00  0.00     0.008 C 
HETATM    4  C2  UNK     1      30.261  -8.807  30.639  1.00  0.00     0.164 C 
HETATM    5  C3  UNK     1      32.206 -10.314  31.079  1.00  0.00     0.063 C 
HETATM    6  C4  UNK     1      32.107  -8.124  32.319  1.00  0.00     0.025 C 
HETATM    7  C5  UNK     1      32.774  -9.250  31.983  1.00  0.00     0.020 C 
HETATM    8  C6  UNK     1      32.707  -7.113  33.292  1.00  0.00     0.104 C 
HETATM    9  C7  UNK     1      30.779  -7.838  31.688  1.00  0.00     0.172 C 
HETATM   10  C8  UNK     1      34.185  -7.391  33.583  1.00  0.00     0.052 C 
HETATM   11  C9  UNK     1      29.993 -10.824  32.205  1.00  0.00     0.011 C 
HETATM   12  C10 UNK     1      34.775  -8.546  33.196  1.00  0.00     0.018 C 
HETATM   13  C13 UNK     1      36.200  -8.937  33.486  1.00  0.00     0.069 C 
HETATM   14  H9  UNK     1      34.521 -10.325  32.183  1.00  0.00     0.165 HD
ENDROOT
BRANCH   8  15
HETATM   15  C11 UNK     1      31.921  -7.085  34.579  1.00  0.00     0.029 A 
HETATM   16  C15 UNK     1      31.595  -5.768  35.182  1.00  0.00     0.194 A 
HETATM   17  O7  UNK     1      31.943  -4.712  34.669  1.00  0.00    -0.287 OA
HETATM   18  C17 UNK     1      30.826  -5.797  36.441  1.00  0.00     0.048 A 
HETATM   19  C18 UNK     1      30.456  -7.029  36.980  1.00  0.00     0.089 A 
HETATM   20  C19 UNK     1      30.470  -4.610  37.086  1.00  0.00     0.018 A 
HETATM   21  O3  UNK     1      30.778  -8.225  36.388  1.00  0.00    -0.321 OA
HETATM   22  C22 UNK     1      29.728  -7.081  38.169  1.00  0.00     0.038 A 
HETATM   23  C16 UNK     1      31.494  -8.182  35.218  1.00  0.00     0.154 A 
HETATM   24  C25 UNK     1      29.372  -5.897  38.815  1.00  0.00     0.003 A 
HETATM   25  C23 UNK     1      29.742  -4.665  38.276  1.00  0.00     0.001 A 
ENDBRANCH   8  15
BRANCH  10  26
HETATM   26  C14 UNK     1      34.942  -6.319  34.250  1.00  0.00     0.292 C 
HETATM   27  O6  UNK     1      35.257  -5.280  33.700  1.00  0.00    -0.259 OA
BRANCH  26  28
HETATM   28  O5  UNK     1      35.199  -6.706  35.523  1.00  0.00    -0.318 OA
BRANCH  28  29
HETATM   29  C21 UNK     1      35.278  -5.641  36.476  1.00  0.00     0.178 C 
BRANCH  29  30
HETATM   30  C24 UNK     1      34.307  -5.925  37.611  1.00  0.00     0.022 C 
HETATM   31  C26 UNK     1      33.989  -7.405  37.726  1.00  0.00     0.007 C 
ENDBRANCH  29  30
ENDBRANCH  28  29
ENDBRANCH  26  28
ENDBRANCH  10  26
BRANCH   4  32
HETATM   32  C12 UNK     1      28.783  -8.717  30.409  1.00  0.00     0.270 C 
HETATM   33  O4  UNK     1      27.953  -8.662  31.306  1.00  0.00    -0.264 OA
BRANCH  32  34
HETATM   34  O2  UNK     1      28.529  -8.708  29.069  1.00  0.00    -0.326 OA
HETATM   35  C20 UNK     1      27.944  -9.905  28.547  1.00  0.00     0.213 C 
ENDBRANCH  32  34
ENDBRANCH   4  32
TORSDOF 7
ENDMDL
MODEL 8
REMARK VINA RESULT:      -7.4      1.946      2.731
REMARK  7 active torsions:
REMARK  status: ('A' for Active; 'I' for Inactive)
REMARK    1  A    between atoms: C12_20  and  O2_2 
REMARK    2  A    between atoms: C14_22  and  O5_5 
REMARK    3  A    between atoms: C21_29  and  O5_5 
REMARK    4  A    between atoms: C12_20  and  C2_10 
REMARK    5  A    between atoms: C11_19  and  C6_14 
REMARK    6  A    between atoms: C14_22  and  C8_16 
REMARK    7  A    between atoms: C21_29  and  C24_32 
ROOT
HETATM    1  O1  UNK     1      30.799 -10.127  35.665  1.00  0.00    -0.292 OA
HETATM    2  N1  UNK     1      34.305  -6.948  35.486  1.00  0.00    -0.362 N 
HETATM    3  C1  UNK     1      32.034  -7.989  38.322  1.00  0.00     0.008 C 
HETATM    4  C2  UNK     1      31.663  -9.377  37.778  1.00  0.00     0.164 C 
HETATM    5  C3  UNK     1      33.349  -7.535  37.670  1.00  0.00     0.063 C 
HETATM    6  C4  UNK     1      32.504  -8.488  35.498  1.00  0.00     0.025 C 
HETATM    7  C5  UNK     1      33.356  -7.684  36.170  1.00  0.00     0.020 C 
HETATM    8  C6  UNK     1      32.514  -8.547  33.972  1.00  0.00     0.104 C 
HETATM    9  C7  UNK     1      31.570  -9.376  36.262  1.00  0.00     0.172 C 
HETATM   10  C8  UNK     1      33.731  -7.840  33.370  1.00  0.00     0.052 C 
HETATM   11  C9  UNK     1      30.928  -6.941  38.122  1.00  0.00     0.011 C 
HETATM   12  C10 UNK     1      34.540  -7.060  34.125  1.00  0.00     0.018 C 
HETATM   13  C13 UNK     1      35.720  -6.278  33.616  1.00  0.00     0.069 C 
HETATM   14  H9  UNK     1      34.930  -6.361  36.027  1.00  0.00     0.165 HD
ENDROOT
BRANCH   8  15
HETATM   15  C11 UNK     1      31.242  -7.962  33.412  1.00  0.00     0.029 A 
HETATM   16  C15 UNK     1      30.477  -8.752  32.415  1.00  0.00     0.194 A 
HETATM   17  O7  UNK     1      30.844  -9.857  32.038  1.00  0.00    -0.287 OA
HETATM   18  C17 UNK     1      29.242  -8.132  31.897  1.00  0.00     0.048 A 
HETATM   19  C18 UNK     1      28.871  -6.871  32.362  1.00  0.00     0.089 A 
HETATM   20  C19 UNK     1      28.452  -8.796  30.956  1.00  0.00     0.018 A 
HETATM   21  O3  UNK     1      29.608  -6.174  33.286  1.00  0.00    -0.321 OA
HETATM   22  C22 UNK     1      27.707  -6.265  31.887  1.00  0.00     0.038 A 
HETATM   23  C16 UNK     1      30.755  -6.763  33.758  1.00  0.00     0.154 A 
HETATM   24  C25 UNK     1      26.917  -6.927  30.947  1.00  0.00     0.003 A 
HETATM   25  C23 UNK     1      27.288  -8.188  30.482  1.00  0.00     0.001 A 
ENDBRANCH   8  15
BRANCH  10  26
HETATM   26  C14 UNK     1      34.010  -8.096  31.948  1.00  0.00     0.292 C 
HETATM   27  O6  UNK     1      33.600  -7.387  31.047  1.00  0.00    -0.259 OA
BRANCH  26  28
HETATM   28  O5  UNK     1      34.770  -9.214  31.856  1.00  0.00    -0.318 OA
BRANCH  28  29
HETATM   29  C21 UNK     1      35.861  -9.132  30.933  1.00  0.00     0.178 C 
BRANCH  29  30
HETATM   30  C24 UNK     1      37.041  -9.909  31.498  1.00  0.00     0.022 C 
HETATM   31  C26 UNK     1      37.343  -9.514  32.932  1.00  0.00     0.007 C 
ENDBRANCH  29  30
ENDBRANCH  28  29
ENDBRANCH  26  28
ENDBRANCH  10  26
BRANCH   4  32
HETATM   32  C12 UNK     1      30.437  -9.903  38.459  1.00  0.00     0.270 C 
HETATM   33  O4  UNK     1      30.454 -10.744  39.348  1.00  0.00    -0.264 OA
BRANCH  32  34
HETATM   34  O2  UNK     1      29.330  -9.304  37.933  1.00  0.00    -0.326 OA
HETATM   35  C20 UNK     1      28.124  -9.474  38.685  1.00  0.00     0.213 C 
ENDBRANCH  32  34
ENDBRANCH   4  32
TORSDOF 7
ENDMDL
MODEL 9
REMARK VINA RESULT:      -7.4      2.196      3.167
REMARK  7 active torsions:
REMARK  status: ('A' for Active; 'I' for Inactive)
REMARK    1  A    between atoms: C12_20  and  O2_2 
REMARK    2  A    between atoms: C14_22  and  O5_5 
REMARK    3  A    between atoms: C21_29  and  O5_5 
REMARK    4  A    between atoms: C12_20  and  C2_10 
REMARK    5  A    between atoms: C11_19  and  C6_14 
REMARK    6  A    between atoms: C14_22  and  C8_16 
REMARK    7  A    between atoms: C21_29  and  C24_32 
ROOT
HETATM    1  O1  UNK     1      31.290  -6.892  36.017  1.00  0.00    -0.292 OA
HETATM    2  N1  UNK     1      35.348  -8.472  34.156  1.00  0.00    -0.362 N 
HETATM    3  C1  UNK     1      34.547  -5.297  36.044  1.00  0.00     0.008 C 
HETATM    4  C2  UNK     1      33.298  -5.812  36.775  1.00  0.00     0.164 C 
HETATM    5  C3  UNK     1      35.404  -6.499  35.616  1.00  0.00     0.063 C 
HETATM    6  C4  UNK     1      33.274  -7.690  34.994  1.00  0.00     0.025 C 
HETATM    7  C5  UNK     1      34.617  -7.574  34.910  1.00  0.00     0.020 C 
HETATM    8  C6  UNK     1      32.524  -8.758  34.202  1.00  0.00     0.104 C 
HETATM    9  C7  UNK     1      32.512  -6.789  35.917  1.00  0.00     0.172 C 
HETATM   10  C8  UNK     1      33.468  -9.789  33.577  1.00  0.00     0.052 C 
HETATM   11  C9  UNK     1      34.221  -4.396  34.842  1.00  0.00     0.011 C 
HETATM   12  C10 UNK     1      34.808  -9.594  33.549  1.00  0.00     0.018 C 
HETATM   13  C13 UNK     1      35.809 -10.515  32.907  1.00  0.00     0.069 C 
HETATM   14  H9  UNK     1      36.354  -8.355  34.124  1.00  0.00     0.165 HD
ENDROOT
BRANCH   8  15
HETATM   15  C11 UNK     1      31.667  -8.124  33.136  1.00  0.00     0.029 A 
HETATM   16  C15 UNK     1      30.209  -8.405  33.137  1.00  0.00     0.194 A 
HETATM   17  O7  UNK     1      29.686  -9.131  33.973  1.00  0.00    -0.287 OA
HETATM   18  C17 UNK     1      29.418  -7.761  32.072  1.00  0.00     0.048 A 
HETATM   19  C18 UNK     1      30.066  -6.944  31.146  1.00  0.00     0.089 A 
HETATM   20  C19 UNK     1      28.038  -7.964  31.988  1.00  0.00     0.018 A 
HETATM   21  O3  UNK     1      31.418  -6.709  31.182  1.00  0.00    -0.321 OA
HETATM   22  C22 UNK     1      29.337  -6.324  30.130  1.00  0.00     0.038 A 
HETATM   23  C16 UNK     1      32.141  -7.316  32.178  1.00  0.00     0.154 A 
HETATM   24  C25 UNK     1      27.960  -6.525  30.045  1.00  0.00     0.003 A 
HETATM   25  C23 UNK     1      27.312  -7.343  30.970  1.00  0.00     0.001 A 
ENDBRANCH   8  15
BRANCH  10  26
HETATM   26  C14 UNK     1      32.854 -11.023  33.061  1.00  0.00     0.292 C 
HETATM   27  O6  UNK     1      32.468 -11.928  33.778  1.00  0.00    -0.259 OA
BRANCH  26  28
HETATM   28  O5  UNK     1      32.811 -10.946  31.709  1.00  0.00    -0.318 OA
BRANCH  28  29
HETATM   29  C21 UNK     1      31.534 -11.230  31.127  1.00  0.00     0.178 C 
BRANCH  29  30
HETATM   30  C24 UNK     1      31.293 -10.261  29.979  1.00  0.00     0.022 C 
HETATM   31  C26 UNK     1      29.866 -10.336  29.467  1.00  0.00     0.007 C 
ENDBRANCH  29  30
ENDBRANCH  28  29
ENDBRANCH  26  28
ENDBRANCH  10  26
BRANCH   4  32
HETATM   32  C12 UNK     1      32.480  -4.671  37.296  1.00  0.00     0.270 C 
HETATM   33  O4  UNK     1      32.287  -3.629  36.683  1.00  0.00    -0.264 OA
BRANCH  32  34
HETATM   34  O2  UNK     1      32.003  -4.980  38.536  1.00  0.00    -0.326 OA
HETATM   35  C20 UNK     1      30.600  -4.769  38.724  1.00  0.00     0.213 C 
ENDBRANCH  32  34
ENDBRANCH   4  32
TORSDOF 7
ENDMDL
MODEL 10
REMARK VINA RESULT:      -7.3      2.136      5.659
REMARK  7 active torsions:
REMARK  status: ('A' for Active; 'I' for Inactive)
REMARK    1  A    between atoms: C12_20  and  O2_2 
REMARK    2  A    between atoms: C14_22  and  O5_5 
REMARK    3  A    between atoms: C21_29  and  O5_5 
REMARK    4  A    between atoms: C12_20  and  C2_10 
REMARK    5  A    between atoms: C11_19  and  C6_14 
REMARK    6  A    between atoms: C14_22  and  C8_16 
REMARK    7  A    between atoms: C21_29  and  C24_32 
ROOT
HETATM    1  O1  UNK     1      31.377  -5.484  34.429  1.00  0.00    -0.292 OA
HETATM    2  N1  UNK     1      30.872  -8.841  37.730  1.00  0.00    -0.362 N 
HETATM    3  C1  UNK     1      33.951  -7.499  35.998  1.00  0.00     0.008 C 
HETATM    4  C2  UNK     1      33.373  -6.134  35.597  1.00  0.00     0.164 C 
HETATM    5  C3  UNK     1      33.131  -8.062  37.170  1.00  0.00     0.063 C 
HETATM    6  C4  UNK     1      31.059  -7.214  36.018  1.00  0.00     0.025 C 
HETATM    7  C5  UNK     1      31.643  -8.014  36.936  1.00  0.00     0.020 C 
HETATM    8  C6  UNK     1      29.551  -7.257  35.780  1.00  0.00     0.104 C 
HETATM    9  C7  UNK     1      31.895  -6.231  35.257  1.00  0.00     0.172 C 
HETATM   10  C8  UNK     1      28.815  -8.063  36.853  1.00  0.00     0.052 C 
HETATM   11  C9  UNK     1      34.010  -8.501  34.834  1.00  0.00     0.011 C 
HETATM   12  C10 UNK     1      29.486  -8.831  37.743  1.00  0.00     0.018 C 
HETATM   13  C13 UNK     1      28.853  -9.705  38.793  1.00  0.00     0.069 C 
HETATM   14  H9  UNK     1      31.347  -9.422  38.412  1.00  0.00     0.165 HD
ENDROOT
BRANCH   8  15
HETATM   15  C11 UNK     1      29.247  -7.814  34.411  1.00  0.00     0.029 A 
HETATM   16  C15 UNK     1      28.343  -7.046  33.518  1.00  0.00     0.194 A 
HETATM   17  O7  UNK     1      27.841  -5.982  33.858  1.00  0.00    -0.287 OA
HETATM   18  C17 UNK     1      28.077  -7.636  32.192  1.00  0.00     0.048 A 
HETATM   19  C18 UNK     1      28.676  -8.851  31.859  1.00  0.00     0.089 A 
HETATM   20  C19 UNK     1      27.240  -6.990  31.280  1.00  0.00     0.018 A 
HETATM   21  O3  UNK     1      29.508  -9.527  32.715  1.00  0.00    -0.321 OA
HETATM   22  C22 UNK     1      28.440  -9.427  30.610  1.00  0.00     0.038 A 
HETATM   23  C16 UNK     1      29.745  -8.967  33.946  1.00  0.00     0.154 A 
HETATM   24  C25 UNK     1      27.603  -8.784  29.698  1.00  0.00     0.003 A 
HETATM   25  C23 UNK     1      27.005  -7.569  30.032  1.00  0.00     0.001 A 
ENDBRANCH   8  15
BRANCH  10  26
HETATM   26  C14 UNK     1      27.351  -7.917  36.905  1.00  0.00     0.292 C 
HETATM   27  O6  UNK     1      26.580  -8.832  36.687  1.00  0.00    -0.259 OA
BRANCH  26  28
HETATM   28  O5  UNK     1      27.061  -6.633  37.225  1.00  0.00    -0.318 OA
BRANCH  28  29
HETATM   29  C21 UNK     1      27.348  -6.266  38.579  1.00  0.00     0.178 C 
BRANCH  29  30
HETATM   30  C24 UNK     1      28.134  -4.964  38.579  1.00  0.00     0.022 C 
HETATM   31  C26 UNK     1      29.586  -5.180  38.964  1.00  0.00     0.007 C 
ENDBRANCH  29  30
ENDBRANCH  28  29
ENDBRANCH  26  28
ENDBRANCH  10  26
BRANCH   4  32
HETATM   32  C12 UNK     1      34.201  -5.502  34.521  1.00  0.00     0.270 C 
HETATM   33  O4  UNK     1      34.340  -5.971  33.399  1.00  0.00    -0.264 OA
BRANCH  32  34
HETATM   34  O2  UNK     1      34.759  -4.349  34.992  1.00  0.00    -0.326 OA
HETATM   35  C20 UNK     1      33.852  -3.442  35.626  1.00  0.00     0.213 C 
ENDBRANCH  32  34
ENDBRANCH   4  32
TORSDOF 7
ENDMDL
