MODEL 1
REMARK VINA RESULT:      -8.6      0.000      0.000
REMARK  6 active torsions:
REMARK  status: ('A' for Active; 'I' for Inactive)
REMARK    1  A    between atoms: C12_21  and  O3_3 
REMARK    2  A    between atoms: C20_29  and  O3_3 
REMARK    3  A    between atoms: C15_24  and  O5_5 
REMARK    4  A    between atoms: C7_16  and  N1_7 
REMARK       I    between atoms: C22_31  and  N3_9 
REMARK    5  A    between atoms: C1_10  and  C3_12 
REMARK    6  A    between atoms: C20_29  and  C22_31 
ROOT
HETATM    1  O1  UNK     1      30.855 -10.760  33.179  1.00  0.00    -0.291 OA
HETATM    2  O2  UNK     1      28.206  -8.004  31.478  1.00  0.00    -0.274 OA
HETATM    3  O4  UNK     1      28.044  -6.921  33.478  1.00  0.00    -0.259 OA
HETATM    4  N2  UNK     1      31.190  -9.938  37.915  1.00  0.00    -0.191 NA
HETATM    5  C1  UNK     1      29.935  -8.607  34.842  1.00  0.00     0.109 C 
HETATM    6  C2  UNK     1      29.512  -8.789  33.397  1.00  0.00     0.066 A 
HETATM    7  C4  UNK     1      29.988  -9.811  32.669  1.00  0.00     0.104 A 
HETATM    8  C5  UNK     1      30.716  -9.807  35.370  1.00  0.00     0.086 C 
HETATM    9  C6  UNK     1      29.611  -9.979  31.268  1.00  0.00     0.033 A 
HETATM   10  C7  UNK     1      31.137 -10.794  34.544  1.00  0.00     0.159 C 
HETATM   11  C8  UNK     1      28.537  -7.829  32.818  1.00  0.00     0.298 A 
HETATM   12  C10 UNK     1      28.728  -9.060  30.708  1.00  0.00     0.092 A 
HETATM   13  C13 UNK     1      30.093 -11.012  30.454  1.00  0.00     0.017 A 
HETATM   14  C16 UNK     1      28.320  -9.141  29.377  1.00  0.00     0.038 A 
HETATM   15  C17 UNK     1      30.978  -9.880  36.776  1.00  0.00     0.100 C 
HETATM   16  C18 UNK     1      29.692 -11.107  29.118  1.00  0.00     0.001 A 
HETATM   17  C19 UNK     1      28.807 -10.173  28.580  1.00  0.00     0.003 A 
ENDROOT
BRANCH   5  18
HETATM   18  C3  UNK     1      30.747  -7.355  35.000  1.00  0.00    -0.041 A 
HETATM   19  C11 UNK     1      31.846  -7.140  34.176  1.00  0.00     0.011 A 
HETATM   20  C14 UNK     1      32.601  -5.976  34.323  1.00  0.00     0.040 A 
HETATM   21  C15 UNK     1      32.252  -5.036  35.293  1.00  0.00     0.101 A 
HETATM   22  C12 UNK     1      31.148  -5.259  36.115  1.00  0.00     0.103 A 
HETATM   23  C9  UNK     1      30.393  -6.423  35.969  1.00  0.00     0.047 A 
BRANCH  21  24
HETATM   24  O5  UNK     1      32.998  -3.904  35.428  1.00  0.00    -0.353 OA
HETATM   25  C21 UNK     1      34.303  -3.916  34.855  1.00  0.00     0.210 C 
ENDBRANCH  21  24
BRANCH  22  26
HETATM   26  O3  UNK     1      30.798  -4.349  37.066  1.00  0.00    -0.339 OA
BRANCH  26  27
HETATM   27  C20 UNK     1      30.732  -4.812  38.414  1.00  0.00     0.278 C 
BRANCH  27  28
HETATM   28  C22 UNK     1      29.494  -4.257  39.078  1.00  0.00     0.239 C 
HETATM   29  O6  UNK     1      29.515  -3.604  40.118  1.00  0.00    -0.271 OA
HETATM   30  N3  UNK     1      28.343  -4.565  38.384  1.00  0.00    -0.368 N 
HETATM   31  H16 UNK     1      27.436  -4.254  38.716  1.00  0.00     0.159 HD
HETATM   32  H17 UNK     1      28.356  -5.105  37.526  1.00  0.00     0.159 HD
ENDBRANCH  27  28
ENDBRANCH  26  27
ENDBRANCH  22  26
ENDBRANCH   5  18
BRANCH  10  33
HETATM   33  N1  UNK     1      31.853 -11.893  34.930  1.00  0.00    -0.379 N 
HETATM   34  H8  UNK     1      32.669 -12.157  34.392  1.00  0.00     0.158 HD
HETATM   35  H9  UNK     1      31.579 -12.436  35.739  1.00  0.00     0.158 HD
ENDBRANCH  10  33
TORSDOF 6
ENDMDL
MODEL 2
REMARK VINA RESULT:      -8.2      4.456      6.810
REMARK  6 active torsions:
REMARK  status: ('A' for Active; 'I' for Inactive)
REMARK    1  A    between atoms: C12_21  and  O3_3 
REMARK    2  A    between atoms: C20_29  and  O3_3 
REMARK    3  A    between atoms: C15_24  and  O5_5 
REMARK    4  A    between atoms: C7_16  and  N1_7 
REMARK       I    between atoms: C22_31  and  N3_9 
REMARK    5  A    between atoms: C1_10  and  C3_12 
REMARK    6  A    between atoms: C20_29  and  C22_31 
ROOT
HETATM    1  O1  UNK     1      25.547  -9.306  38.558  1.00  0.00    -0.291 OA
HETATM    2  O2  UNK     1      24.900  -5.188  38.904  1.00  0.00    -0.274 OA
HETATM    3  O4  UNK     1      27.152  -4.834  38.947  1.00  0.00    -0.259 OA
HETATM    4  N2  UNK     1      30.258 -10.223  38.973  1.00  0.00    -0.191 NA
HETATM    5  C1  UNK     1      27.857  -7.602  38.590  1.00  0.00     0.109 C 
HETATM    6  C2  UNK     1      26.434  -7.086  38.690  1.00  0.00     0.066 A 
HETATM    7  C4  UNK     1      25.395  -7.935  38.658  1.00  0.00     0.104 A 
HETATM    8  C5  UNK     1      27.928  -9.122  38.694  1.00  0.00     0.086 C 
HETATM    9  C6  UNK     1      24.020  -7.448  38.724  1.00  0.00     0.033 A 
HETATM   10  C7  UNK     1      26.810  -9.885  38.666  1.00  0.00     0.159 C 
HETATM   11  C8  UNK     1      26.219  -5.625  38.856  1.00  0.00     0.298 A 
HETATM   12  C10 UNK     1      23.811  -6.077  38.841  1.00  0.00     0.092 A 
HETATM   13  C13 UNK     1      22.898  -8.285  38.673  1.00  0.00     0.017 A 
HETATM   14  C16 UNK     1      22.532  -5.525  38.905  1.00  0.00     0.038 A 
HETATM   15  C17 UNK     1      29.215  -9.730  38.849  1.00  0.00     0.100 C 
HETATM   16  C18 UNK     1      21.609  -7.747  38.737  1.00  0.00     0.001 A 
HETATM   17  C19 UNK     1      21.427  -6.368  38.853  1.00  0.00     0.003 A 
ENDROOT
BRANCH   5  18
HETATM   18  C3  UNK     1      28.493  -7.144  37.310  1.00  0.00    -0.041 A 
HETATM   19  C11 UNK     1      27.847  -7.372  36.101  1.00  0.00     0.011 A 
HETATM   20  C14 UNK     1      28.438  -6.947  34.911  1.00  0.00     0.040 A 
HETATM   21  C15 UNK     1      29.672  -6.297  34.939  1.00  0.00     0.101 A 
HETATM   22  C12 UNK     1      30.314  -6.072  36.156  1.00  0.00     0.103 A 
HETATM   23  C9  UNK     1      29.724  -6.497  37.346  1.00  0.00     0.047 A 
BRANCH  21  24
HETATM   24  O5  UNK     1      30.241  -5.888  33.770  1.00  0.00    -0.353 OA
HETATM   25  C21 UNK     1      29.369  -5.691  32.660  1.00  0.00     0.210 C 
ENDBRANCH  21  24
BRANCH  22  26
HETATM   26  O3  UNK     1      31.520  -5.439  36.196  1.00  0.00    -0.339 OA
BRANCH  26  27
HETATM   27  C20 UNK     1      32.675  -6.256  36.377  1.00  0.00     0.278 C 
BRANCH  27  28
HETATM   28  C22 UNK     1      33.274  -5.989  37.738  1.00  0.00     0.239 C 
HETATM   29  O6  UNK     1      32.831  -5.155  38.524  1.00  0.00    -0.271 OA
HETATM   30  N3  UNK     1      34.368  -6.787  37.996  1.00  0.00    -0.368 N 
HETATM   31  H16 UNK     1      34.869  -6.715  38.875  1.00  0.00     0.159 HD
HETATM   32  H17 UNK     1      34.710  -7.469  37.329  1.00  0.00     0.159 HD
ENDBRANCH  27  28
ENDBRANCH  26  27
ENDBRANCH  22  26
ENDBRANCH   5  18
BRANCH  10  33
HETATM   33  N1  UNK     1      26.785 -11.250  38.739  1.00  0.00    -0.379 N 
HETATM   34  H8  UNK     1      25.891 -11.724  38.711  1.00  0.00     0.158 HD
HETATM   35  H9  UNK     1      27.642 -11.783  38.819  1.00  0.00     0.158 HD
ENDBRANCH  10  33
TORSDOF 6
ENDMDL
MODEL 3
REMARK VINA RESULT:      -8.2      3.477      6.800
REMARK  6 active torsions:
REMARK  status: ('A' for Active; 'I' for Inactive)
REMARK    1  A    between atoms: C12_21  and  O3_3 
REMARK    2  A    between atoms: C20_29  and  O3_3 
REMARK    3  A    between atoms: C15_24  and  O5_5 
REMARK    4  A    between atoms: C7_16  and  N1_7 
REMARK       I    between atoms: C22_31  and  N3_9 
REMARK    5  A    between atoms: C1_10  and  C3_12 
REMARK    6  A    between atoms: C20_29  and  C22_31 
ROOT
HETATM    1  O1  UNK     1      32.269  -4.506  36.071  1.00  0.00    -0.291 OA
HETATM    2  O2  UNK     1      33.460  -8.514  36.209  1.00  0.00    -0.274 OA
HETATM    3  O4  UNK     1      32.058  -8.874  37.970  1.00  0.00    -0.259 OA
HETATM    4  N2  UNK     1      29.371  -3.574  39.805  1.00  0.00    -0.191 NA
HETATM    5  C1  UNK     1      30.987  -6.203  38.000  1.00  0.00     0.109 C 
HETATM    6  C2  UNK     1      32.059  -6.685  37.042  1.00  0.00     0.066 A 
HETATM    7  C4  UNK     1      32.613  -5.843  36.156  1.00  0.00     0.104 A 
HETATM    8  C5  UNK     1      30.830  -4.685  37.974  1.00  0.00     0.086 C 
HETATM    9  C6  UNK     1      33.625  -6.302  35.209  1.00  0.00     0.033 A 
HETATM   10  C7  UNK     1      31.448  -3.928  37.038  1.00  0.00     0.159 C 
HETATM   11  C8  UNK     1      32.505  -8.100  37.130  1.00  0.00     0.298 A 
HETATM   12  C10 UNK     1      34.019  -7.637  35.260  1.00  0.00     0.092 A 
HETATM   13  C13 UNK     1      34.220  -5.475  34.248  1.00  0.00     0.017 A 
HETATM   14  C16 UNK     1      34.974  -8.161  34.391  1.00  0.00     0.038 A 
HETATM   15  C17 UNK     1      30.024  -4.071  38.986  1.00  0.00     0.100 C 
HETATM   16  C18 UNK     1      35.180  -5.986  33.369  1.00  0.00     0.001 A 
HETATM   17  C19 UNK     1      35.557  -7.328  33.441  1.00  0.00     0.003 A 
ENDROOT
BRANCH   5  18
HETATM   18  C3  UNK     1      29.673  -6.861  37.693  1.00  0.00    -0.041 A 
HETATM   19  C11 UNK     1      29.005  -7.560  38.691  1.00  0.00     0.011 A 
HETATM   20  C14 UNK     1      27.784  -8.172  38.406  1.00  0.00     0.040 A 
HETATM   21  C15 UNK     1      27.241  -8.081  37.124  1.00  0.00     0.101 A 
HETATM   22  C12 UNK     1      27.918  -7.378  36.128  1.00  0.00     0.103 A 
HETATM   23  C9  UNK     1      29.139  -6.766  36.413  1.00  0.00     0.047 A 
BRANCH  21  24
HETATM   24  O5  UNK     1      26.049  -8.684  36.857  1.00  0.00    -0.353 OA
HETATM   25  C21 UNK     1      26.055 -10.103  36.725  1.00  0.00     0.210 C 
ENDBRANCH  21  24
BRANCH  22  26
HETATM   26  O3  UNK     1      27.398  -7.282  34.873  1.00  0.00    -0.339 OA
BRANCH  26  27
HETATM   27  C20 UNK     1      28.298  -7.470  33.783  1.00  0.00     0.278 C 
BRANCH  27  28
HETATM   28  C22 UNK     1      28.057  -6.405  32.739  1.00  0.00     0.239 C 
HETATM   29  O6  UNK     1      27.153  -6.459  31.909  1.00  0.00    -0.271 OA
HETATM   30  N3  UNK     1      28.962  -5.370  32.826  1.00  0.00    -0.368 N 
HETATM   31  H16 UNK     1      28.918  -4.583  32.187  1.00  0.00     0.159 HD
HETATM   32  H17 UNK     1      29.698  -5.351  33.524  1.00  0.00     0.159 HD
ENDBRANCH  27  28
ENDBRANCH  26  27
ENDBRANCH  22  26
ENDBRANCH   5  18
BRANCH  10  33
HETATM   33  N1  UNK     1      31.350  -2.568  36.934  1.00  0.00    -0.379 N 
HETATM   34  H8  UNK     1      32.017  -1.992  37.432  1.00  0.00     0.158 HD
HETATM   35  H9  UNK     1      30.627  -2.139  36.370  1.00  0.00     0.158 HD
ENDBRANCH  10  33
TORSDOF 6
ENDMDL
MODEL 4
REMARK VINA RESULT:      -8.1      3.291      7.325
REMARK  6 active torsions:
REMARK  status: ('A' for Active; 'I' for Inactive)
REMARK    1  A    between atoms: C12_21  and  O3_3 
REMARK    2  A    between atoms: C20_29  and  O3_3 
REMARK    3  A    between atoms: C15_24  and  O5_5 
REMARK    4  A    between atoms: C7_16  and  N1_7 
REMARK       I    between atoms: C22_31  and  N3_9 
REMARK    5  A    between atoms: C1_10  and  C3_12 
REMARK    6  A    between atoms: C20_29  and  C22_31 
ROOT
HETATM    1  O1  UNK     1      31.038  -8.798  36.460  1.00  0.00    -0.291 OA
HETATM    2  O2  UNK     1      31.294  -4.644  36.034  1.00  0.00    -0.274 OA
HETATM    3  O4  UNK     1      32.679  -4.910  34.243  1.00  0.00    -0.259 OA
HETATM    4  N2  UNK     1      34.055 -10.910  33.354  1.00  0.00    -0.191 NA
HETATM    5  C1  UNK     1      32.565  -7.785  34.250  1.00  0.00     0.109 C 
HETATM    6  C2  UNK     1      31.857  -6.898  35.255  1.00  0.00     0.066 A 
HETATM    7  C4  UNK     1      31.149  -7.433  36.261  1.00  0.00     0.104 A 
HETATM    8  C5  UNK     1      32.560  -9.252  34.671  1.00  0.00     0.086 C 
HETATM    9  C6  UNK     1      30.438  -6.590  37.217  1.00  0.00     0.033 A 
HETATM   10  C7  UNK     1      31.815  -9.683  35.716  1.00  0.00     0.159 C 
HETATM   11  C8  UNK     1      31.991  -5.424  35.118  1.00  0.00     0.298 A 
HETATM   12  C10 UNK     1      30.528  -5.208  37.071  1.00  0.00     0.092 A 
HETATM   13  C13 UNK     1      29.666  -7.093  38.272  1.00  0.00     0.017 A 
HETATM   14  C16 UNK     1      29.878  -4.328  37.935  1.00  0.00     0.038 A 
HETATM   15  C17 UNK     1      33.386 -10.168  33.944  1.00  0.00     0.100 C 
HETATM   16  C18 UNK     1      29.008  -6.223  39.147  1.00  0.00     0.001 A 
HETATM   17  C19 UNK     1      29.114  -4.842  38.979  1.00  0.00     0.003 A 
ENDROOT
BRANCH   5  18
HETATM   18  C3  UNK     1      31.947  -7.639  32.890  1.00  0.00    -0.041 A 
HETATM   19  C11 UNK     1      30.575  -7.801  32.738  1.00  0.00     0.011 A 
HETATM   20  C14 UNK     1      30.000  -7.665  31.474  1.00  0.00     0.040 A 
HETATM   21  C15 UNK     1      30.802  -7.368  30.371  1.00  0.00     0.101 A 
HETATM   22  C12 UNK     1      32.177  -7.206  30.533  1.00  0.00     0.103 A 
HETATM   23  C9  UNK     1      32.752  -7.343  31.796  1.00  0.00     0.047 A 
BRANCH  21  24
HETATM   24  O5  UNK     1      30.229  -7.239  29.142  1.00  0.00    -0.353 OA
HETATM   25  C21 UNK     1      29.692  -8.419  28.550  1.00  0.00     0.210 C 
ENDBRANCH  21  24
BRANCH  22  26
HETATM   26  O3  UNK     1      32.970  -6.916  29.464  1.00  0.00    -0.339 OA
BRANCH  26  27
HETATM   27  C20 UNK     1      33.853  -7.943  29.015  1.00  0.00     0.278 C 
BRANCH  27  28
HETATM   28  C22 UNK     1      35.237  -7.369  28.820  1.00  0.00     0.239 C 
HETATM   29  O6  UNK     1      36.041  -7.796  27.996  1.00  0.00    -0.271 OA
HETATM   30  N3  UNK     1      35.491  -6.313  29.669  1.00  0.00    -0.368 N 
HETATM   31  H16 UNK     1      36.383  -5.829  29.647  1.00  0.00     0.159 HD
HETATM   32  H17 UNK     1      34.807  -5.979  30.339  1.00  0.00     0.159 HD
ENDBRANCH  27  28
ENDBRANCH  26  27
ENDBRANCH  22  26
ENDBRANCH   5  18
BRANCH  10  33
HETATM   33  N1  UNK     1      31.742 -10.978  36.149  1.00  0.00    -0.379 N 
HETATM   34  H8  UNK     1      31.274 -11.173  37.026  1.00  0.00     0.158 HD
HETATM   35  H9  UNK     1      32.144 -11.733  35.608  1.00  0.00     0.158 HD
ENDBRANCH  10  33
TORSDOF 6
ENDMDL
MODEL 5
REMARK VINA RESULT:      -8.0      3.090      4.983
REMARK  6 active torsions:
REMARK  status: ('A' for Active; 'I' for Inactive)
REMARK    1  A    between atoms: C12_21  and  O3_3 
REMARK    2  A    between atoms: C20_29  and  O3_3 
REMARK    3  A    between atoms: C15_24  and  O5_5 
REMARK    4  A    between atoms: C7_16  and  N1_7 
REMARK       I    between atoms: C22_31  and  N3_9 
REMARK    5  A    between atoms: C1_10  and  C3_12 
REMARK    6  A    between atoms: C20_29  and  C22_31 
ROOT
HETATM    1  O1  UNK     1      29.150 -10.402  32.103  1.00  0.00    -0.291 OA
HETATM    2  O2  UNK     1      31.958 -11.531  34.992  1.00  0.00    -0.274 OA
HETATM    3  O4  UNK     1      31.703  -9.519  36.032  1.00  0.00    -0.259 OA
HETATM    4  N2  UNK     1      27.908  -5.800  32.799  1.00  0.00    -0.191 NA
HETATM    5  C1  UNK     1      29.659  -8.560  34.246  1.00  0.00     0.109 C 
HETATM    6  C2  UNK     1      30.350  -9.904  34.115  1.00  0.00     0.066 A 
HETATM    7  C4  UNK     1      30.060 -10.725  33.094  1.00  0.00     0.104 A 
HETATM    8  C5  UNK     1      28.841  -8.209  33.007  1.00  0.00     0.086 C 
HETATM    9  C6  UNK     1      30.697 -12.034  32.973  1.00  0.00     0.033 A 
HETATM   10  C7  UNK     1      28.621  -9.115  32.026  1.00  0.00     0.159 C 
HETATM   11  C8  UNK     1      31.377 -10.275  35.123  1.00  0.00     0.298 A 
HETATM   12  C10 UNK     1      31.631 -12.404  33.937  1.00  0.00     0.092 A 
HETATM   13  C13 UNK     1      30.416 -12.941  31.944  1.00  0.00     0.017 A 
HETATM   14  C16 UNK     1      32.283 -13.636  33.902  1.00  0.00     0.038 A 
HETATM   15  C17 UNK     1      28.326  -6.878  32.892  1.00  0.00     0.100 C 
HETATM   16  C18 UNK     1      31.062 -14.180  31.895  1.00  0.00     0.001 A 
HETATM   17  C19 UNK     1      31.995 -14.526  32.873  1.00  0.00     0.003 A 
ENDROOT
BRANCH   5  18
HETATM   18  C3  UNK     1      28.783  -8.536  35.464  1.00  0.00    -0.041 A 
HETATM   19  C11 UNK     1      27.829  -9.531  35.645  1.00  0.00     0.011 A 
HETATM   20  C14 UNK     1      27.014  -9.509  36.777  1.00  0.00     0.040 A 
HETATM   21  C15 UNK     1      27.159  -8.491  37.720  1.00  0.00     0.101 A 
HETATM   22  C12 UNK     1      28.118  -7.497  37.532  1.00  0.00     0.103 A 
HETATM   23  C9  UNK     1      28.933  -7.519  36.400  1.00  0.00     0.047 A 
BRANCH  21  24
HETATM   24  O5  UNK     1      26.356  -8.479  38.821  1.00  0.00    -0.353 OA
HETATM   25  C21 UNK     1      25.019  -8.017  38.644  1.00  0.00     0.210 C 
ENDBRANCH  21  24
BRANCH  22  26
HETATM   26  O3  UNK     1      28.268  -6.498  38.446  1.00  0.00    -0.339 OA
BRANCH  26  27
HETATM   27  C20 UNK     1      29.598  -6.052  38.706  1.00  0.00     0.278 C 
BRANCH  27  28
HETATM   28  C22 UNK     1      29.617  -4.544  38.793  1.00  0.00     0.239 C 
HETATM   29  O6  UNK     1      29.465  -3.921  39.840  1.00  0.00    -0.271 OA
HETATM   30  N3  UNK     1      29.826  -3.950  37.567  1.00  0.00    -0.368 N 
HETATM   31  H16 UNK     1      29.863  -2.940  37.477  1.00  0.00     0.159 HD
HETATM   32  H17 UNK     1      29.950  -4.490  36.717  1.00  0.00     0.159 HD
ENDBRANCH  27  28
ENDBRANCH  26  27
ENDBRANCH  22  26
ENDBRANCH   5  18
BRANCH  10  33
HETATM   33  N1  UNK     1      27.890  -8.888  30.893  1.00  0.00    -0.379 N 
HETATM   34  H8  UNK     1      27.284  -9.622  30.549  1.00  0.00     0.158 HD
HETATM   35  H9  UNK     1      27.948  -8.004  30.404  1.00  0.00     0.158 HD
ENDBRANCH  10  33
TORSDOF 6
ENDMDL
MODEL 6
REMARK VINA RESULT:      -8.0      2.708      4.501
REMARK  6 active torsions:
REMARK  status: ('A' for Active; 'I' for Inactive)
REMARK    1  A    between atoms: C12_21  and  O3_3 
REMARK    2  A    between atoms: C20_29  and  O3_3 
REMARK    3  A    between atoms: C15_24  and  O5_5 
REMARK    4  A    between atoms: C7_16  and  N1_7 
REMARK       I    between atoms: C22_31  and  N3_9 
REMARK    5  A    between atoms: C1_10  and  C3_12 
REMARK    6  A    between atoms: C20_29  and  C22_31 
ROOT
HETATM    1  O1  UNK     1      30.313  -5.846  33.532  1.00  0.00    -0.291 OA
HETATM    2  O2  UNK     1      28.938  -9.608  32.324  1.00  0.00    -0.274 OA
HETATM    3  O4  UNK     1      30.233 -10.597  33.918  1.00  0.00    -0.259 OA
HETATM    4  N2  UNK     1      33.759  -6.397  36.853  1.00  0.00    -0.191 NA
HETATM    5  C1  UNK     1      31.230  -8.129  35.012  1.00  0.00     0.109 C 
HETATM    6  C2  UNK     1      30.283  -8.222  33.831  1.00  0.00     0.066 A 
HETATM    7  C4  UNK     1      29.883  -7.115  33.187  1.00  0.00     0.104 A 
HETATM    8  C5  UNK     1      31.806  -6.726  35.180  1.00  0.00     0.086 C 
HETATM    9  C6  UNK     1      28.949  -7.189  32.066  1.00  0.00     0.033 A 
HETATM   10  C7  UNK     1      31.334  -5.679  34.465  1.00  0.00     0.159 C 
HETATM   11  C8  UNK     1      29.837  -9.567  33.384  1.00  0.00     0.298 A 
HETATM   12  C10 UNK     1      28.496  -8.444  31.668  1.00  0.00     0.092 A 
HETATM   13  C13 UNK     1      28.479  -6.067  31.373  1.00  0.00     0.017 A 
HETATM   14  C16 UNK     1      27.599  -8.607  30.613  1.00  0.00     0.038 A 
HETATM   15  C17 UNK     1      32.885  -6.545  36.104  1.00  0.00     0.100 C 
HETATM   16  C18 UNK     1      27.581  -6.214  30.312  1.00  0.00     0.001 A 
HETATM   17  C19 UNK     1      27.141  -7.483  29.932  1.00  0.00     0.003 A 
ENDROOT
BRANCH   5  18
HETATM   18  C3  UNK     1      30.539  -8.556  36.274  1.00  0.00    -0.041 A 
HETATM   19  C11 UNK     1      31.049  -9.617  37.012  1.00  0.00     0.011 A 
HETATM   20  C14 UNK     1      30.407 -10.014  38.185  1.00  0.00     0.040 A 
HETATM   21  C15 UNK     1      29.258  -9.346  38.612  1.00  0.00     0.101 A 
HETATM   22  C12 UNK     1      28.753  -8.282  37.866  1.00  0.00     0.103 A 
HETATM   23  C9  UNK     1      29.395  -7.885  36.692  1.00  0.00     0.047 A 
BRANCH  21  24
HETATM   24  O5  UNK     1      28.639  -9.744  39.758  1.00  0.00    -0.353 OA
HETATM   25  C21 UNK     1      27.401 -10.436  39.620  1.00  0.00     0.210 C 
ENDBRANCH  21  24
BRANCH  22  26
HETATM   26  O3  UNK     1      27.632  -7.623  38.272  1.00  0.00    -0.339 OA
BRANCH  26  27
HETATM   27  C20 UNK     1      27.801  -6.600  39.251  1.00  0.00     0.278 C 
BRANCH  27  28
HETATM   28  C22 UNK     1      27.322  -5.281  38.692  1.00  0.00     0.239 C 
HETATM   29  O6  UNK     1      26.144  -4.936  38.679  1.00  0.00    -0.271 OA
HETATM   30  N3  UNK     1      28.356  -4.513  38.202  1.00  0.00    -0.368 N 
HETATM   31  H16 UNK     1      28.180  -3.599  37.796  1.00  0.00     0.159 HD
HETATM   32  H17 UNK     1      29.322  -4.823  38.228  1.00  0.00     0.159 HD
ENDBRANCH  27  28
ENDBRANCH  26  27
ENDBRANCH  22  26
ENDBRANCH   5  18
BRANCH  10  33
HETATM   33  N1  UNK     1      31.782  -4.391  34.564  1.00  0.00    -0.379 N 
HETATM   34  H8  UNK     1      31.106  -3.638  34.566  1.00  0.00     0.158 HD
HETATM   35  H9  UNK     1      32.771  -4.187  34.637  1.00  0.00     0.158 HD
ENDBRANCH  10  33
TORSDOF 6
ENDMDL
MODEL 7
REMARK VINA RESULT:      -8.0      3.793      8.110
REMARK  6 active torsions:
REMARK  status: ('A' for Active; 'I' for Inactive)
REMARK    1  A    between atoms: C12_21  and  O3_3 
REMARK    2  A    between atoms: C20_29  and  O3_3 
REMARK    3  A    between atoms: C15_24  and  O5_5 
REMARK    4  A    between atoms: C7_16  and  N1_7 
REMARK       I    between atoms: C22_31  and  N3_9 
REMARK    5  A    between atoms: C1_10  and  C3_12 
REMARK    6  A    between atoms: C20_29  and  C22_31 
ROOT
HETATM    1  O1  UNK     1      34.635  -6.761  33.535  1.00  0.00    -0.291 OA
HETATM    2  O2  UNK     1      30.511  -6.227  33.987  1.00  0.00    -0.274 OA
HETATM    3  O4  UNK     1      30.194  -6.800  31.803  1.00  0.00    -0.259 OA
HETATM    4  N2  UNK     1      35.630  -7.657  28.907  1.00  0.00    -0.191 NA
HETATM    5  C1  UNK     1      32.968  -7.353  31.274  1.00  0.00     0.109 C 
HETATM    6  C2  UNK     1      32.431  -6.863  32.605  1.00  0.00     0.066 A 
HETATM    7  C4  UNK     1      33.263  -6.614  33.628  1.00  0.00     0.104 A 
HETATM    8  C5  UNK     1      34.490  -7.280  31.204  1.00  0.00     0.086 C 
HETATM    9  C6  UNK     1      32.755  -6.171  34.924  1.00  0.00     0.033 A 
HETATM   10  C7  UNK     1      35.235  -7.006  32.301  1.00  0.00     0.159 C 
HETATM   11  C8  UNK     1      30.969  -6.636  32.739  1.00  0.00     0.298 A 
HETATM   12  C10 UNK     1      31.382  -5.994  35.068  1.00  0.00     0.092 A 
HETATM   13  C13 UNK     1      33.573  -5.919  36.032  1.00  0.00     0.017 A 
HETATM   14  C16 UNK     1      30.811  -5.579  36.270  1.00  0.00     0.038 A 
HETATM   15  C17 UNK     1      35.120  -7.488  29.935  1.00  0.00     0.100 C 
HETATM   16  C18 UNK     1      33.016  -5.501  37.244  1.00  0.00     0.001 A 
HETATM   17  C19 UNK     1      31.636  -5.332  37.363  1.00  0.00     0.003 A 
ENDROOT
BRANCH   5  18
HETATM   18  C3  UNK     1      32.507  -8.755  31.004  1.00  0.00    -0.041 A 
HETATM   19  C11 UNK     1      32.651  -9.727  31.987  1.00  0.00     0.011 A 
HETATM   20  C14 UNK     1      32.223 -11.031  31.736  1.00  0.00     0.040 A 
HETATM   21  C15 UNK     1      31.654 -11.353  30.503  1.00  0.00     0.101 A 
HETATM   22  C12 UNK     1      31.512 -10.372  29.523  1.00  0.00     0.103 A 
HETATM   23  C9  UNK     1      31.941  -9.069  29.773  1.00  0.00     0.047 A 
BRANCH  21  24
HETATM   24  O5  UNK     1      31.240 -12.630  30.270  1.00  0.00    -0.353 OA
HETATM   25  C21 UNK     1      30.504 -13.273  31.307  1.00  0.00     0.210 C 
ENDBRANCH  21  24
BRANCH  22  26
HETATM   26  O3  UNK     1      30.958 -10.675  28.316  1.00  0.00    -0.339 OA
BRANCH  26  27
HETATM   27  C20 UNK     1      29.893  -9.841  27.864  1.00  0.00     0.278 C 
BRANCH  27  28
HETATM   28  C22 UNK     1      28.582 -10.357  28.407  1.00  0.00     0.239 C 
HETATM   29  O6  UNK     1      27.609  -9.641  28.629  1.00  0.00    -0.271 OA
HETATM   30  N3  UNK     1      28.602 -11.718  28.622  1.00  0.00    -0.368 N 
HETATM   31  H16 UNK     1      27.787 -12.201  28.985  1.00  0.00     0.159 HD
HETATM   32  H17 UNK     1      29.421 -12.285  28.428  1.00  0.00     0.159 HD
ENDBRANCH  27  28
ENDBRANCH  26  27
ENDBRANCH  22  26
ENDBRANCH   5  18
BRANCH  10  33
HETATM   33  N1  UNK     1      36.600  -6.937  32.329  1.00  0.00    -0.379 N 
HETATM   34  H8  UNK     1      37.038  -6.114  32.722  1.00  0.00     0.158 HD
HETATM   35  H9  UNK     1      37.168  -7.693  31.967  1.00  0.00     0.158 HD
ENDBRANCH  10  33
TORSDOF 6
ENDMDL
MODEL 8
REMARK VINA RESULT:      -7.9     19.785     23.778
REMARK  6 active torsions:
REMARK  status: ('A' for Active; 'I' for Inactive)
REMARK    1  A    between atoms: C12_21  and  O3_3 
REMARK    2  A    between atoms: C20_29  and  O3_3 
REMARK    3  A    between atoms: C15_24  and  O5_5 
REMARK    4  A    between atoms: C7_16  and  N1_7 
REMARK       I    between atoms: C22_31  and  N3_9 
REMARK    5  A    between atoms: C1_10  and  C3_12 
REMARK    6  A    between atoms: C20_29  and  C22_31 
ROOT
HETATM    1  O1  UNK     1      20.203  -6.166  11.757  1.00  0.00    -0.291 OA
HETATM    2  O2  UNK     1      20.284  -2.249  10.292  1.00  0.00    -0.274 OA
HETATM    3  O4  UNK     1      18.654  -1.658  11.772  1.00  0.00    -0.259 OA
HETATM    4  N2  UNK     1      16.614  -6.605  14.942  1.00  0.00    -0.191 NA
HETATM    5  C1  UNK     1      18.497  -4.240  13.032  1.00  0.00     0.109 C 
HETATM    6  C2  UNK     1      19.413  -3.908  11.870  1.00  0.00     0.066 A 
HETATM    7  C4  UNK     1      20.195  -4.853  11.324  1.00  0.00     0.104 A 
HETATM    8  C5  UNK     1      18.420  -5.741  13.296  1.00  0.00     0.086 C 
HETATM    9  C6  UNK     1      21.103  -4.538  10.224  1.00  0.00     0.033 A 
HETATM   10  C7  UNK     1      19.253  -6.610  12.676  1.00  0.00     0.159 C 
HETATM   11  C8  UNK     1      19.401  -2.524  11.331  1.00  0.00     0.298 A 
HETATM   12  C10 UNK     1      21.125  -3.234   9.740  1.00  0.00     0.092 A 
HETATM   13  C13 UNK     1      21.957  -5.477   9.632  1.00  0.00     0.017 A 
HETATM   14  C16 UNK     1      21.964  -2.844   8.697  1.00  0.00     0.038 A 
HETATM   15  C17 UNK     1      17.422  -6.219  14.205  1.00  0.00     0.100 C 
HETATM   16  C18 UNK     1      22.804  -5.102   8.585  1.00  0.00     0.001 A 
HETATM   17  C19 UNK     1      22.807  -3.787   8.118  1.00  0.00     0.003 A 
ENDROOT
BRANCH   5  18
HETATM   18  C3  UNK     1      18.940  -3.522  14.273  1.00  0.00    -0.041 A 
HETATM   19  C11 UNK     1      18.072  -2.640  14.904  1.00  0.00     0.011 A 
HETATM   20  C14 UNK     1      18.484  -1.972  16.058  1.00  0.00     0.040 A 
HETATM   21  C15 UNK     1      19.762  -2.192  16.572  1.00  0.00     0.101 A 
HETATM   22  C12 UNK     1      20.627  -3.080  15.933  1.00  0.00     0.103 A 
HETATM   23  C9  UNK     1      20.216  -3.747  14.779  1.00  0.00     0.047 A 
BRANCH  21  24
HETATM   24  O5  UNK     1      20.154  -1.533  17.698  1.00  0.00    -0.353 OA
HETATM   25  C21 UNK     1      19.247  -0.574  18.237  1.00  0.00     0.210 C 
ENDBRANCH  21  24
BRANCH  22  26
HETATM   26  O3  UNK     1      21.878  -3.302  16.425  1.00  0.00    -0.339 OA
BRANCH  26  27
HETATM   27  C20 UNK     1      22.432  -4.601  16.224  1.00  0.00     0.278 C 
BRANCH  27  28
HETATM   28  C22 UNK     1      23.752  -4.706  16.951  1.00  0.00     0.239 C 
HETATM   29  O6  UNK     1      24.791  -4.186  16.552  1.00  0.00    -0.271 OA
HETATM   30  N3  UNK     1      23.656  -5.446  18.109  1.00  0.00    -0.368 N 
HETATM   31  H16 UNK     1      24.468  -5.598  18.699  1.00  0.00     0.159 HD
HETATM   32  H17 UNK     1      22.784  -5.863  18.416  1.00  0.00     0.159 HD
ENDBRANCH  27  28
ENDBRANCH  26  27
ENDBRANCH  22  26
ENDBRANCH   5  18
BRANCH  10  33
HETATM   33  N1  UNK     1      19.262  -7.964  12.865  1.00  0.00    -0.379 N 
HETATM   34  H8  UNK     1      19.145  -8.326  13.803  1.00  0.00     0.158 HD
HETATM   35  H9  UNK     1      19.381  -8.599  12.086  1.00  0.00     0.158 HD
ENDBRANCH  10  33
TORSDOF 6
ENDMDL
MODEL 9
REMARK VINA RESULT:      -7.9     32.421     35.257
REMARK  6 active torsions:
REMARK  status: ('A' for Active; 'I' for Inactive)
REMARK    1  A    between atoms: C12_21  and  O3_3 
REMARK    2  A    between atoms: C20_29  and  O3_3 
REMARK    3  A    between atoms: C15_24  and  O5_5 
REMARK    4  A    between atoms: C7_16  and  N1_7 
REMARK       I    between atoms: C22_31  and  N3_9 
REMARK    5  A    between atoms: C1_10  and  C3_12 
REMARK    6  A    between atoms: C20_29  and  C22_31 
ROOT
HETATM    1  O1  UNK     1      14.574  12.070   9.180  1.00  0.00    -0.291 OA
HETATM    2  O2  UNK     1      18.285  10.257   8.517  1.00  0.00    -0.274 OA
HETATM    3  O4  UNK     1      17.719   8.568   9.940  1.00  0.00    -0.259 OA
HETATM    4  N2  UNK     1      12.208   9.653  12.611  1.00  0.00    -0.191 NA
HETATM    5  C1  UNK     1      15.064   9.548  10.462  1.00  0.00     0.109 C 
HETATM    6  C2  UNK     1      16.073  10.243   9.568  1.00  0.00     0.066 A 
HETATM    7  C4  UNK     1      15.778  11.417   8.989  1.00  0.00     0.104 A 
HETATM    8  C5  UNK     1      13.864  10.436  10.777  1.00  0.00     0.086 C 
HETATM    9  C6  UNK     1      16.730  12.081   8.102  1.00  0.00     0.033 A 
HETATM   10  C7  UNK     1      13.671  11.614  10.139  1.00  0.00     0.159 C 
HETATM   11  C8  UNK     1      17.403   9.611   9.376  1.00  0.00     0.298 A 
HETATM   12  C10 UNK     1      17.964  11.474   7.887  1.00  0.00     0.092 A 
HETATM   13  C13 UNK     1      16.468  13.294   7.453  1.00  0.00     0.017 A 
HETATM   14  C16 UNK     1      18.930  12.035   7.052  1.00  0.00     0.038 A 
HETATM   15  C17 UNK     1      12.949  10.004  11.791  1.00  0.00     0.100 C 
HETATM   16  C18 UNK     1      17.427  13.870   6.614  1.00  0.00     0.001 A 
HETATM   17  C19 UNK     1      18.656  13.240   6.413  1.00  0.00     0.003 A 
ENDROOT
BRANCH   5  18
HETATM   18  C3  UNK     1      14.603   8.264   9.837  1.00  0.00    -0.041 A 
HETATM   19  C11 UNK     1      14.998   7.050  10.386  1.00  0.00     0.011 A 
HETATM   20  C14 UNK     1      14.570   5.857   9.804  1.00  0.00     0.040 A 
HETATM   21  C15 UNK     1      13.749   5.886   8.676  1.00  0.00     0.101 A 
HETATM   22  C12 UNK     1      13.356   7.108   8.131  1.00  0.00     0.103 A 
HETATM   23  C9  UNK     1      13.785   8.302   8.713  1.00  0.00     0.047 A 
BRANCH  21  24
HETATM   24  O5  UNK     1      13.338   4.715   8.116  1.00  0.00    -0.353 OA
HETATM   25  C21 UNK     1      12.226   4.060   8.723  1.00  0.00     0.210 C 
ENDBRANCH  21  24
BRANCH  22  26
HETATM   26  O3  UNK     1      12.555   7.150   7.030  1.00  0.00    -0.339 OA
BRANCH  26  27
HETATM   27  C20 UNK     1      11.176   7.443   7.243  1.00  0.00     0.278 C 
BRANCH  27  28
HETATM   28  C22 UNK     1      10.327   6.365   6.610  1.00  0.00     0.239 C 
HETATM   29  O6  UNK     1       9.506   5.695   7.230  1.00  0.00    -0.271 OA
HETATM   30  N3  UNK     1      10.578   6.224   5.262  1.00  0.00    -0.368 N 
HETATM   31  H16 UNK     1      10.078   5.536   4.708  1.00  0.00     0.159 HD
HETATM   32  H17 UNK     1      11.262   6.793   4.775  1.00  0.00     0.159 HD
ENDBRANCH  27  28
ENDBRANCH  26  27
ENDBRANCH  22  26
ENDBRANCH   5  18
BRANCH  10  33
HETATM   33  N1  UNK     1      12.618  12.461  10.349  1.00  0.00    -0.379 N 
HETATM   34  H8  UNK     1      11.834  12.136  10.900  1.00  0.00     0.158 HD
HETATM   35  H9  UNK     1      12.618  13.398   9.966  1.00  0.00     0.158 HD
ENDBRANCH  10  33
TORSDOF 6
ENDMDL
MODEL 10
REMARK VINA RESULT:      -7.8      3.213      6.563
REMARK  6 active torsions:
REMARK  status: ('A' for Active; 'I' for Inactive)
REMARK    1  A    between atoms: C12_21  and  O3_3 
REMARK    2  A    between atoms: C20_29  and  O3_3 
REMARK    3  A    between atoms: C15_24  and  O5_5 
REMARK    4  A    between atoms: C7_16  and  N1_7 
REMARK       I    between atoms: C22_31  and  N3_9 
REMARK    5  A    between atoms: C1_10  and  C3_12 
REMARK    6  A    between atoms: C20_29  and  C22_31 
ROOT
HETATM    1  O1  UNK     1      30.781  -7.229  38.203  1.00  0.00    -0.291 OA
HETATM    2  O2  UNK     1      27.146  -8.109  36.328  1.00  0.00    -0.274 OA
HETATM    3  O4  UNK     1      27.588  -6.545  34.729  1.00  0.00    -0.259 OA
HETATM    4  N2  UNK     1      32.839  -3.467  36.007  1.00  0.00    -0.191 NA
HETATM    5  C1  UNK     1      30.185  -5.849  35.756  1.00  0.00     0.109 C 
HETATM    6  C2  UNK     1      29.258  -6.867  36.391  1.00  0.00     0.066 A 
HETATM    7  C4  UNK     1      29.600  -7.487  37.531  1.00  0.00     0.104 A 
HETATM    8  C5  UNK     1      31.350  -5.482  36.670  1.00  0.00     0.086 C 
HETATM    9  C6  UNK     1      28.729  -8.491  38.136  1.00  0.00     0.033 A 
HETATM   10  C7  UNK     1      31.597  -6.169  37.810  1.00  0.00     0.159 C 
HETATM   11  C8  UNK     1      27.950  -7.139  35.739  1.00  0.00     0.298 A 
HETATM   12  C10 UNK     1      27.520  -8.778  37.509  1.00  0.00     0.092 A 
HETATM   13  C13 UNK     1      29.044  -9.185  39.311  1.00  0.00     0.017 A 
HETATM   14  C16 UNK     1      26.630  -9.726  38.013  1.00  0.00     0.038 A 
HETATM   15  C17 UNK     1      32.173  -4.368  36.304  1.00  0.00     0.100 C 
HETATM   16  C18 UNK     1      28.163 -10.138  39.830  1.00  0.00     0.001 A 
HETATM   17  C19 UNK     1      26.957 -10.408  39.181  1.00  0.00     0.003 A 
ENDROOT
BRANCH   5  18
HETATM   18  C3  UNK     1      30.702  -6.355  34.442  1.00  0.00    -0.041 A 
HETATM   19  C11 UNK     1      31.567  -7.442  34.416  1.00  0.00     0.011 A 
HETATM   20  C14 UNK     1      32.048  -7.913  33.194  1.00  0.00     0.040 A 
HETATM   21  C15 UNK     1      31.660  -7.292  32.006  1.00  0.00     0.101 A 
HETATM   22  C12 UNK     1      30.792  -6.202  32.040  1.00  0.00     0.103 A 
HETATM   23  C9  UNK     1      30.311  -5.731  33.262  1.00  0.00     0.047 A 
BRANCH  21  24
HETATM   24  O5  UNK     1      32.137  -7.759  30.819  1.00  0.00    -0.353 OA
HETATM   25  C21 UNK     1      33.506  -7.493  30.520  1.00  0.00     0.210 C 
ENDBRANCH  21  24
BRANCH  22  26
HETATM   26  O3  UNK     1      30.406  -5.587  30.888  1.00  0.00    -0.339 OA
BRANCH  26  27
HETATM   27  C20 UNK     1      29.022  -5.652  30.550  1.00  0.00     0.278 C 
BRANCH  27  28
HETATM   28  C22 UNK     1      28.734  -6.959  29.849  1.00  0.00     0.239 C 
HETATM   29  O6  UNK     1      27.741  -7.646  30.072  1.00  0.00    -0.271 OA
HETATM   30  N3  UNK     1      29.710  -7.289  28.933  1.00  0.00    -0.368 N 
HETATM   31  H16 UNK     1      29.645  -8.142  28.387  1.00  0.00     0.159 HD
HETATM   32  H17 UNK     1      30.520  -6.701  28.768  1.00  0.00     0.159 HD
ENDBRANCH  27  28
ENDBRANCH  26  27
ENDBRANCH  22  26
ENDBRANCH   5  18
BRANCH  10  33
HETATM   33  N1  UNK     1      32.625  -5.916  38.676  1.00  0.00    -0.379 N 
HETATM   34  H8  UNK     1      33.575  -6.067  38.361  1.00  0.00     0.158 HD
HETATM   35  H9  UNK     1      32.446  -5.583  39.615  1.00  0.00     0.158 HD
ENDBRANCH  10  33
TORSDOF 6
ENDMDL
