MODEL 1
REMARK VINA RESULT:      -9.4      0.000      0.000
REMARK  4 active torsions:
REMARK  status: ('A' for Active; 'I' for Inactive)
REMARK    1  A    between atoms: C14_18  and  O3_3 
REMARK    2  A    between atoms: C3_7  and  C8_12 
REMARK    3  A    between atoms: C10_14  and  C8_12 
REMARK    4  A    between atoms: C11_15  and  C9_13 
ROOT
HETATM    1  O4  UNK     1      17.973   2.454  28.254  1.00  0.00    -0.288 OA
HETATM    2  C8  UNK     1      18.392   2.184  29.391  1.00  0.00     0.182 C 
ENDROOT
BRANCH   2   3
HETATM    3  C10 UNK     1      18.269   3.182  30.507  1.00  0.00     0.056 C 
HETATM    4  C11 UNK     1      19.064   4.261  30.550  1.00  0.00     0.015 C 
BRANCH   4   5
HETATM    5  C9  UNK     1      19.028   5.285  31.609  1.00  0.00    -0.034 A 
HETATM    6  C12 UNK     1      17.833   5.545  32.259  1.00  0.00     0.048 A 
HETATM    7  C14 UNK     1      17.798   6.517  33.261  1.00  0.00     0.069 A 
HETATM    8  C16 UNK     1      18.959   7.213  33.597  1.00  0.00     0.037 A 
HETATM    9  C15 UNK     1      20.154   6.939  32.932  1.00  0.00     0.004 A 
HETATM   10  C13 UNK     1      20.189   5.968  31.931  1.00  0.00     0.011 A 
BRANCH   7  11
HETATM   11  O3  UNK     1      16.632   6.785  33.909  1.00  0.00    -0.356 OA
HETATM   12  C17 UNK     1      16.719   7.533  35.120  1.00  0.00     0.210 C 
ENDBRANCH   7  11
ENDBRANCH   4   5
ENDBRANCH   2   3
BRANCH   2  13
HETATM   13  C3  UNK     1      19.039   0.910  29.663  1.00  0.00     0.017 A 
HETATM   14  C4  UNK     1      19.245   0.507  30.984  1.00  0.00     0.055 A 
HETATM   15  C1  UNK     1      19.863  -0.710  31.193  1.00  0.00     0.105 A 
HETATM   16  O1  UNK     1      20.148  -1.262  32.404  1.00  0.00    -0.323 OA
HETATM   17  C2  UNK     1      20.267  -1.506  30.146  1.00  0.00     0.105 A 
HETATM   18  C7  UNK     1      20.775  -2.497  32.001  1.00  0.00     0.352 A 
HETATM   19  O2  UNK     1      20.855  -2.658  30.570  1.00  0.00    -0.323 OA
HETATM   20  C5  UNK     1      20.075  -1.131  28.833  1.00  0.00     0.040 A 
HETATM   21  C6  UNK     1      19.451   0.095  28.593  1.00  0.00     0.018 A 
ENDBRANCH   2  13
TORSDOF 4
ENDMDL
MODEL 2
REMARK VINA RESULT:      -8.3      1.927      2.791
REMARK  4 active torsions:
REMARK  status: ('A' for Active; 'I' for Inactive)
REMARK    1  A    between atoms: C14_18  and  O3_3 
REMARK    2  A    between atoms: C3_7  and  C8_12 
REMARK    3  A    between atoms: C10_14  and  C8_12 
REMARK    4  A    between atoms: C11_15  and  C9_13 
ROOT
HETATM    1  O4  UNK     1      17.589   2.192  33.495  1.00  0.00    -0.288 OA
HETATM    2  C8  UNK     1      18.069   2.765  32.505  1.00  0.00     0.182 C 
ENDROOT
BRANCH   2   3
HETATM    3  C10 UNK     1      18.194   4.263  32.477  1.00  0.00     0.056 C 
HETATM    4  C11 UNK     1      18.276   4.964  33.617  1.00  0.00     0.015 C 
BRANCH   4   5
HETATM    5  C9  UNK     1      18.385   6.430  33.691  1.00  0.00    -0.034 A 
HETATM    6  C12 UNK     1      17.367   7.214  33.172  1.00  0.00     0.048 A 
HETATM    7  C14 UNK     1      17.472   8.604  33.240  1.00  0.00     0.069 A 
HETATM    8  C16 UNK     1      18.594   9.190  33.825  1.00  0.00     0.037 A 
HETATM    9  C15 UNK     1      19.611   8.388  34.342  1.00  0.00     0.004 A 
HETATM   10  C13 UNK     1      19.505   6.998  34.275  1.00  0.00     0.011 A 
BRANCH   7  11
HETATM   11  O3  UNK     1      16.480   9.387  32.733  1.00  0.00    -0.356 OA
HETATM   12  C17 UNK     1      15.212   8.769  32.518  1.00  0.00     0.210 C 
ENDBRANCH   7  11
ENDBRANCH   4   5
ENDBRANCH   2   3
BRANCH   2  13
HETATM   13  C3  UNK     1      18.493   2.008  31.338  1.00  0.00     0.017 A 
HETATM   14  C4  UNK     1      19.287   0.871  31.502  1.00  0.00     0.055 A 
HETATM   15  C1  UNK     1      19.665   0.185  30.366  1.00  0.00     0.105 A 
HETATM   16  O1  UNK     1      20.435  -0.937  30.330  1.00  0.00    -0.323 OA
HETATM   17  C2  UNK     1      19.280   0.595  29.111  1.00  0.00     0.105 A 
HETATM   18  C7  UNK     1      20.490  -1.187  28.910  1.00  0.00     0.352 A 
HETATM   19  O2  UNK     1      19.761  -0.218  28.131  1.00  0.00    -0.323 OA
HETATM   20  C5  UNK     1      18.497   1.714  28.922  1.00  0.00     0.040 A 
HETATM   21  C6  UNK     1      18.100   2.427  30.055  1.00  0.00     0.018 A 
ENDBRANCH   2  13
TORSDOF 4
ENDMDL
MODEL 3
REMARK VINA RESULT:      -8.3      1.352      7.265
REMARK  4 active torsions:
REMARK  status: ('A' for Active; 'I' for Inactive)
REMARK    1  A    between atoms: C14_18  and  O3_3 
REMARK    2  A    between atoms: C3_7  and  C8_12 
REMARK    3  A    between atoms: C10_14  and  C8_12 
REMARK    4  A    between atoms: C11_15  and  C9_13 
ROOT
HETATM    1  O4  UNK     1      17.984   2.737  28.429  1.00  0.00    -0.288 OA
HETATM    2  C8  UNK     1      18.409   2.664  29.593  1.00  0.00     0.182 C 
ENDROOT
BRANCH   2   3
HETATM    3  C10 UNK     1      18.682   1.328  30.224  1.00  0.00     0.056 C 
HETATM    4  C11 UNK     1      19.808   0.656  29.943  1.00  0.00     0.015 C 
BRANCH   4   5
HETATM    5  C9  UNK     1      20.155  -0.662  30.499  1.00  0.00    -0.034 A 
HETATM    6  C12 UNK     1      20.120  -0.850  31.872  1.00  0.00     0.048 A 
HETATM    7  C14 UNK     1      20.451  -2.099  32.399  1.00  0.00     0.069 A 
HETATM    8  C16 UNK     1      20.813  -3.142  31.547  1.00  0.00     0.037 A 
HETATM    9  C15 UNK     1      20.844  -2.937  30.167  1.00  0.00     0.004 A 
HETATM   10  C13 UNK     1      20.512  -1.688  29.640  1.00  0.00     0.011 A 
BRANCH   7  11
HETATM   11  O3  UNK     1      20.422  -2.299  33.745  1.00  0.00    -0.356 OA
HETATM   12  C17 UNK     1      19.367  -1.670  34.472  1.00  0.00     0.210 C 
ENDBRANCH   7  11
ENDBRANCH   4   5
ENDBRANCH   2   3
BRANCH   2  13
HETATM   13  C3  UNK     1      18.624   3.866  30.383  1.00  0.00     0.017 A 
HETATM   14  C4  UNK     1      18.169   3.918  31.702  1.00  0.00     0.055 A 
HETATM   15  C1  UNK     1      18.395   5.079  32.413  1.00  0.00     0.105 A 
HETATM   16  O1  UNK     1      18.023   5.312  33.702  1.00  0.00    -0.323 OA
HETATM   17  C2  UNK     1      19.046   6.154  31.855  1.00  0.00     0.105 A 
HETATM   18  C7  UNK     1      18.514   6.654  33.891  1.00  0.00     0.352 A 
HETATM   19  O2  UNK     1      19.163   7.196  32.723  1.00  0.00    -0.323 OA
HETATM   20  C5  UNK     1      19.506   6.129  30.555  1.00  0.00     0.040 A 
HETATM   21  C6  UNK     1      19.290   4.966  29.813  1.00  0.00     0.018 A 
ENDBRANCH   2  13
TORSDOF 4
ENDMDL
MODEL 4
REMARK VINA RESULT:      -8.2      1.106      7.737
REMARK  4 active torsions:
REMARK  status: ('A' for Active; 'I' for Inactive)
REMARK    1  A    between atoms: C14_18  and  O3_3 
REMARK    2  A    between atoms: C3_7  and  C8_12 
REMARK    3  A    between atoms: C10_14  and  C8_12 
REMARK    4  A    between atoms: C11_15  and  C9_13 
ROOT
HETATM    1  O4  UNK     1      18.570   4.703  29.428  1.00  0.00    -0.288 OA
HETATM    2  C8  UNK     1      18.753   4.354  30.604  1.00  0.00     0.182 C 
ENDROOT
BRANCH   2   3
HETATM    3  C10 UNK     1      19.019   2.914  30.940  1.00  0.00     0.056 C 
HETATM    4  C11 UNK     1      19.321   2.031  29.977  1.00  0.00     0.015 C 
BRANCH   4   5
HETATM    5  C9  UNK     1      19.582   0.600  30.206  1.00  0.00    -0.034 A 
HETATM    6  C12 UNK     1      19.340   0.059  31.458  1.00  0.00     0.048 A 
HETATM    7  C14 UNK     1      19.589  -1.297  31.676  1.00  0.00     0.069 A 
HETATM    8  C16 UNK     1      20.077  -2.092  30.638  1.00  0.00     0.037 A 
HETATM    9  C15 UNK     1      20.316  -1.531  29.384  1.00  0.00     0.004 A 
HETATM   10  C13 UNK     1      20.066  -0.176  29.166  1.00  0.00     0.011 A 
BRANCH   7  11
HETATM   11  O3  UNK     1      19.357  -1.844  32.901  1.00  0.00    -0.356 OA
HETATM   12  C17 UNK     1      20.449  -2.512  33.530  1.00  0.00     0.210 C 
ENDBRANCH   7  11
ENDBRANCH   4   5
ENDBRANCH   2   3
BRANCH   2  13
HETATM   13  C3  UNK     1      18.686   5.322  31.688  1.00  0.00     0.017 A 
HETATM   14  C4  UNK     1      17.478   5.529  32.357  1.00  0.00     0.055 A 
HETATM   15  C1  UNK     1      17.462   6.458  33.378  1.00  0.00     0.105 A 
HETATM   16  O1  UNK     1      16.382   6.793  34.136  1.00  0.00    -0.323 OA
HETATM   17  C2  UNK     1      18.589   7.161  33.734  1.00  0.00     0.105 A 
HETATM   18  C7  UNK     1      16.957   7.785  35.010  1.00  0.00     0.352 A 
HETATM   19  O2  UNK     1      18.357   8.024  34.760  1.00  0.00    -0.323 OA
HETATM   20  C5  UNK     1      19.794   6.975  33.090  1.00  0.00     0.040 A 
HETATM   21  C6  UNK     1      19.838   6.041  32.053  1.00  0.00     0.018 A 
ENDBRANCH   2  13
TORSDOF 4
ENDMDL
MODEL 5
REMARK VINA RESULT:      -8.0      1.203      1.774
REMARK  4 active torsions:
REMARK  status: ('A' for Active; 'I' for Inactive)
REMARK    1  A    between atoms: C14_18  and  O3_3 
REMARK    2  A    between atoms: C3_7  and  C8_12 
REMARK    3  A    between atoms: C10_14  and  C8_12 
REMARK    4  A    between atoms: C11_15  and  C9_13 
ROOT
HETATM    1  O4  UNK     1      18.026   2.843  28.586  1.00  0.00    -0.288 OA
HETATM    2  C8  UNK     1      18.646   2.769  29.659  1.00  0.00     0.182 C 
ENDROOT
BRANCH   2   3
HETATM    3  C10 UNK     1      19.019   4.015  30.412  1.00  0.00     0.056 C 
HETATM    4  C11 UNK     1      18.161   4.574  31.277  1.00  0.00     0.015 C 
BRANCH   4   5
HETATM    5  C9  UNK     1      18.431   5.799  32.048  1.00  0.00    -0.034 A 
HETATM    6  C12 UNK     1      17.500   6.826  32.038  1.00  0.00     0.048 A 
HETATM    7  C14 UNK     1      17.757   7.988  32.768  1.00  0.00     0.069 A 
HETATM    8  C16 UNK     1      18.941   8.106  33.496  1.00  0.00     0.037 A 
HETATM    9  C15 UNK     1      19.867   7.064  33.496  1.00  0.00     0.004 A 
HETATM   10  C13 UNK     1      19.610   5.902  32.767  1.00  0.00     0.011 A 
BRANCH   7  11
HETATM   11  O3  UNK     1      16.854   9.006  32.767  1.00  0.00    -0.356 OA
HETATM   12  C17 UNK     1      15.860   8.993  33.789  1.00  0.00     0.210 C 
ENDBRANCH   7  11
ENDBRANCH   4   5
ENDBRANCH   2   3
BRANCH   2  13
HETATM   13  C3  UNK     1      19.052   1.481  30.198  1.00  0.00     0.017 A 
HETATM   14  C4  UNK     1      19.666   0.544  29.363  1.00  0.00     0.055 A 
HETATM   15  C1  UNK     1      20.034  -0.665  29.918  1.00  0.00     0.105 A 
HETATM   16  O1  UNK     1      20.637  -1.693  29.263  1.00  0.00    -0.323 OA
HETATM   17  C2  UNK     1      19.809  -0.950  31.245  1.00  0.00     0.105 A 
HETATM   18  C7  UNK     1      20.769  -2.658  30.328  1.00  0.00     0.352 A 
HETATM   19  O2  UNK     1      20.245  -2.193  31.588  1.00  0.00    -0.323 OA
HETATM   20  C5  UNK     1      19.205  -0.043  32.090  1.00  0.00     0.040 A 
HETATM   21  C6  UNK     1      18.823   1.189  31.554  1.00  0.00     0.018 A 
ENDBRANCH   2  13
TORSDOF 4
ENDMDL
MODEL 6
REMARK VINA RESULT:      -8.0      4.016      7.640
REMARK  4 active torsions:
REMARK  status: ('A' for Active; 'I' for Inactive)
REMARK    1  A    between atoms: C14_18  and  O3_3 
REMARK    2  A    between atoms: C3_7  and  C8_12 
REMARK    3  A    between atoms: C10_14  and  C8_12 
REMARK    4  A    between atoms: C11_15  and  C9_13 
ROOT
HETATM    1  O4  UNK     1      20.472  -3.790  35.451  1.00  0.00    -0.288 OA
HETATM    2  C8  UNK     1      20.077  -2.702  35.004  1.00  0.00     0.182 C 
ENDROOT
BRANCH   2   3
HETATM    3  C10 UNK     1      20.424  -2.279  33.605  1.00  0.00     0.056 C 
HETATM    4  C11 UNK     1      19.504  -1.703  32.817  1.00  0.00     0.015 C 
BRANCH   4   5
HETATM    5  C9  UNK     1      19.745  -1.269  31.430  1.00  0.00    -0.034 A 
HETATM    6  C12 UNK     1      19.369   0.007  31.043  1.00  0.00     0.048 A 
HETATM    7  C14 UNK     1      19.596   0.417  29.728  1.00  0.00     0.069 A 
HETATM    8  C16 UNK     1      20.196  -0.455  28.820  1.00  0.00     0.037 A 
HETATM    9  C15 UNK     1      20.568  -1.737  29.225  1.00  0.00     0.004 A 
HETATM   10  C13 UNK     1      20.342  -2.146  30.540  1.00  0.00     0.011 A 
BRANCH   7  11
HETATM   11  O3  UNK     1      19.231   1.667  29.333  1.00  0.00    -0.356 OA
HETATM   12  C17 UNK     1      17.918   1.820  28.797  1.00  0.00     0.210 C 
ENDBRANCH   7  11
ENDBRANCH   4   5
ENDBRANCH   2   3
BRANCH   2  13
HETATM   13  C3  UNK     1      19.296  -1.796  35.833  1.00  0.00     0.017 A 
HETATM   14  C4  UNK     1      19.037  -0.499  35.386  1.00  0.00     0.055 A 
HETATM   15  C1  UNK     1      18.292   0.325  36.206  1.00  0.00     0.105 A 
HETATM   16  O1  UNK     1      17.945   1.613  35.940  1.00  0.00    -0.323 OA
HETATM   17  C2  UNK     1      17.816  -0.105  37.423  1.00  0.00     0.105 A 
HETATM   18  C7  UNK     1      17.195   1.946  37.126  1.00  0.00     0.352 A 
HETATM   19  O2  UNK     1      17.110   0.861  38.072  1.00  0.00    -0.323 OA
HETATM   20  C5  UNK     1      18.058  -1.381  37.887  1.00  0.00     0.040 A 
HETATM   21  C6  UNK     1      18.809  -2.235  37.077  1.00  0.00     0.018 A 
ENDBRANCH   2  13
TORSDOF 4
ENDMDL
MODEL 7
REMARK VINA RESULT:      -8.0      1.916      8.476
REMARK  4 active torsions:
REMARK  status: ('A' for Active; 'I' for Inactive)
REMARK    1  A    between atoms: C14_18  and  O3_3 
REMARK    2  A    between atoms: C3_7  and  C8_12 
REMARK    3  A    between atoms: C10_14  and  C8_12 
REMARK    4  A    between atoms: C11_15  and  C9_13 
ROOT
HETATM    1  O4  UNK     1      18.587   4.105  34.320  1.00  0.00    -0.288 OA
HETATM    2  C8  UNK     1      18.315   4.693  33.261  1.00  0.00     0.182 C 
ENDROOT
BRANCH   2   3
HETATM    3  C10 UNK     1      18.322   3.954  31.954  1.00  0.00     0.056 C 
HETATM    4  C11 UNK     1      18.670   2.659  31.902  1.00  0.00     0.015 C 
BRANCH   4   5
HETATM    5  C9  UNK     1      18.722   1.856  30.669  1.00  0.00    -0.034 A 
HETATM    6  C12 UNK     1      19.518   0.722  30.630  1.00  0.00     0.048 A 
HETATM    7  C14 UNK     1      19.568  -0.037  29.460  1.00  0.00     0.069 A 
HETATM    8  C16 UNK     1      18.822   0.348  28.347  1.00  0.00     0.037 A 
HETATM    9  C15 UNK     1      18.026   1.492  28.402  1.00  0.00     0.004 A 
HETATM   10  C13 UNK     1      17.976   2.251  29.571  1.00  0.00     0.011 A 
BRANCH   7  11
HETATM   11  O3  UNK     1      20.346  -1.153  29.407  1.00  0.00    -0.356 OA
HETATM   12  C17 UNK     1      20.249  -2.065  30.499  1.00  0.00     0.210 C 
ENDBRANCH   7  11
ENDBRANCH   4   5
ENDBRANCH   2   3
BRANCH   2  13
HETATM   13  C3  UNK     1      18.012   6.116  33.256  1.00  0.00     0.017 A 
HETATM   14  C4  UNK     1      18.910   7.017  33.832  1.00  0.00     0.055 A 
HETATM   15  C1  UNK     1      18.580   8.357  33.803  1.00  0.00     0.105 A 
HETATM   16  O1  UNK     1      19.327   9.374  34.314  1.00  0.00    -0.323 OA
HETATM   17  C2  UNK     1      17.411   8.802  33.231  1.00  0.00     0.105 A 
HETATM   18  C7  UNK     1      18.497  10.510  33.997  1.00  0.00     0.352 A 
HETATM   19  O2  UNK     1      17.279  10.154  33.312  1.00  0.00    -0.323 OA
HETATM   20  C5  UNK     1      16.508   7.934  32.656  1.00  0.00     0.040 A 
HETATM   21  C6  UNK     1      16.817   6.572  32.671  1.00  0.00     0.018 A 
ENDBRANCH   2  13
TORSDOF 4
ENDMDL
MODEL 8
REMARK VINA RESULT:      -7.9      1.889      8.129
REMARK  4 active torsions:
REMARK  status: ('A' for Active; 'I' for Inactive)
REMARK    1  A    between atoms: C14_18  and  O3_3 
REMARK    2  A    between atoms: C3_7  and  C8_12 
REMARK    3  A    between atoms: C10_14  and  C8_12 
REMARK    4  A    between atoms: C11_15  and  C9_13 
ROOT
HETATM    1  O4  UNK     1      20.380   6.569  32.228  1.00  0.00    -0.288 OA
HETATM    2  C8  UNK     1      19.331   5.995  31.896  1.00  0.00     0.182 C 
ENDROOT
BRANCH   2   3
HETATM    3  C10 UNK     1      19.356   4.885  30.883  1.00  0.00     0.056 C 
HETATM    4  C11 UNK     1      18.858   3.676  31.181  1.00  0.00     0.015 C 
BRANCH   4   5
HETATM    5  C9  UNK     1      18.851   2.526  30.262  1.00  0.00    -0.034 A 
HETATM    6  C12 UNK     1      19.793   1.523  30.423  1.00  0.00     0.048 A 
HETATM    7  C14 UNK     1      19.787   0.433  29.550  1.00  0.00     0.069 A 
HETATM    8  C16 UNK     1      18.840   0.363  28.529  1.00  0.00     0.037 A 
HETATM    9  C15 UNK     1      17.898   1.381  28.380  1.00  0.00     0.004 A 
HETATM   10  C13 UNK     1      17.904   2.470  29.253  1.00  0.00     0.011 A 
BRANCH   7  11
HETATM   11  O3  UNK     1      20.707  -0.560  29.695  1.00  0.00    -0.356 OA
HETATM   12  C17 UNK     1      20.230  -1.902  29.622  1.00  0.00     0.210 C 
ENDBRANCH   7  11
ENDBRANCH   4   5
ENDBRANCH   2   3
BRANCH   2  13
HETATM   13  C3  UNK     1      18.051   6.402  32.454  1.00  0.00     0.017 A 
HETATM   14  C4  UNK     1      16.967   6.631  31.604  1.00  0.00     0.055 A 
HETATM   15  C1  UNK     1      15.772   7.016  32.178  1.00  0.00     0.105 A 
HETATM   16  O1  UNK     1      14.616   7.284  31.512  1.00  0.00    -0.323 OA
HETATM   17  C2  UNK     1      15.640   7.170  33.538  1.00  0.00     0.105 A 
HETATM   18  C7  UNK     1      13.741   7.624  32.607  1.00  0.00     0.352 A 
HETATM   19  O2  UNK     1      14.385   7.555  33.895  1.00  0.00    -0.323 OA
HETATM   20  C5  UNK     1      16.694   6.950  34.400  1.00  0.00     0.040 A 
HETATM   21  C6  UNK     1      17.915   6.560  33.844  1.00  0.00     0.018 A 
ENDBRANCH   2  13
TORSDOF 4
ENDMDL
MODEL 9
REMARK VINA RESULT:      -7.9      7.074     10.150
REMARK  4 active torsions:
REMARK  status: ('A' for Active; 'I' for Inactive)
REMARK    1  A    between atoms: C14_18  and  O3_3 
REMARK    2  A    between atoms: C3_7  and  C8_12 
REMARK    3  A    between atoms: C10_14  and  C8_12 
REMARK    4  A    between atoms: C11_15  and  C9_13 
ROOT
HETATM    1  O4  UNK     1      22.165  -4.835  37.639  1.00  0.00    -0.288 OA
HETATM    2  C8  UNK     1      20.992  -5.216  37.501  1.00  0.00     0.182 C 
ENDROOT
BRANCH   2   3
HETATM    3  C10 UNK     1      19.944  -4.282  36.965  1.00  0.00     0.056 C 
HETATM    4  C11 UNK     1      20.047  -2.959  37.154  1.00  0.00     0.015 C 
BRANCH   4   5
HETATM    5  C9  UNK     1      19.065  -1.968  36.679  1.00  0.00    -0.034 A 
HETATM    6  C12 UNK     1      19.048  -1.619  35.339  1.00  0.00     0.048 A 
HETATM    7  C14 UNK     1      18.119  -0.679  34.890  1.00  0.00     0.069 A 
HETATM    8  C16 UNK     1      17.221  -0.102  35.788  1.00  0.00     0.037 A 
HETATM    9  C15 UNK     1      17.251  -0.465  37.134  1.00  0.00     0.004 A 
HETATM   10  C13 UNK     1      18.180  -1.404  37.583  1.00  0.00     0.011 A 
BRANCH   7  11
HETATM   11  O3  UNK     1      18.090  -0.324  33.576  1.00  0.00    -0.356 OA
HETATM   12  C17 UNK     1      18.779  -1.172  32.660  1.00  0.00     0.210 C 
ENDBRANCH   7  11
ENDBRANCH   4   5
ENDBRANCH   2   3
BRANCH   2  13
HETATM   13  C3  UNK     1      20.597  -6.563  37.883  1.00  0.00     0.017 A 
HETATM   14  C4  UNK     1      20.621  -7.586  36.933  1.00  0.00     0.055 A 
HETATM   15  C1  UNK     1      20.237  -8.848  37.341  1.00  0.00     0.105 A 
HETATM   16  O1  UNK     1      20.194  -9.961  36.559  1.00  0.00    -0.323 OA
HETATM   17  C2  UNK     1      19.843  -9.101  38.634  1.00  0.00     0.105 A 
HETATM   18  C7  UNK     1      19.731 -10.944  37.507  1.00  0.00     0.352 A 
HETATM   19  O2  UNK     1      19.505 -10.406  38.825  1.00  0.00    -0.323 OA
HETATM   20  C5  UNK     1      19.811  -8.109  39.591  1.00  0.00     0.040 A 
HETATM   21  C6  UNK     1      20.195  -6.823  39.205  1.00  0.00     0.018 A 
ENDBRANCH   2  13
TORSDOF 4
ENDMDL
MODEL 10
REMARK VINA RESULT:      -7.8      6.322     11.085
REMARK  4 active torsions:
REMARK  status: ('A' for Active; 'I' for Inactive)
REMARK    1  A    between atoms: C14_18  and  O3_3 
REMARK    2  A    between atoms: C3_7  and  C8_12 
REMARK    3  A    between atoms: C10_14  and  C8_12 
REMARK    4  A    between atoms: C11_15  and  C9_13 
ROOT
HETATM    1  O4  UNK     1      21.642  -2.069  35.360  1.00  0.00    -0.288 OA
HETATM    2  C8  UNK     1      20.552  -2.375  35.869  1.00  0.00     0.182 C 
ENDROOT
BRANCH   2   3
HETATM    3  C10 UNK     1      20.453  -3.530  36.825  1.00  0.00     0.056 C 
HETATM    4  C11 UNK     1      20.051  -4.737  36.401  1.00  0.00     0.015 C 
BRANCH   4   5
HETATM    5  C9  UNK     1      19.910  -5.922  37.263  1.00  0.00    -0.034 A 
HETATM    6  C12 UNK     1      19.381  -7.088  36.733  1.00  0.00     0.048 A 
HETATM    7  C14 UNK     1      19.246  -8.210  37.552  1.00  0.00     0.069 A 
HETATM    8  C16 UNK     1      19.640  -8.150  38.888  1.00  0.00     0.037 A 
HETATM    9  C15 UNK     1      20.169  -6.968  39.407  1.00  0.00     0.004 A 
HETATM   10  C13 UNK     1      20.305  -5.847  38.589  1.00  0.00     0.011 A 
BRANCH   7  11
HETATM   11  O3  UNK     1      18.727  -9.363  37.046  1.00  0.00    -0.356 OA
HETATM   12  C17 UNK     1      19.461 -10.563  37.282  1.00  0.00     0.210 C 
ENDBRANCH   7  11
ENDBRANCH   4   5
ENDBRANCH   2   3
BRANCH   2  13
HETATM   13  C3  UNK     1      19.341  -1.645  35.529  1.00  0.00     0.017 A 
HETATM   14  C4  UNK     1      18.503  -1.184  36.546  1.00  0.00     0.055 A 
HETATM   15  C1  UNK     1      17.364  -0.497  36.176  1.00  0.00     0.105 A 
HETATM   16  O1  UNK     1      16.434   0.022  37.023  1.00  0.00    -0.323 OA
HETATM   17  C2  UNK     1      17.055  -0.267  34.855  1.00  0.00     0.105 A 
HETATM   18  C7  UNK     1      15.505   0.605  36.087  1.00  0.00     0.352 A 
HETATM   19  O2  UNK     1      15.892   0.424  34.710  1.00  0.00    -0.323 OA
HETATM   20  C5  UNK     1      17.866  -0.712  33.832  1.00  0.00     0.040 A 
HETATM   21  C6  UNK     1      19.024  -1.410  34.179  1.00  0.00     0.018 A 
ENDBRANCH   2  13
TORSDOF 4
ENDMDL
