MODEL 1
REMARK VINA RESULT:      -7.5      0.000      0.000
REMARK  3 active torsions:
REMARK  status: ('A' for Active; 'I' for Inactive)
REMARK    1  A    between atoms: C15_19  and  O2_3 
REMARK    2  A    between atoms: C8_12  and  O2_3 
REMARK    3  A    between atoms: C2_6  and  C5_9 
ROOT
HETATM    1  O1  UNK     1      17.919   4.172  33.513  1.00  0.00    -0.321 OA
HETATM    2  O3  UNK     1      18.522   6.956  30.592  1.00  0.00    -0.286 OA
HETATM    3  C1  UNK     1      18.445   4.683  31.200  1.00  0.00     0.049 A 
HETATM    4  C2  UNK     1      17.953   6.512  32.860  1.00  0.00     0.048 A 
HETATM    5  C3  UNK     1      18.239   3.778  32.240  1.00  0.00     0.091 A 
HETATM    6  C4  UNK     1      18.320   6.127  31.469  1.00  0.00     0.197 A 
HETATM    7  C6  UNK     1      18.770   4.222  29.921  1.00  0.00     0.021 A 
HETATM    8  C7  UNK     1      18.357   2.407  32.007  1.00  0.00     0.075 A 
HETATM    9  C8  UNK     1      18.681   1.945  30.732  1.00  0.00     0.071 A 
HETATM   10  C9  UNK     1      17.785   5.520  33.748  1.00  0.00     0.159 A 
HETATM   11  C10 UNK     1      18.886   2.851  29.691  1.00  0.00     0.038 A 
ENDROOT
BRANCH   4  12
HETATM   12  C5  UNK     1      17.757   7.916  33.255  1.00  0.00    -0.020 A 
HETATM   13  C11 UNK     1      18.846   8.684  33.673  1.00  0.00     0.014 A 
HETATM   14  C13 UNK     1      18.661  10.016  34.045  1.00  0.00     0.024 A 
HETATM   15  C16 UNK     1      17.387  10.582  34.001  1.00  0.00     0.034 A 
HETATM   16  C14 UNK     1      16.298   9.817  33.583  1.00  0.00     0.024 A 
HETATM   17 Cl1  UNK     1      17.159  12.225  34.460  1.00  0.00    -0.084 Cl
HETATM   18  C12 UNK     1      16.483   8.486  33.211  1.00  0.00     0.014 A 
ENDBRANCH   4  12
BRANCH   9  19
HETATM   19  O2  UNK     1      18.795   0.608  30.501  1.00  0.00    -0.351 OA
BRANCH  19  20
HETATM   20  C15 UNK     1      20.080   0.022  30.701  1.00  0.00     0.171 C 
HETATM   21  C17 UNK     1      20.649  -0.388  29.360  1.00  0.00     0.034 C 
ENDBRANCH  19  20
ENDBRANCH   9  19
TORSDOF 3
ENDMDL
MODEL 2
REMARK VINA RESULT:      -7.5      1.010      2.052
REMARK  3 active torsions:
REMARK  status: ('A' for Active; 'I' for Inactive)
REMARK    1  A    between atoms: C15_19  and  O2_3 
REMARK    2  A    between atoms: C8_12  and  O2_3 
REMARK    3  A    between atoms: C2_6  and  C5_9 
ROOT
HETATM    1  O1  UNK     1      18.793   5.006  29.662  1.00  0.00    -0.321 OA
HETATM    2  O3  UNK     1      17.686   4.601  33.568  1.00  0.00    -0.286 OA
HETATM    3  C1  UNK     1      18.390   3.567  31.574  1.00  0.00     0.049 A 
HETATM    4  C2  UNK     1      18.114   6.065  31.740  1.00  0.00     0.048 A 
HETATM    5  C3  UNK     1      18.750   3.764  30.242  1.00  0.00     0.091 A 
HETATM    6  C4  UNK     1      18.036   4.733  32.402  1.00  0.00     0.197 A 
HETATM    7  C6  UNK     1      18.365   2.277  32.111  1.00  0.00     0.021 A 
HETATM    8  C7  UNK     1      19.086   2.674  29.438  1.00  0.00     0.075 A 
HETATM    9  C8  UNK     1      19.060   1.386  29.972  1.00  0.00     0.071 A 
HETATM   10  C9  UNK     1      18.480   6.088  30.449  1.00  0.00     0.159 A 
HETATM   11  C10 UNK     1      18.701   1.188  31.306  1.00  0.00     0.038 A 
ENDROOT
BRANCH   4  12
HETATM   12  C5  UNK     1      17.824   7.314  32.462  1.00  0.00    -0.020 A 
HETATM   13  C11 UNK     1      18.801   7.898  33.271  1.00  0.00     0.014 A 
HETATM   14  C13 UNK     1      18.526   9.084  33.954  1.00  0.00     0.024 A 
HETATM   15  C16 UNK     1      17.275   9.687  33.830  1.00  0.00     0.034 A 
HETATM   16  C14 UNK     1      16.297   9.106  33.022  1.00  0.00     0.024 A 
HETATM   17 Cl1  UNK     1      16.937  11.149  34.672  1.00  0.00    -0.084 Cl
HETATM   18  C12 UNK     1      16.572   7.921  32.339  1.00  0.00     0.014 A 
ENDBRANCH   4  12
BRANCH   9  19
HETATM   19  O2  UNK     1      19.388   0.320  29.192  1.00  0.00    -0.351 OA
BRANCH  19  20
HETATM   20  C15 UNK     1      20.632  -0.325  29.463  1.00  0.00     0.171 C 
HETATM   21  C17 UNK     1      20.382  -1.800  29.694  1.00  0.00     0.034 C 
ENDBRANCH  19  20
ENDBRANCH   9  19
TORSDOF 3
ENDMDL
MODEL 3
REMARK VINA RESULT:      -7.4      3.589      7.981
REMARK  3 active torsions:
REMARK  status: ('A' for Active; 'I' for Inactive)
REMARK    1  A    between atoms: C15_19  and  O2_3 
REMARK    2  A    between atoms: C8_12  and  O2_3 
REMARK    3  A    between atoms: C2_6  and  C5_9 
ROOT
HETATM    1  O1  UNK     1      18.599   5.958  30.124  1.00  0.00    -0.321 OA
HETATM    2  O3  UNK     1      17.912   3.149  33.002  1.00  0.00    -0.286 OA
HETATM    3  C1  UNK     1      17.776   5.403  32.338  1.00  0.00     0.049 A 
HETATM    4  C2  UNK     1      18.687   3.628  30.802  1.00  0.00     0.048 A 
HETATM    5  C3  UNK     1      18.043   6.321  31.324  1.00  0.00     0.091 A 
HETATM    6  C4  UNK     1      18.103   3.982  32.126  1.00  0.00     0.197 A 
HETATM    7  C6  UNK     1      17.208   5.832  33.542  1.00  0.00     0.021 A 
HETATM    8  C7  UNK     1      17.745   7.672  31.505  1.00  0.00     0.075 A 
HETATM    9  C8  UNK     1      17.179   8.102  32.705  1.00  0.00     0.071 A 
HETATM   10  C9  UNK     1      18.881   4.627  29.929  1.00  0.00     0.159 A 
HETATM   11  C10 UNK     1      16.910   7.183  33.721  1.00  0.00     0.038 A 
ENDROOT
BRANCH   4  12
HETATM   12  C5  UNK     1      19.024   2.241  30.445  1.00  0.00    -0.020 A 
HETATM   13  C11 UNK     1      19.464   1.351  31.427  1.00  0.00     0.014 A 
HETATM   14  C13 UNK     1      19.781   0.034  31.088  1.00  0.00     0.024 A 
HETATM   15  C16 UNK     1      19.659  -0.394  29.766  1.00  0.00     0.034 A 
HETATM   16  C14 UNK     1      19.218   0.492  28.783  1.00  0.00     0.024 A 
HETATM   17 Cl1  UNK     1      20.049  -2.017  29.349  1.00  0.00    -0.084 Cl
HETATM   18  C12 UNK     1      18.901   1.808  29.122  1.00  0.00     0.014 A 
ENDBRANCH   4  12
BRANCH   9  19
HETATM   19  O2  UNK     1      16.885   9.418  32.886  1.00  0.00    -0.351 OA
BRANCH  19  20
HETATM   20  C15 UNK     1      17.290  10.011  34.119  1.00  0.00     0.171 C 
HETATM   21  C17 UNK     1      18.701  10.539  33.972  1.00  0.00     0.034 C 
ENDBRANCH  19  20
ENDBRANCH   9  19
TORSDOF 3
ENDMDL
MODEL 4
REMARK VINA RESULT:      -7.1      3.471      8.079
REMARK  3 active torsions:
REMARK  status: ('A' for Active; 'I' for Inactive)
REMARK    1  A    between atoms: C15_19  and  O2_3 
REMARK    2  A    between atoms: C8_12  and  O2_3 
REMARK    3  A    between atoms: C2_6  and  C5_9 
ROOT
HETATM    1  O1  UNK     1      19.194   8.461  33.601  1.00  0.00    -0.321 OA
HETATM    2  O3  UNK     1      15.841   6.785  31.990  1.00  0.00    -0.286 OA
HETATM    3  C1  UNK     1      16.831   8.624  33.076  1.00  0.00     0.049 A 
HETATM    4  C2  UNK     1      18.172   6.592  32.435  1.00  0.00     0.048 A 
HETATM    5  C3  UNK     1      18.004   9.143  33.621  1.00  0.00     0.091 A 
HETATM    6  C4  UNK     1      16.856   7.289  32.453  1.00  0.00     0.197 A 
HETATM    7  C6  UNK     1      15.646   9.365  33.127  1.00  0.00     0.021 A 
HETATM    8  C7  UNK     1      18.001  10.403  34.220  1.00  0.00     0.075 A 
HETATM    9  C8  UNK     1      16.821  11.143  34.271  1.00  0.00     0.071 A 
HETATM   10  C9  UNK     1      19.211   7.226  32.999  1.00  0.00     0.159 A 
HETATM   11  C10 UNK     1      15.645  10.626  33.725  1.00  0.00     0.038 A 
ENDROOT
BRANCH   4  12
HETATM   12  C5  UNK     1      18.346   5.271  31.810  1.00  0.00    -0.020 A 
HETATM   13  C11 UNK     1      18.083   4.110  32.539  1.00  0.00     0.014 A 
HETATM   14  C13 UNK     1      18.246   2.857  31.945  1.00  0.00     0.024 A 
HETATM   15  C16 UNK     1      18.673   2.764  30.621  1.00  0.00     0.034 A 
HETATM   16  C14 UNK     1      18.936   3.922  29.889  1.00  0.00     0.024 A 
HETATM   17 Cl1  UNK     1      18.874   1.219  29.889  1.00  0.00    -0.084 Cl
HETATM   18  C12 UNK     1      18.772   5.174  30.483  1.00  0.00     0.014 A 
ENDBRANCH   4  12
BRANCH   9  19
HETATM   19  O2  UNK     1      16.814  12.374  34.853  1.00  0.00    -0.351 OA
BRANCH  19  20
HETATM   20  C15 UNK     1      18.073  13.031  34.996  1.00  0.00     0.171 C 
HETATM   21  C17 UNK     1      18.199  14.092  33.924  1.00  0.00     0.034 C 
ENDBRANCH  19  20
ENDBRANCH   9  19
TORSDOF 3
ENDMDL
MODEL 5
REMARK VINA RESULT:      -7.0     15.475     17.232
REMARK  3 active torsions:
REMARK  status: ('A' for Active; 'I' for Inactive)
REMARK    1  A    between atoms: C15_19  and  O2_3 
REMARK    2  A    between atoms: C8_12  and  O2_3 
REMARK    3  A    between atoms: C2_6  and  C5_9 
ROOT
HETATM    1  O1  UNK     1      25.871  -5.090  38.831  1.00  0.00    -0.321 OA
HETATM    2  O3  UNK     1      26.084  -9.148  38.471  1.00  0.00    -0.286 OA
HETATM    3  C1  UNK     1      27.223  -7.096  38.647  1.00  0.00     0.049 A 
HETATM    4  C2  UNK     1      24.708  -7.218  38.700  1.00  0.00     0.048 A 
HETATM    5  C3  UNK     1      27.090  -5.713  38.759  1.00  0.00     0.091 A 
HETATM    6  C4  UNK     1      26.011  -7.933  38.599  1.00  0.00     0.197 A 
HETATM    7  C6  UNK     1      28.493  -7.676  38.577  1.00  0.00     0.021 A 
HETATM    8  C7  UNK     1      28.224  -4.901  38.802  1.00  0.00     0.075 A 
HETATM    9  C8  UNK     1      29.492  -5.478  38.732  1.00  0.00     0.071 A 
HETATM   10  C9  UNK     1      24.748  -5.881  38.806  1.00  0.00     0.159 A 
HETATM   11  C10 UNK     1      29.626  -6.863  38.621  1.00  0.00     0.038 A 
ENDROOT
BRANCH   4  12
HETATM   12  C5  UNK     1      23.423  -7.936  38.704  1.00  0.00    -0.020 A 
HETATM   13  C11 UNK     1      22.724  -8.114  39.899  1.00  0.00     0.014 A 
HETATM   14  C13 UNK     1      21.504  -8.793  39.903  1.00  0.00     0.024 A 
HETATM   15  C16 UNK     1      20.982  -9.294  38.711  1.00  0.00     0.034 A 
HETATM   16  C14 UNK     1      21.678  -9.116  37.515  1.00  0.00     0.024 A 
HETATM   17 Cl1  UNK     1      19.478 -10.130  38.715  1.00  0.00    -0.084 Cl
HETATM   18  C12 UNK     1      22.896  -8.438  37.511  1.00  0.00     0.014 A 
ENDBRANCH   4  12
BRANCH   9  19
HETATM   19  O2  UNK     1      30.601  -4.690  38.775  1.00  0.00    -0.351 OA
BRANCH  19  20
HETATM   20  C15 UNK     1      31.651  -4.997  37.858  1.00  0.00     0.171 C 
HETATM   21  C17 UNK     1      31.724  -3.907  36.810  1.00  0.00     0.034 C 
ENDBRANCH  19  20
ENDBRANCH   9  19
TORSDOF 3
ENDMDL
MODEL 6
REMARK VINA RESULT:      -7.0      7.534     11.145
REMARK  3 active torsions:
REMARK  status: ('A' for Active; 'I' for Inactive)
REMARK    1  A    between atoms: C15_19  and  O2_3 
REMARK    2  A    between atoms: C8_12  and  O2_3 
REMARK    3  A    between atoms: C2_6  and  C5_9 
ROOT
HETATM    1  O1  UNK     1      19.713  -1.893  33.928  1.00  0.00    -0.321 OA
HETATM    2  O3  UNK     1      18.601  -1.965  37.853  1.00  0.00    -0.286 OA
HETATM    3  C1  UNK     1      18.562  -0.839  35.786  1.00  0.00     0.049 A 
HETATM    4  C2  UNK     1      19.703  -3.068  36.054  1.00  0.00     0.048 A 
HETATM    5  C3  UNK     1      18.979  -0.862  34.456  1.00  0.00     0.091 A 
HETATM    6  C4  UNK     1      18.922  -1.961  36.672  1.00  0.00     0.197 A 
HETATM    7  C6  UNK     1      17.815   0.239  36.269  1.00  0.00     0.021 A 
HETATM    8  C7  UNK     1      18.652   0.191  33.601  1.00  0.00     0.075 A 
HETATM    9  C8  UNK     1      17.907   1.268  34.081  1.00  0.00     0.071 A 
HETATM   10  C9  UNK     1      20.026  -2.943  34.757  1.00  0.00     0.159 A 
HETATM   11  C10 UNK     1      17.489   1.292  35.412  1.00  0.00     0.038 A 
ENDROOT
BRANCH   4  12
HETATM   12  C5  UNK     1      20.094  -4.265  36.814  1.00  0.00    -0.020 A 
HETATM   13  C11 UNK     1      21.302  -4.287  37.516  1.00  0.00     0.014 A 
HETATM   14  C13 UNK     1      21.672  -5.421  38.239  1.00  0.00     0.024 A 
HETATM   15  C16 UNK     1      20.836  -6.537  38.262  1.00  0.00     0.034 A 
HETATM   16  C14 UNK     1      19.628  -6.518  37.563  1.00  0.00     0.024 A 
HETATM   17 Cl1  UNK     1      21.292  -7.936  39.154  1.00  0.00    -0.084 Cl
HETATM   18  C12 UNK     1      19.258  -5.384  36.840  1.00  0.00     0.014 A 
ENDBRANCH   4  12
BRANCH   9  19
HETATM   19  O2  UNK     1      17.586   2.297  33.250  1.00  0.00    -0.351 OA
BRANCH  19  20
HETATM   20  C15 UNK     1      18.259   3.537  33.462  1.00  0.00     0.171 C 
HETATM   21  C17 UNK     1      18.205   4.351  32.187  1.00  0.00     0.034 C 
ENDBRANCH  19  20
ENDBRANCH   9  19
TORSDOF 3
ENDMDL
MODEL 7
REMARK VINA RESULT:      -7.0      3.628      8.332
REMARK  3 active torsions:
REMARK  status: ('A' for Active; 'I' for Inactive)
REMARK    1  A    between atoms: C15_19  and  O2_3 
REMARK    2  A    between atoms: C8_12  and  O2_3 
REMARK    3  A    between atoms: C2_6  and  C5_9 
ROOT
HETATM    1  O1  UNK     1      18.138   9.246  33.975  1.00  0.00    -0.321 OA
HETATM    2  O3  UNK     1      15.372   7.475  31.555  1.00  0.00    -0.286 OA
HETATM    3  C1  UNK     1      15.940   9.286  32.947  1.00  0.00     0.049 A 
HETATM    4  C2  UNK     1      17.558   7.409  32.496  1.00  0.00     0.048 A 
HETATM    5  C3  UNK     1      16.918   9.839  33.771  1.00  0.00     0.091 A 
HETATM    6  C4  UNK     1      16.215   8.009  32.263  1.00  0.00     0.197 A 
HETATM    7  C6  UNK     1      14.714   9.936  32.777  1.00  0.00     0.021 A 
HETATM    8  C7  UNK     1      16.678  11.045  34.431  1.00  0.00     0.075 A 
HETATM    9  C8  UNK     1      15.455  11.695  34.263  1.00  0.00     0.071 A 
HETATM   10  C9  UNK     1      18.391   8.067  33.317  1.00  0.00     0.159 A 
HETATM   11  C10 UNK     1      14.476  11.142  33.437  1.00  0.00     0.038 A 
ENDROOT
BRANCH   4  12
HETATM   12  C5  UNK     1      17.976   6.157  31.845  1.00  0.00    -0.020 A 
HETATM   13  C11 UNK     1      18.636   6.193  30.615  1.00  0.00     0.014 A 
HETATM   14  C13 UNK     1      19.035   5.006  29.999  1.00  0.00     0.024 A 
HETATM   15  C16 UNK     1      18.774   3.781  30.611  1.00  0.00     0.034 A 
HETATM   16  C14 UNK     1      18.115   3.742  31.841  1.00  0.00     0.024 A 
HETATM   17 Cl1  UNK     1      19.266   2.318  29.851  1.00  0.00    -0.084 Cl
HETATM   18  C12 UNK     1      17.717   4.928  32.456  1.00  0.00     0.014 A 
ENDBRANCH   4  12
BRANCH   9  19
HETATM   19  O2  UNK     1      15.217  12.872  34.904  1.00  0.00    -0.351 OA
BRANCH  19  20
HETATM   20  C15 UNK     1      15.311  12.867  36.328  1.00  0.00     0.171 C 
HETATM   21  C17 UNK     1      13.978  12.443  36.908  1.00  0.00     0.034 C 
ENDBRANCH  19  20
ENDBRANCH   9  19
TORSDOF 3
ENDMDL
MODEL 8
REMARK VINA RESULT:      -7.0     15.914     17.377
REMARK  3 active torsions:
REMARK  status: ('A' for Active; 'I' for Inactive)
REMARK    1  A    between atoms: C15_19  and  O2_3 
REMARK    2  A    between atoms: C8_12  and  O2_3 
REMARK    3  A    between atoms: C2_6  and  C5_9 
ROOT
HETATM    1  O1  UNK     1      27.553  -8.888  38.452  1.00  0.00    -0.321 OA
HETATM    2  O3  UNK     1      25.303  -5.502  38.792  1.00  0.00    -0.286 OA
HETATM    3  C1  UNK     1      27.441  -6.470  38.625  1.00  0.00     0.049 A 
HETATM    4  C2  UNK     1      25.350  -7.873  38.575  1.00  0.00     0.048 A 
HETATM    5  C3  UNK     1      28.160  -7.660  38.519  1.00  0.00     0.091 A 
HETATM    6  C4  UNK     1      25.969  -6.521  38.670  1.00  0.00     0.197 A 
HETATM    7  C6  UNK     1      28.115  -5.247  38.690  1.00  0.00     0.021 A 
HETATM    8  C7  UNK     1      29.555  -7.635  38.479  1.00  0.00     0.075 A 
HETATM    9  C8  UNK     1      30.228  -6.415  38.545  1.00  0.00     0.071 A 
HETATM   10  C9  UNK     1      26.180  -8.922  38.474  1.00  0.00     0.159 A 
HETATM   11  C10 UNK     1      29.509  -5.223  38.649  1.00  0.00     0.038 A 
ENDROOT
BRANCH   4  12
HETATM   12  C5  UNK     1      23.891  -8.063  38.568  1.00  0.00    -0.020 A 
HETATM   13  C11 UNK     1      23.245  -8.496  37.408  1.00  0.00     0.014 A 
HETATM   14  C13 UNK     1      21.862  -8.679  37.403  1.00  0.00     0.024 A 
HETATM   15  C16 UNK     1      21.121  -8.429  38.558  1.00  0.00     0.034 A 
HETATM   16  C14 UNK     1      21.764  -7.998  39.719  1.00  0.00     0.024 A 
HETATM   17 Cl1  UNK     1      19.416  -8.655  38.552  1.00  0.00    -0.084 Cl
HETATM   18  C12 UNK     1      23.147  -7.816  39.724  1.00  0.00     0.014 A 
ENDBRANCH   4  12
BRANCH   9  19
HETATM   19  O2  UNK     1      31.588  -6.386  38.505  1.00  0.00    -0.351 OA
BRANCH  19  20
HETATM   20  C15 UNK     1      32.205  -5.116  38.299  1.00  0.00     0.171 C 
HETATM   21  C17 UNK     1      32.772  -5.065  36.896  1.00  0.00     0.034 C 
ENDBRANCH  19  20
ENDBRANCH   9  19
TORSDOF 3
ENDMDL
MODEL 9
REMARK VINA RESULT:      -7.0      9.101     11.909
REMARK  3 active torsions:
REMARK  status: ('A' for Active; 'I' for Inactive)
REMARK    1  A    between atoms: C15_19  and  O2_3 
REMARK    2  A    between atoms: C8_12  and  O2_3 
REMARK    3  A    between atoms: C2_6  and  C5_9 
ROOT
HETATM    1  O1  UNK     1      21.696  -5.212  37.370  1.00  0.00    -0.321 OA
HETATM    2  O3  UNK     1      17.711  -4.999  36.524  1.00  0.00    -0.286 OA
HETATM    3  C1  UNK     1      19.585  -6.345  36.984  1.00  0.00     0.049 A 
HETATM    4  C2  UNK     1      19.743  -3.832  36.943  1.00  0.00     0.048 A 
HETATM    5  C3  UNK     1      20.952  -6.358  37.260  1.00  0.00     0.091 A 
HETATM    6  C4  UNK     1      18.902  -5.053  36.797  1.00  0.00     0.197 A 
HETATM    7  C6  UNK     1      18.878  -7.547  36.883  1.00  0.00     0.021 A 
HETATM    8  C7  UNK     1      21.619  -7.571  37.436  1.00  0.00     0.075 A 
HETATM    9  C8  UNK     1      20.915  -8.771  37.336  1.00  0.00     0.071 A 
HETATM   10  C9  UNK     1      21.045  -4.012  37.214  1.00  0.00     0.159 A 
HETATM   11  C10 UNK     1      19.547  -8.759  37.061  1.00  0.00     0.038 A 
ENDROOT
BRANCH   4  12
HETATM   12  C5  UNK     1      19.180  -2.478  36.820  1.00  0.00    -0.020 A 
HETATM   13  C11 UNK     1      18.477  -1.912  37.886  1.00  0.00     0.014 A 
HETATM   14  C13 UNK     1      17.946  -0.627  37.770  1.00  0.00     0.024 A 
HETATM   15  C16 UNK     1      18.115   0.094  36.588  1.00  0.00     0.034 A 
HETATM   16  C14 UNK     1      18.818  -0.469  35.522  1.00  0.00     0.024 A 
HETATM   17 Cl1  UNK     1      17.460   1.678  36.445  1.00  0.00    -0.084 Cl
HETATM   18  C12 UNK     1      19.349  -1.753  35.638  1.00  0.00     0.014 A 
ENDBRANCH   4  12
BRANCH   9  19
HETATM   19  O2  UNK     1      21.562  -9.956  37.509  1.00  0.00    -0.351 OA
BRANCH  19  20
HETATM   20  C15 UNK     1      21.327 -10.972  36.535  1.00  0.00     0.171 C 
HETATM   21  C17 UNK     1      22.190 -10.700  35.321  1.00  0.00     0.034 C 
ENDBRANCH  19  20
ENDBRANCH   9  19
TORSDOF 3
ENDMDL
MODEL 10
REMARK VINA RESULT:      -6.9     23.221     24.815
REMARK  3 active torsions:
REMARK  status: ('A' for Active; 'I' for Inactive)
REMARK    1  A    between atoms: C15_19  and  O2_3 
REMARK    2  A    between atoms: C8_12  and  O2_3 
REMARK    3  A    between atoms: C2_6  and  C5_9 
ROOT
HETATM    1  O1  UNK     1      11.200   8.435   9.920  1.00  0.00    -0.321 OA
HETATM    2  O3  UNK     1      13.733   7.449   6.878  1.00  0.00    -0.286 OA
HETATM    3  C1  UNK     1      11.594   7.251   7.839  1.00  0.00     0.049 A 
HETATM    4  C2  UNK     1      13.387   8.672   8.891  1.00  0.00     0.048 A 
HETATM    5  C3  UNK     1      10.776   7.612   8.909  1.00  0.00     0.091 A 
HETATM    6  C4  UNK     1      12.974   7.766   7.784  1.00  0.00     0.197 A 
HETATM    7  C6  UNK     1      11.107   6.407   6.836  1.00  0.00     0.021 A 
HETATM    8  C7  UNK     1       9.468   7.132   8.983  1.00  0.00     0.075 A 
HETATM    9  C8  UNK     1       8.981   6.290   7.984  1.00  0.00     0.071 A 
HETATM   10  C9  UNK     1      12.482   8.926   9.848  1.00  0.00     0.159 A 
HETATM   11  C10 UNK     1       9.798   5.929   6.912  1.00  0.00     0.038 A 
ENDROOT
BRANCH   4  12
HETATM   12  C5  UNK     1      14.723   9.287   8.938  1.00  0.00    -0.020 A 
HETATM   13  C11 UNK     1      14.976  10.469   8.239  1.00  0.00     0.014 A 
HETATM   14  C13 UNK     1      16.242  11.053   8.285  1.00  0.00     0.024 A 
HETATM   15  C16 UNK     1      17.259  10.456   9.029  1.00  0.00     0.034 A 
HETATM   16  C14 UNK     1      17.010   9.275   9.730  1.00  0.00     0.024 A 
HETATM   17 Cl1  UNK     1      18.820  11.177   9.087  1.00  0.00    -0.084 Cl
HETATM   18  C12 UNK     1      15.744   8.692   9.684  1.00  0.00     0.014 A 
ENDBRANCH   4  12
BRANCH   9  19
HETATM   19  O2  UNK     1       7.705   5.821   8.052  1.00  0.00    -0.351 OA
BRANCH  19  20
HETATM   20  C15 UNK     1       7.212   5.465   9.343  1.00  0.00     0.171 C 
HETATM   21  C17 UNK     1       7.088   3.959   9.425  1.00  0.00     0.034 C 
ENDBRANCH  19  20
ENDBRANCH   9  19
TORSDOF 3
ENDMDL
