MODEL 1
REMARK VINA RESULT:     -10.5      0.000      0.000
REMARK  4 active torsions:
REMARK  status: ('A' for Active; 'I' for Inactive)
REMARK       I    between atoms: C12_18  and  N2_6 
REMARK    1  A    between atoms: C6_12  and  N2_6 
REMARK    2  A    between atoms: C1_7  and  C2_8 
REMARK    3  A    between atoms: C2_8  and  C6_12 
REMARK    4  A    between atoms: C12_18  and  C13_19 
ROOT
HETATM    1  O2  UNK     1      17.942   2.587  28.511  1.00  0.00    -0.267 OA
HETATM    2  N2  UNK     1      19.020   3.847  30.150  1.00  0.00    -0.356 N 
HETATM    3  C12 UNK     1      18.574   2.677  29.562  1.00  0.00     0.257 C 
HETATM    4  H11 UNK     1      19.565   3.812  31.007  1.00  0.00     0.162 HD
ENDROOT
BRANCH   2   5
HETATM    5  C6  UNK     1      18.789   5.154  29.579  1.00  0.00     0.127 C 
BRANCH   5   6
HETATM    6  C2  UNK     1      19.655   6.237  30.221  1.00  0.00     0.061 C 
BRANCH   6   7
HETATM    7  C1  UNK     1      19.370   6.435  31.682  1.00  0.00    -0.022 A 
HETATM    8  C3  UNK     1      18.104   6.705  32.240  1.00  0.00     0.002 A 
HETATM    9  C5  UNK     1      18.298   6.813  33.618  1.00  0.00     0.043 A 
HETATM   10  C7  UNK     1      16.803   6.871  31.723  1.00  0.00     0.056 A 
HETATM   11  N1  UNK     1      19.640   6.612  33.855  1.00  0.00    -0.359 N 
HETATM   12  C9  UNK     1      17.253   7.080  34.510  1.00  0.00     0.033 A 
HETATM   13  C4  UNK     1      20.298   6.381  32.678  1.00  0.00     0.013 A 
HETATM   14  H3  UNK     1      20.070   6.632  34.769  1.00  0.00     0.166 HD
HETATM   15  C8  UNK     1      21.753   6.132  32.655  1.00  0.00     0.068 C 
HETATM   16  C11 UNK     1      15.972   7.241  33.974  1.00  0.00     0.044 A 
HETATM   17  C10 UNK     1      15.748   7.139  32.602  1.00  0.00     0.117 A 
HETATM   18  F1  UNK     1      14.509   7.296  32.119  1.00  0.00    -0.206 F 
ENDBRANCH   6   7
ENDBRANCH   5   6
ENDBRANCH   2   5
BRANCH   3  19
HETATM   19  C13 UNK     1      18.934   1.479  30.329  1.00  0.00     0.108 A 
HETATM   20  C15 UNK     1      19.567   0.513  29.655  1.00  0.00     0.037 A 
HETATM   21  C14 UNK     1      19.964  -0.714  30.329  1.00  0.00    -0.001 A 
HETATM   22  C16 UNK     1      19.674  -0.862  31.681  1.00  0.00     0.089 A 
HETATM   23  C18 UNK     1      20.627  -1.748  29.664  1.00  0.00     0.014 A 
HETATM   24  O1  UNK     1      19.006   0.158  32.386  1.00  0.00    -0.274 OA
HETATM   25  C19 UNK     1      20.027  -2.013  32.385  1.00  0.00     0.038 A 
HETATM   26  C17 UNK     1      18.614   1.342  31.768  1.00  0.00     0.304 A 
HETATM   27  O3  UNK     1      18.032   2.225  32.390  1.00  0.00    -0.259 OA
HETATM   28  C21 UNK     1      20.687  -3.039  31.714  1.00  0.00     0.003 A 
HETATM   29  C20 UNK     1      20.988  -2.907  30.356  1.00  0.00     0.001 A 
ENDBRANCH   3  19
TORSDOF 4
ENDMDL
MODEL 2
REMARK VINA RESULT:     -10.3      1.499      2.456
REMARK  4 active torsions:
REMARK  status: ('A' for Active; 'I' for Inactive)
REMARK       I    between atoms: C12_18  and  N2_6 
REMARK    1  A    between atoms: C6_12  and  N2_6 
REMARK    2  A    between atoms: C1_7  and  C2_8 
REMARK    3  A    between atoms: C2_8  and  C6_12 
REMARK    4  A    between atoms: C12_18  and  C13_19 
ROOT
HETATM    1  O2  UNK     1      17.453   3.767  31.925  1.00  0.00    -0.267 OA
HETATM    2  N2  UNK     1      19.024   4.783  30.534  1.00  0.00    -0.356 N 
HETATM    3  C12 UNK     1      18.327   3.711  31.062  1.00  0.00     0.257 C 
HETATM    4  H11 UNK     1      19.707   4.635  29.797  1.00  0.00     0.162 HD
ENDROOT
BRANCH   2   5
HETATM    5  C6  UNK     1      18.801   6.149  30.949  1.00  0.00     0.127 C 
BRANCH   5   6
HETATM    6  C2  UNK     1      19.154   6.383  32.417  1.00  0.00     0.061 C 
BRANCH   6   7
HETATM    7  C1  UNK     1      18.351   7.481  33.052  1.00  0.00    -0.022 A 
HETATM    8  C3  UNK     1      16.958   7.656  32.921  1.00  0.00     0.002 A 
HETATM    9  C5  UNK     1      16.634   8.788  33.671  1.00  0.00     0.043 A 
HETATM   10  C7  UNK     1      15.928   6.974  32.243  1.00  0.00     0.056 A 
HETATM   11  N1  UNK     1      17.804   9.258  34.223  1.00  0.00    -0.359 N 
HETATM   12  C9  UNK     1      15.325   9.275  33.778  1.00  0.00     0.033 A 
HETATM   13  C4  UNK     1      18.854   8.464  33.849  1.00  0.00     0.013 A 
HETATM   14  H3  UNK     1      17.872  10.072  34.818  1.00  0.00     0.166 HD
HETATM   15  C8  UNK     1      20.227   8.751  34.309  1.00  0.00     0.068 C 
HETATM   16  C11 UNK     1      14.321   8.581  33.096  1.00  0.00     0.044 A 
HETATM   17  C10 UNK     1      14.615   7.449  32.340  1.00  0.00     0.117 A 
HETATM   18  F1  UNK     1      13.630   6.804  31.700  1.00  0.00    -0.206 F 
ENDBRANCH   6   7
ENDBRANCH   5   6
ENDBRANCH   2   5
BRANCH   3  19
HETATM   19  C13 UNK     1      18.729   2.426  30.479  1.00  0.00     0.108 A 
HETATM   20  C15 UNK     1      19.248   1.529  31.326  1.00  0.00     0.037 A 
HETATM   21  C14 UNK     1      19.678   0.226  30.842  1.00  0.00    -0.001 A 
HETATM   22  C16 UNK     1      19.540  -0.068  29.490  1.00  0.00     0.089 A 
HETATM   23  C18 UNK     1      20.225  -0.740  31.690  1.00  0.00     0.014 A 
HETATM   24  O1  UNK     1      18.993   0.880  28.603  1.00  0.00    -0.274 OA
HETATM   25  C19 UNK     1      19.932  -1.298  28.963  1.00  0.00     0.038 A 
HETATM   26  C17 UNK     1      18.573   2.134  29.036  1.00  0.00     0.304 A 
HETATM   27  O3  UNK     1      18.099   2.954  28.257  1.00  0.00    -0.259 OA
HETATM   28  C21 UNK     1      20.476  -2.255  29.815  1.00  0.00     0.003 A 
HETATM   29  C20 UNK     1      20.622  -1.978  31.177  1.00  0.00     0.001 A 
ENDBRANCH   3  19
TORSDOF 4
ENDMDL
MODEL 3
REMARK VINA RESULT:      -9.9      2.558      3.545
REMARK  4 active torsions:
REMARK  status: ('A' for Active; 'I' for Inactive)
REMARK       I    between atoms: C12_18  and  N2_6 
REMARK    1  A    between atoms: C6_12  and  N2_6 
REMARK    2  A    between atoms: C1_7  and  C2_8 
REMARK    3  A    between atoms: C2_8  and  C6_12 
REMARK    4  A    between atoms: C12_18  and  C13_19 
ROOT
HETATM    1  O2  UNK     1      18.724   4.414  30.014  1.00  0.00    -0.267 OA
HETATM    2  N2  UNK     1      17.733   4.360  32.124  1.00  0.00    -0.356 N 
HETATM    3  C12 UNK     1      18.404   3.819  31.042  1.00  0.00     0.257 C 
HETATM    4  H11 UNK     1      17.544   3.791  32.944  1.00  0.00     0.162 HD
ENDROOT
BRANCH   2   5
HETATM    5  C6  UNK     1      17.312   5.741  32.179  1.00  0.00     0.127 C 
BRANCH   5   6
HETATM    6  C2  UNK     1      17.043   6.217  33.606  1.00  0.00     0.061 C 
BRANCH   6   7
HETATM    7  C1  UNK     1      16.830   7.700  33.706  1.00  0.00    -0.022 A 
HETATM    8  C3  UNK     1      17.841   8.659  33.923  1.00  0.00     0.002 A 
HETATM    9  C5  UNK     1      17.204   9.901  33.945  1.00  0.00     0.043 A 
HETATM   10  C7  UNK     1      19.238   8.610  34.106  1.00  0.00     0.056 A 
HETATM   11  N1  UNK     1      15.861   9.672  33.746  1.00  0.00    -0.359 N 
HETATM   12  C9  UNK     1      17.897  11.102  34.141  1.00  0.00     0.033 A 
HETATM   13  C4  UNK     1      15.628   8.331  33.600  1.00  0.00     0.013 A 
HETATM   14  H3  UNK     1      15.154  10.393  33.713  1.00  0.00     0.166 HD
HETATM   15  C8  UNK     1      14.263   7.817  33.372  1.00  0.00     0.068 C 
HETATM   16  C11 UNK     1      19.281  11.028  34.320  1.00  0.00     0.044 A 
HETATM   17  C10 UNK     1      19.944   9.802  34.303  1.00  0.00     0.117 A 
HETATM   18  F1  UNK     1      21.271   9.763  34.475  1.00  0.00    -0.206 F 
ENDBRANCH   6   7
ENDBRANCH   5   6
ENDBRANCH   2   5
BRANCH   3  19
HETATM   19  C13 UNK     1      18.728   2.400  31.223  1.00  0.00     0.108 A 
HETATM   20  C15 UNK     1      19.342   1.798  30.198  1.00  0.00     0.037 A 
HETATM   21  C14 UNK     1      19.703   0.391  30.282  1.00  0.00    -0.001 A 
HETATM   22  C16 UNK     1      19.399  -0.313  31.443  1.00  0.00     0.089 A 
HETATM   23  C18 UNK     1      20.345  -0.277  29.236  1.00  0.00     0.014 A 
HETATM   24  O1  UNK     1      18.752   0.326  32.518  1.00  0.00    -0.274 OA
HETATM   25  C19 UNK     1      19.718  -1.662  31.587  1.00  0.00     0.038 A 
HETATM   26  C17 UNK     1      18.395   1.670  32.467  1.00  0.00     0.304 A 
HETATM   27  O3  UNK     1      17.831   2.218  33.408  1.00  0.00    -0.259 OA
HETATM   28  C21 UNK     1      20.357  -2.321  30.540  1.00  0.00     0.003 A 
HETATM   29  C20 UNK     1      20.671  -1.630  29.366  1.00  0.00     0.001 A 
ENDBRANCH   3  19
TORSDOF 4
ENDMDL
MODEL 4
REMARK VINA RESULT:      -9.8      2.039      3.096
REMARK  4 active torsions:
REMARK  status: ('A' for Active; 'I' for Inactive)
REMARK       I    between atoms: C12_18  and  N2_6 
REMARK    1  A    between atoms: C6_12  and  N2_6 
REMARK    2  A    between atoms: C1_7  and  C2_8 
REMARK    3  A    between atoms: C2_8  and  C6_12 
REMARK    4  A    between atoms: C12_18  and  C13_19 
ROOT
HETATM    1  O2  UNK     1      17.541   2.263  29.921  1.00  0.00    -0.267 OA
HETATM    2  N2  UNK     1      19.097   3.729  30.851  1.00  0.00    -0.356 N 
HETATM    3  C12 UNK     1      18.299   2.599  30.829  1.00  0.00     0.257 C 
HETATM    4  H11 UNK     1      19.717   3.901  31.637  1.00  0.00     0.162 HD
ENDROOT
BRANCH   2   5
HETATM    5  C6  UNK     1      19.137   4.687  29.771  1.00  0.00     0.127 C 
BRANCH   5   6
HETATM    6  C2  UNK     1      19.620   6.064  30.223  1.00  0.00     0.061 C 
BRANCH   6   7
HETATM    7  C1  UNK     1      19.357   6.337  31.676  1.00  0.00    -0.022 A 
HETATM    8  C3  UNK     1      18.095   6.613  32.241  1.00  0.00     0.002 A 
HETATM    9  C5  UNK     1      18.311   6.802  33.607  1.00  0.00     0.043 A 
HETATM   10  C7  UNK     1      16.783   6.725  31.739  1.00  0.00     0.056 A 
HETATM   11  N1  UNK     1      19.660   6.639  33.831  1.00  0.00    -0.359 N 
HETATM   12  C9  UNK     1      17.275   7.097  34.502  1.00  0.00     0.033 A 
HETATM   13  C4  UNK     1      20.302   6.356  32.656  1.00  0.00     0.013 A 
HETATM   14  H3  UNK     1      20.105   6.719  34.734  1.00  0.00     0.166 HD
HETATM   15  C8  UNK     1      21.761   6.135  32.621  1.00  0.00     0.068 C 
HETATM   16  C11 UNK     1      15.982   7.204  33.981  1.00  0.00     0.044 A 
HETATM   17  C10 UNK     1      15.737   7.021  32.622  1.00  0.00     0.117 A 
HETATM   18  F1  UNK     1      14.487   7.127  32.153  1.00  0.00    -0.206 F 
ENDBRANCH   6   7
ENDBRANCH   5   6
ENDBRANCH   2   5
BRANCH   3  19
HETATM   19  C13 UNK     1      18.435   1.780  32.038  1.00  0.00     0.108 A 
HETATM   20  C15 UNK     1      18.052   2.352  33.186  1.00  0.00     0.037 A 
HETATM   21  C14 UNK     1      18.150   1.619  34.439  1.00  0.00    -0.001 A 
HETATM   22  C16 UNK     1      18.647   0.320  34.422  1.00  0.00     0.089 A 
HETATM   23  C18 UNK     1      17.761   2.177  35.660  1.00  0.00     0.014 A 
HETATM   24  O1  UNK     1      19.049  -0.276  33.212  1.00  0.00    -0.274 OA
HETATM   25  C19 UNK     1      18.766  -0.435  35.588  1.00  0.00     0.038 A 
HETATM   26  C17 UNK     1      18.967   0.399  31.997  1.00  0.00     0.304 A 
HETATM   27  O3  UNK     1      19.321  -0.128  30.948  1.00  0.00    -0.259 OA
HETATM   28  C21 UNK     1      18.377   0.129  36.800  1.00  0.00     0.003 A 
HETATM   29  C20 UNK     1      17.874   1.432  36.837  1.00  0.00     0.001 A 
ENDBRANCH   3  19
TORSDOF 4
ENDMDL
MODEL 5
REMARK VINA RESULT:      -9.8      7.850     12.794
REMARK  4 active torsions:
REMARK  status: ('A' for Active; 'I' for Inactive)
REMARK       I    between atoms: C12_18  and  N2_6 
REMARK    1  A    between atoms: C6_12  and  N2_6 
REMARK    2  A    between atoms: C1_7  and  C2_8 
REMARK    3  A    between atoms: C2_8  and  C6_12 
REMARK    4  A    between atoms: C12_18  and  C13_19 
ROOT
HETATM    1  O2  UNK     1      20.521  -4.674  36.559  1.00  0.00    -0.267 OA
HETATM    2  N2  UNK     1      18.199  -4.834  36.690  1.00  0.00    -0.356 N 
HETATM    3  C12 UNK     1      19.400  -4.172  36.509  1.00  0.00     0.257 C 
HETATM    4  H11 UNK     1      17.320  -4.334  36.595  1.00  0.00     0.162 HD
ENDROOT
BRANCH   2   5
HETATM    5  C6  UNK     1      18.114  -6.249  36.969  1.00  0.00     0.127 C 
BRANCH   5   6
HETATM    6  C2  UNK     1      18.132  -7.101  35.701  1.00  0.00     0.061 C 
BRANCH   6   7
HETATM    7  C1  UNK     1      19.381  -7.923  35.556  1.00  0.00    -0.022 A 
HETATM    8  C3  UNK     1      19.709  -9.056  36.328  1.00  0.00     0.002 A 
HETATM    9  C5  UNK     1      20.946  -9.503  35.860  1.00  0.00     0.043 A 
HETATM   10  C7  UNK     1      19.088  -9.756  37.381  1.00  0.00     0.056 A 
HETATM   11  N1  UNK     1      21.326  -8.655  34.844  1.00  0.00    -0.359 N 
HETATM   12  C9  UNK     1      21.596 -10.622  36.395  1.00  0.00     0.033 A 
HETATM   13  C4  UNK     1      20.375  -7.690  34.655  1.00  0.00     0.013 A 
HETATM   14  H3  UNK     1      22.185  -8.739  34.317  1.00  0.00     0.166 HD
HETATM   15  C8  UNK     1      20.541  -6.651  33.618  1.00  0.00     0.068 C 
HETATM   16  C11 UNK     1      20.961 -11.301  37.439  1.00  0.00     0.044 A 
HETATM   17  C10 UNK     1      19.726 -10.876  37.926  1.00  0.00     0.117 A 
HETATM   18  F1  UNK     1      19.142 -11.549  38.927  1.00  0.00    -0.206 F 
ENDBRANCH   6   7
ENDBRANCH   5   6
ENDBRANCH   2   5
BRANCH   3  19
HETATM   19  C13 UNK     1      19.227  -2.741  36.234  1.00  0.00     0.108 A 
HETATM   20  C15 UNK     1      18.469  -2.060  37.101  1.00  0.00     0.037 A 
HETATM   21  C14 UNK     1      18.238  -0.636  36.913  1.00  0.00    -0.001 A 
HETATM   22  C16 UNK     1      18.816   0.001  35.820  1.00  0.00     0.089 A 
HETATM   23  C18 UNK     1      17.454   0.114  37.793  1.00  0.00     0.014 A 
HETATM   24  O1  UNK     1      19.612  -0.722  34.910  1.00  0.00    -0.274 OA
HETATM   25  C19 UNK     1      18.634   1.362  35.583  1.00  0.00     0.038 A 
HETATM   26  C17 UNK     1      19.852  -2.084  35.064  1.00  0.00     0.304 A 
HETATM   27  O3  UNK     1      20.546  -2.705  34.266  1.00  0.00    -0.259 OA
HETATM   28  C21 UNK     1      17.851   2.102  36.465  1.00  0.00     0.003 A 
HETATM   29  C20 UNK     1      17.262   1.480  37.569  1.00  0.00     0.001 A 
ENDBRANCH   3  19
TORSDOF 4
ENDMDL
MODEL 6
REMARK VINA RESULT:      -9.8      2.290      2.803
REMARK  4 active torsions:
REMARK  status: ('A' for Active; 'I' for Inactive)
REMARK       I    between atoms: C12_18  and  N2_6 
REMARK    1  A    between atoms: C6_12  and  N2_6 
REMARK    2  A    between atoms: C1_7  and  C2_8 
REMARK    3  A    between atoms: C2_8  and  C6_12 
REMARK    4  A    between atoms: C12_18  and  C13_19 
ROOT
HETATM    1  O2  UNK     1      18.847   4.827  30.357  1.00  0.00    -0.267 OA
HETATM    2  N2  UNK     1      17.383   4.575  32.154  1.00  0.00    -0.356 N 
HETATM    3  C12 UNK     1      18.312   4.141  31.226  1.00  0.00     0.257 C 
HETATM    4  H11 UNK     1      17.023   3.934  32.855  1.00  0.00     0.162 HD
ENDROOT
BRANCH   2   5
HETATM    5  C6  UNK     1      16.911   5.939  32.217  1.00  0.00     0.127 C 
BRANCH   5   6
HETATM    6  C2  UNK     1      16.964   6.515  33.631  1.00  0.00     0.061 C 
BRANCH   6   7
HETATM    7  C1  UNK     1      17.969   7.621  33.785  1.00  0.00    -0.022 A 
HETATM    8  C3  UNK     1      17.663   8.991  33.915  1.00  0.00     0.002 A 
HETATM    9  C5  UNK     1      18.886   9.655  34.032  1.00  0.00     0.043 A 
HETATM   10  C7  UNK     1      16.475   9.748  33.947  1.00  0.00     0.056 A 
HETATM   11  N1  UNK     1      19.874   8.698  33.972  1.00  0.00    -0.359 N 
HETATM   12  C9  UNK     1      18.980  11.043  34.180  1.00  0.00     0.033 A 
HETATM   13  C4  UNK     1      19.320   7.456  33.821  1.00  0.00     0.013 A 
HETATM   14  H3  UNK     1      20.865   8.891  34.031  1.00  0.00     0.166 HD
HETATM   15  C8  UNK     1      20.167   6.250  33.731  1.00  0.00     0.068 C 
HETATM   16  C11 UNK     1      17.788  11.773  34.208  1.00  0.00     0.044 A 
HETATM   17  C10 UNK     1      16.554  11.137  34.094  1.00  0.00     0.117 A 
HETATM   18  F1  UNK     1      15.429  11.863  34.127  1.00  0.00    -0.206 F 
ENDBRANCH   6   7
ENDBRANCH   5   6
ENDBRANCH   2   5
BRANCH   3  19
HETATM   19  C13 UNK     1      18.634   2.716  31.364  1.00  0.00     0.108 A 
HETATM   20  C15 UNK     1      19.154   2.119  30.285  1.00  0.00     0.037 A 
HETATM   21  C14 UNK     1      19.505   0.708  30.325  1.00  0.00    -0.001 A 
HETATM   22  C16 UNK     1      19.290  -0.006  31.499  1.00  0.00     0.089 A 
HETATM   23  C18 UNK     1      20.050   0.045  29.222  1.00  0.00     0.014 A 
HETATM   24  O1  UNK     1      18.742   0.627  32.631  1.00  0.00    -0.274 OA
HETATM   25  C19 UNK     1      19.605  -1.360  31.602  1.00  0.00     0.038 A 
HETATM   26  C17 UNK     1      18.397   1.976  32.625  1.00  0.00     0.304 A 
HETATM   27  O3  UNK     1      17.920   2.519  33.615  1.00  0.00    -0.259 OA
HETATM   28  C21 UNK     1      20.147  -2.013  30.499  1.00  0.00     0.003 A 
HETATM   29  C20 UNK     1      20.371  -1.313  29.311  1.00  0.00     0.001 A 
ENDBRANCH   3  19
TORSDOF 4
ENDMDL
MODEL 7
REMARK VINA RESULT:      -9.7      6.256      9.366
REMARK  4 active torsions:
REMARK  status: ('A' for Active; 'I' for Inactive)
REMARK       I    between atoms: C12_18  and  N2_6 
REMARK    1  A    between atoms: C6_12  and  N2_6 
REMARK    2  A    between atoms: C1_7  and  C2_8 
REMARK    3  A    between atoms: C2_8  and  C6_12 
REMARK    4  A    between atoms: C12_18  and  C13_19 
ROOT
HETATM    1  O2  UNK     1      20.521  -3.491  37.769  1.00  0.00    -0.267 OA
HETATM    2  N2  UNK     1      19.875  -3.562  35.529  1.00  0.00    -0.356 N 
HETATM    3  C12 UNK     1      20.205  -4.112  36.755  1.00  0.00     0.257 C 
HETATM    4  H11 UNK     1      19.595  -4.162  34.759  1.00  0.00     0.162 HD
ENDROOT
BRANCH   2   5
HETATM    5  C6  UNK     1      19.861  -2.138  35.283  1.00  0.00     0.127 C 
BRANCH   5   6
HETATM    6  C2  UNK     1      18.555  -1.664  34.648  1.00  0.00     0.061 C 
BRANCH   6   7
HETATM    7  C1  UNK     1      18.762  -0.710  33.507  1.00  0.00    -0.022 A 
HETATM    8  C3  UNK     1      19.390  -1.021  32.284  1.00  0.00     0.002 A 
HETATM    9  C5  UNK     1      19.365   0.149  31.523  1.00  0.00     0.043 A 
HETATM   10  C7  UNK     1      19.981  -2.176  31.734  1.00  0.00     0.056 A 
HETATM   11  N1  UNK     1      18.740   1.113  32.282  1.00  0.00    -0.359 N 
HETATM   12  C9  UNK     1      19.904   0.223  30.233  1.00  0.00     0.033 A 
HETATM   13  C4  UNK     1      18.371   0.595  33.493  1.00  0.00     0.013 A 
HETATM   14  H3  UNK     1      18.580   2.065  31.982  1.00  0.00     0.166 HD
HETATM   15  C8  UNK     1      17.678   1.426  34.497  1.00  0.00     0.068 C 
HETATM   16  C11 UNK     1      20.486  -0.935  29.709  1.00  0.00     0.044 A 
HETATM   17  C10 UNK     1      20.525  -2.117  30.446  1.00  0.00     0.117 A 
HETATM   18  F1  UNK     1      21.087  -3.211  29.915  1.00  0.00    -0.206 F 
ENDBRANCH   6   7
ENDBRANCH   5   6
ENDBRANCH   2   5
BRANCH   3  19
HETATM   19  C13 UNK     1      20.145  -5.577  36.758  1.00  0.00     0.108 A 
HETATM   20  C15 UNK     1      20.029  -6.163  37.956  1.00  0.00     0.037 A 
HETATM   21  C14 UNK     1      19.962  -7.612  38.061  1.00  0.00    -0.001 A 
HETATM   22  C16 UNK     1      20.020  -8.375  36.899  1.00  0.00     0.089 A 
HETATM   23  C18 UNK     1      19.842  -8.265  39.290  1.00  0.00     0.014 A 
HETATM   24  O1  UNK     1      20.142  -7.753  35.641  1.00  0.00    -0.274 OA
HETATM   25  C19 UNK     1      19.961  -9.767  36.931  1.00  0.00     0.038 A 
HETATM   26  C17 UNK     1      20.208  -6.369  35.508  1.00  0.00     0.304 A 
HETATM   27  O3  UNK     1      20.315  -5.836  34.409  1.00  0.00    -0.259 OA
HETATM   28  C21 UNK     1      19.842 -10.409  38.160  1.00  0.00     0.003 A 
HETATM   29  C20 UNK     1      19.781  -9.660  39.339  1.00  0.00     0.001 A 
ENDBRANCH   3  19
TORSDOF 4
ENDMDL
MODEL 8
REMARK VINA RESULT:      -9.6      1.892      2.633
REMARK  4 active torsions:
REMARK  status: ('A' for Active; 'I' for Inactive)
REMARK       I    between atoms: C12_18  and  N2_6 
REMARK    1  A    between atoms: C6_12  and  N2_6 
REMARK    2  A    between atoms: C1_7  and  C2_8 
REMARK    3  A    between atoms: C2_8  and  C6_12 
REMARK    4  A    between atoms: C12_18  and  C13_19 
ROOT
HETATM    1  O2  UNK     1      17.298   4.068  31.633  1.00  0.00    -0.267 OA
HETATM    2  N2  UNK     1      18.489   3.964  33.634  1.00  0.00    -0.356 N 
HETATM    3  C12 UNK     1      18.031   3.477  32.423  1.00  0.00     0.257 C 
HETATM    4  H11 UNK     1      19.121   3.408  34.202  1.00  0.00     0.162 HD
ENDROOT
BRANCH   2   5
HETATM    5  C6  UNK     1      18.147   5.276  34.136  1.00  0.00     0.127 C 
BRANCH   5   6
HETATM    6  C2  UNK     1      18.776   6.401  33.316  1.00  0.00     0.061 C 
BRANCH   6   7
HETATM    7  C1  UNK     1      18.108   7.730  33.521  1.00  0.00    -0.022 A 
HETATM    8  C3  UNK     1      16.750   8.011  33.262  1.00  0.00     0.002 A 
HETATM    9  C5  UNK     1      16.560   9.355  33.591  1.00  0.00     0.043 A 
HETATM   10  C7  UNK     1      15.654   7.269  32.780  1.00  0.00     0.056 A 
HETATM   11  N1  UNK     1      17.771   9.840  34.030  1.00  0.00    -0.359 N 
HETATM   12  C9  UNK     1      15.322   9.995  33.463  1.00  0.00     0.033 A 
HETATM   13  C4  UNK     1      18.718   8.854  33.988  1.00  0.00     0.013 A 
HETATM   14  H3  UNK     1      17.932  10.790  34.337  1.00  0.00     0.166 HD
HETATM   15  C8  UNK     1      20.109   9.115  34.410  1.00  0.00     0.068 C 
HETATM   16  C11 UNK     1      14.249   9.238  32.983  1.00  0.00     0.044 A 
HETATM   17  C10 UNK     1      14.410   7.896  32.646  1.00  0.00     0.117 A 
HETATM   18  F1  UNK     1      13.363   7.196  32.191  1.00  0.00    -0.206 F 
ENDBRANCH   6   7
ENDBRANCH   5   6
ENDBRANCH   2   5
BRANCH   3  19
HETATM   19  C13 UNK     1      18.517   2.124  32.132  1.00  0.00     0.108 A 
HETATM   20  C15 UNK     1      18.952   1.907  30.885  1.00  0.00     0.037 A 
HETATM   21  C14 UNK     1      19.452   0.596  30.500  1.00  0.00    -0.001 A 
HETATM   22  C16 UNK     1      19.470  -0.422  31.448  1.00  0.00     0.089 A 
HETATM   23  C18 UNK     1      19.916   0.325  29.211  1.00  0.00     0.014 A 
HETATM   24  O1  UNK     1      19.010  -0.188  32.758  1.00  0.00    -0.274 OA
HETATM   25  C19 UNK     1      19.936  -1.700  31.143  1.00  0.00     0.038 A 
HETATM   26  C17 UNK     1      18.526   1.055  33.157  1.00  0.00     0.304 A 
HETATM   27  O3  UNK     1      18.128   1.250  34.300  1.00  0.00    -0.259 OA
HETATM   28  C21 UNK     1      20.396  -1.962  29.855  1.00  0.00     0.003 A 
HETATM   29  C20 UNK     1      20.387  -0.951  28.890  1.00  0.00     0.001 A 
ENDBRANCH   3  19
TORSDOF 4
ENDMDL
MODEL 9
REMARK VINA RESULT:      -9.6      6.408      9.008
REMARK  4 active torsions:
REMARK  status: ('A' for Active; 'I' for Inactive)
REMARK       I    between atoms: C12_18  and  N2_6 
REMARK    1  A    between atoms: C6_12  and  N2_6 
REMARK    2  A    between atoms: C1_7  and  C2_8 
REMARK    3  A    between atoms: C2_8  and  C6_12 
REMARK    4  A    between atoms: C12_18  and  C13_19 
ROOT
HETATM    1  O2  UNK     1      20.259  -4.126  35.084  1.00  0.00    -0.267 OA
HETATM    2  N2  UNK     1      19.179  -3.792  37.123  1.00  0.00    -0.356 N 
HETATM    3  C12 UNK     1      19.735  -4.554  36.111  1.00  0.00     0.257 C 
HETATM    4  H11 UNK     1      18.798  -4.242  37.950  1.00  0.00     0.162 HD
ENDROOT
BRANCH   2   5
HETATM    5  C6  UNK     1      19.145  -2.348  37.095  1.00  0.00     0.127 C 
BRANCH   5   6
HETATM    6  C2  UNK     1      17.796  -1.800  36.632  1.00  0.00     0.061 C 
BRANCH   6   7
HETATM    7  C1  UNK     1      17.911  -0.529  35.841  1.00  0.00    -0.022 A 
HETATM    8  C3  UNK     1      18.304  -0.439  34.490  1.00  0.00     0.002 A 
HETATM    9  C5  UNK     1      18.273   0.918  34.163  1.00  0.00     0.043 A 
HETATM   10  C7  UNK     1      18.687  -1.367  33.500  1.00  0.00     0.056 A 
HETATM   11  N1  UNK     1      17.873   1.597  35.291  1.00  0.00    -0.359 N 
HETATM   12  C9  UNK     1      18.606   1.396  32.890  1.00  0.00     0.033 A 
HETATM   13  C4  UNK     1      17.651   0.720  36.317  1.00  0.00     0.013 A 
HETATM   14  H3  UNK     1      17.760   2.600  35.347  1.00  0.00     0.166 HD
HETATM   15  C8  UNK     1      17.210   1.195  37.643  1.00  0.00     0.068 C 
HETATM   16  C11 UNK     1      18.983   0.457  31.925  1.00  0.00     0.044 A 
HETATM   17  C10 UNK     1      19.023  -0.904  32.223  1.00  0.00     0.117 A 
HETATM   18  F1  UNK     1      19.386  -1.779  31.277  1.00  0.00    -0.206 F 
ENDBRANCH   6   7
ENDBRANCH   5   6
ENDBRANCH   2   5
BRANCH   3  19
HETATM   19  C13 UNK     1      19.652  -5.996  36.370  1.00  0.00     0.108 A 
HETATM   20  C15 UNK     1      20.794  -6.684  36.258  1.00  0.00     0.037 A 
HETATM   21  C14 UNK     1      20.811  -8.120  36.494  1.00  0.00    -0.001 A 
HETATM   22  C16 UNK     1      19.625  -8.759  36.838  1.00  0.00     0.089 A 
HETATM   23  C18 UNK     1      21.980  -8.877  36.388  1.00  0.00     0.014 A 
HETATM   24  O1  UNK     1      18.426  -8.030  36.954  1.00  0.00    -0.274 OA
HETATM   25  C19 UNK     1      19.575 -10.132  37.078  1.00  0.00     0.038 A 
HETATM   26  C17 UNK     1      18.378  -6.656  36.734  1.00  0.00     0.304 A 
HETATM   27  O3  UNK     1      17.329  -6.029  36.837  1.00  0.00    -0.259 OA
HETATM   28  C21 UNK     1      20.744 -10.879  36.969  1.00  0.00     0.003 A 
HETATM   29  C20 UNK     1      21.946 -10.254  36.626  1.00  0.00     0.001 A 
ENDBRANCH   3  19
TORSDOF 4
ENDMDL
MODEL 10
REMARK VINA RESULT:      -9.6      6.557      9.742
REMARK  4 active torsions:
REMARK  status: ('A' for Active; 'I' for Inactive)
REMARK       I    between atoms: C12_18  and  N2_6 
REMARK    1  A    between atoms: C6_12  and  N2_6 
REMARK    2  A    between atoms: C1_7  and  C2_8 
REMARK    3  A    between atoms: C2_8  and  C6_12 
REMARK    4  A    between atoms: C12_18  and  C13_19 
ROOT
HETATM    1  O2  UNK     1      17.082  -5.953  36.747  1.00  0.00    -0.267 OA
HETATM    2  N2  UNK     1      18.841  -4.432  36.573  1.00  0.00    -0.356 N 
HETATM    3  C12 UNK     1      18.264  -5.689  36.535  1.00  0.00     0.257 C 
HETATM    4  H11 UNK     1      19.824  -4.315  36.350  1.00  0.00     0.162 HD
ENDROOT
BRANCH   2   5
HETATM    5  C6  UNK     1      18.095  -3.232  36.877  1.00  0.00     0.127 C 
BRANCH   5   6
HETATM    6  C2  UNK     1      18.924  -1.962  36.693  1.00  0.00     0.061 C 
BRANCH   6   7
HETATM    7  C1  UNK     1      18.637  -1.248  35.404  1.00  0.00    -0.022 A 
HETATM    8  C3  UNK     1      19.256  -1.515  34.165  1.00  0.00     0.002 A 
HETATM    9  C5  UNK     1      18.694  -0.626  33.247  1.00  0.00     0.043 A 
HETATM   10  C7  UNK     1      20.240  -2.419  33.719  1.00  0.00     0.056 A 
HETATM   11  N1  UNK     1      17.773   0.136  33.932  1.00  0.00    -0.359 N 
HETATM   12  C9  UNK     1      19.067  -0.596  31.899  1.00  0.00     0.033 A 
HETATM   13  C4  UNK     1      17.735  -0.240  35.247  1.00  0.00     0.013 A 
HETATM   14  H3  UNK     1      17.210   0.865  33.517  1.00  0.00     0.166 HD
HETATM   15  C8  UNK     1      16.825   0.423  36.202  1.00  0.00     0.068 C 
HETATM   16  C11 UNK     1      20.046  -1.502  31.479  1.00  0.00     0.044 A 
HETATM   17  C10 UNK     1      20.624  -2.401  32.373  1.00  0.00     0.117 A 
HETATM   18  F1  UNK     1      21.557  -3.258  31.940  1.00  0.00    -0.206 F 
ENDBRANCH   6   7
ENDBRANCH   5   6
ENDBRANCH   2   5
BRANCH   3  19
HETATM   19  C13 UNK     1      19.224  -6.747  36.202  1.00  0.00     0.108 A 
HETATM   20  C15 UNK     1      19.156  -7.862  36.939  1.00  0.00     0.037 A 
HETATM   21  C14 UNK     1      20.067  -8.967  36.685  1.00  0.00    -0.001 A 
HETATM   22  C16 UNK     1      21.005  -8.844  35.666  1.00  0.00     0.089 A 
HETATM   23  C18 UNK     1      20.031 -10.148  37.430  1.00  0.00     0.014 A 
HETATM   24  O1  UNK     1      21.073  -7.669  34.893  1.00  0.00    -0.274 OA
HETATM   25  C19 UNK     1      21.907  -9.866  35.372  1.00  0.00     0.038 A 
HETATM   26  C17 UNK     1      20.215  -6.595  35.112  1.00  0.00     0.304 A 
HETATM   27  O3  UNK     1      20.281  -5.575  34.435  1.00  0.00    -0.259 OA
HETATM   28  C21 UNK     1      21.864 -11.040  36.119  1.00  0.00     0.003 A 
HETATM   29  C20 UNK     1      20.928 -11.182  37.146  1.00  0.00     0.001 A 
ENDBRANCH   3  19
TORSDOF 4
ENDMDL
