MODEL 1
REMARK VINA RESULT:      -8.6      0.000      0.000
REMARK  1 active torsions:
REMARK  status: ('A' for Active; 'I' for Inactive)
REMARK    1  A    between atoms: C2_6  and  C4_8 
ROOT
HETATM    1  F1  UNK     1      20.653  -0.894  28.137  1.00  0.00    -0.206 F 
HETATM    2  O1  UNK     1      18.902  -0.279  33.314  1.00  0.00    -0.309 OA
HETATM    3  O2  UNK     1      18.549   2.905  30.796  1.00  0.00    -0.287 OA
HETATM    4  C1  UNK     1      19.236   0.665  31.101  1.00  0.00     0.051 A 
HETATM    5  C2  UNK     1      18.367   0.928  33.734  1.00  0.00     0.091 A 
HETATM    6  C3  UNK     1      19.327  -0.386  32.014  1.00  0.00     0.090 A 
HETATM    7  C5  UNK     1      18.661   1.944  31.544  1.00  0.00     0.187 A 
HETATM    8  C6  UNK     1      18.221   2.009  32.953  1.00  0.00     0.093 A 
HETATM    9  C7  UNK     1      19.683   0.500  29.788  1.00  0.00     0.060 A 
HETATM   10  C8  UNK     1      19.866  -1.610  31.618  1.00  0.00     0.041 A 
HETATM   11  C11 UNK     1      20.223  -0.726  29.394  1.00  0.00     0.117 A 
HETATM   12  C12 UNK     1      20.314  -1.777  30.307  1.00  0.00     0.045 A 
ENDROOT
BRANCH   5  13
HETATM   13  C4  UNK     1      17.951   0.942  35.104  1.00  0.00     0.020 A 
HETATM   14  C10 UNK     1      18.567   1.850  35.970  1.00  0.00     0.016 A 
HETATM   15  C14 UNK     1      18.197   1.904  37.314  1.00  0.00     0.001 A 
HETATM   16  C15 UNK     1      17.210   1.048  37.799  1.00  0.00     0.002 A 
HETATM   17  C13 UNK     1      16.591   0.138  36.942  1.00  0.00     0.025 A 
HETATM   18  C9  UNK     1      16.960   0.085  35.598  1.00  0.00     0.047 A 
HETATM   19 Cl1  UNK     1      16.162  -1.060  34.578  1.00  0.00    -0.083 Cl
ENDBRANCH   5  13
TORSDOF 1
ENDMDL
MODEL 2
REMARK VINA RESULT:      -8.5      1.646      2.852
REMARK  1 active torsions:
REMARK  status: ('A' for Active; 'I' for Inactive)
REMARK    1  A    between atoms: C2_6  and  C4_8 
ROOT
HETATM    1  F1  UNK     1      21.338  -0.955  28.514  1.00  0.00    -0.206 F 
HETATM    2  O1  UNK     1      18.300   0.530  32.852  1.00  0.00    -0.309 OA
HETATM    3  O2  UNK     1      20.573  -2.836  33.184  1.00  0.00    -0.287 OA
HETATM    4  C1  UNK     1      19.872  -1.022  31.842  1.00  0.00     0.051 A 
HETATM    5  C2  UNK     1      18.314  -0.230  34.010  1.00  0.00     0.091 A 
HETATM    6  C3  UNK     1      19.073   0.120  31.795  1.00  0.00     0.090 A 
HETATM    7  C5  UNK     1      19.893  -1.825  33.074  1.00  0.00     0.187 A 
HETATM    8  C6  UNK     1      19.042  -1.344  34.181  1.00  0.00     0.093 A 
HETATM    9  C7  UNK     1      20.641  -1.391  30.735  1.00  0.00     0.060 A 
HETATM   10  C8  UNK     1      19.037   0.900  30.639  1.00  0.00     0.041 A 
HETATM   11  C11 UNK     1      20.603  -0.610  29.580  1.00  0.00     0.117 A 
HETATM   12  C12 UNK     1      19.804   0.533  29.532  1.00  0.00     0.045 A 
ENDROOT
BRANCH   5  13
HETATM   13  C4  UNK     1      17.478   0.277  35.056  1.00  0.00     0.020 A 
HETATM   14  C10 UNK     1      16.177  -0.224  35.162  1.00  0.00     0.016 A 
HETATM   15  C14 UNK     1      15.324   0.237  36.164  1.00  0.00     0.001 A 
HETATM   16  C15 UNK     1      15.767   1.203  37.067  1.00  0.00     0.002 A 
HETATM   17  C13 UNK     1      17.063   1.709  36.966  1.00  0.00     0.025 A 
HETATM   18  C9  UNK     1      17.917   1.247  35.965  1.00  0.00     0.047 A 
HETATM   19 Cl1  UNK     1      19.513   1.906  35.886  1.00  0.00    -0.083 Cl
ENDBRANCH   5  13
TORSDOF 1
ENDMDL
MODEL 3
REMARK VINA RESULT:      -8.2      3.898      6.692
REMARK  1 active torsions:
REMARK  status: ('A' for Active; 'I' for Inactive)
REMARK    1  A    between atoms: C2_6  and  C4_8 
ROOT
HETATM    1  F1  UNK     1      17.643   7.890  33.368  1.00  0.00    -0.206 F 
HETATM    2  O1  UNK     1      18.996   3.354  30.568  1.00  0.00    -0.309 OA
HETATM    3  O2  UNK     1      17.832   2.918  34.449  1.00  0.00    -0.287 OA
HETATM    4  C1  UNK     1      18.245   4.379  32.639  1.00  0.00     0.051 A 
HETATM    5  C2  UNK     1      18.943   2.112  31.179  1.00  0.00     0.091 A 
HETATM    6  C3  UNK     1      18.650   4.458  31.306  1.00  0.00     0.090 A 
HETATM    7  C5  UNK     1      18.181   3.060  33.286  1.00  0.00     0.187 A 
HETATM    8  C6  UNK     1      18.565   1.903  32.451  1.00  0.00     0.093 A 
HETATM    9  C7  UNK     1      17.902   5.537  33.342  1.00  0.00     0.060 A 
HETATM   10  C8  UNK     1      18.716   5.697  30.669  1.00  0.00     0.041 A 
HETATM   11  C11 UNK     1      17.971   6.775  32.702  1.00  0.00     0.117 A 
HETATM   12  C12 UNK     1      18.376   6.855  31.369  1.00  0.00     0.045 A 
ENDROOT
BRANCH   5  13
HETATM   13  C4  UNK     1      19.319   1.022  30.330  1.00  0.00     0.020 A 
HETATM   14  C10 UNK     1      20.223   0.080  30.830  1.00  0.00     0.016 A 
HETATM   15  C14 UNK     1      20.621  -1.001  30.043  1.00  0.00     0.001 A 
HETATM   16  C15 UNK     1      20.117  -1.144  28.750  1.00  0.00     0.002 A 
HETATM   17  C13 UNK     1      19.216  -0.207  28.245  1.00  0.00     0.025 A 
HETATM   18  C9  UNK     1      18.817   0.872  29.032  1.00  0.00     0.047 A 
HETATM   19 Cl1  UNK     1      17.697   2.004  28.358  1.00  0.00    -0.083 Cl
ENDBRANCH   5  13
TORSDOF 1
ENDMDL
MODEL 4
REMARK VINA RESULT:      -8.0      7.636      9.855
REMARK  1 active torsions:
REMARK  status: ('A' for Active; 'I' for Inactive)
REMARK    1  A    between atoms: C2_6  and  C4_8 
ROOT
HETATM    1  F1  UNK     1      12.707  11.349  34.256  1.00  0.00    -0.206 F 
HETATM    2  O1  UNK     1      17.322   8.701  32.865  1.00  0.00    -0.309 OA
HETATM    3  O2  UNK     1      13.766   6.906  32.005  1.00  0.00    -0.287 OA
HETATM    4  C1  UNK     1      14.895   8.765  32.930  1.00  0.00     0.051 A 
HETATM    5  C2  UNK     1      17.260   7.462  32.248  1.00  0.00     0.091 A 
HETATM    6  C3  UNK     1      16.145   9.324  33.195  1.00  0.00     0.090 A 
HETATM    7  C5  UNK     1      14.828   7.453  32.269  1.00  0.00     0.187 A 
HETATM    8  C6  UNK     1      16.122   6.822  31.936  1.00  0.00     0.093 A 
HETATM    9  C7  UNK     1      13.728   9.445  33.287  1.00  0.00     0.060 A 
HETATM   10  C8  UNK     1      16.235  10.568  33.819  1.00  0.00     0.041 A 
HETATM   11  C11 UNK     1      13.821  10.689  33.912  1.00  0.00     0.117 A 
HETATM   12  C12 UNK     1      15.071  11.249  34.177  1.00  0.00     0.045 A 
ENDROOT
BRANCH   5  13
HETATM   13  C4  UNK     1      18.538   6.893  31.942  1.00  0.00     0.020 A 
HETATM   14  C10 UNK     1      18.737   6.375  30.659  1.00  0.00     0.016 A 
HETATM   15  C14 UNK     1      19.964   5.810  30.310  1.00  0.00     0.001 A 
HETATM   16  C15 UNK     1      20.998   5.760  31.244  1.00  0.00     0.002 A 
HETATM   17  C13 UNK     1      20.806   6.274  32.526  1.00  0.00     0.025 A 
HETATM   18  C9  UNK     1      19.580   6.839  32.874  1.00  0.00     0.047 A 
HETATM   19 Cl1  UNK     1      19.395   7.463  34.476  1.00  0.00    -0.083 Cl
ENDBRANCH   5  13
TORSDOF 1
ENDMDL
MODEL 5
REMARK VINA RESULT:      -7.9     24.708     26.506
REMARK  1 active torsions:
REMARK  status: ('A' for Active; 'I' for Inactive)
REMARK    1  A    between atoms: C2_6  and  C4_8 
ROOT
HETATM    1  F1  UNK     1      17.763   9.277  10.120  1.00  0.00    -0.206 F 
HETATM    2  O1  UNK     1      12.624   8.328   8.404  1.00  0.00    -0.309 OA
HETATM    3  O2  UNK     1      14.497   5.390  10.518  1.00  0.00    -0.287 OA
HETATM    4  C1  UNK     1      14.606   7.555   9.579  1.00  0.00     0.051 A 
HETATM    5  C2  UNK     1      12.004   7.122   8.685  1.00  0.00     0.091 A 
HETATM    6  C3  UNK     1      13.907   8.519   8.852  1.00  0.00     0.090 A 
HETATM    7  C5  UNK     1      13.945   6.277   9.883  1.00  0.00     0.187 A 
HETATM    8  C6  UNK     1      12.566   6.119   9.378  1.00  0.00     0.093 A 
HETATM    9  C7  UNK     1      15.910   7.806  10.011  1.00  0.00     0.060 A 
HETATM   10  C8  UNK     1      14.511   9.741   8.552  1.00  0.00     0.041 A 
HETATM   11  C11 UNK     1      16.512   9.028   9.708  1.00  0.00     0.117 A 
HETATM   12  C12 UNK     1      15.814   9.993   8.981  1.00  0.00     0.045 A 
ENDROOT
BRANCH   5  13
HETATM   13  C4  UNK     1      10.668   7.015   8.179  1.00  0.00     0.020 A 
HETATM   14  C10 UNK     1       9.616   7.412   9.010  1.00  0.00     0.016 A 
HETATM   15  C14 UNK     1       8.297   7.329   8.564  1.00  0.00     0.001 A 
HETATM   16  C15 UNK     1       8.023   6.847   7.285  1.00  0.00     0.002 A 
HETATM   17  C13 UNK     1       9.068   6.448   6.451  1.00  0.00     0.025 A 
HETATM   18  C9  UNK     1      10.387   6.532   6.896  1.00  0.00     0.047 A 
HETATM   19 Cl1  UNK     1      11.644   6.026   5.822  1.00  0.00    -0.083 Cl
ENDBRANCH   5  13
TORSDOF 1
ENDMDL
MODEL 6
REMARK VINA RESULT:      -7.9      3.151      6.615
REMARK  1 active torsions:
REMARK  status: ('A' for Active; 'I' for Inactive)
REMARK    1  A    between atoms: C2_6  and  C4_8 
ROOT
HETATM    1  F1  UNK     1      17.509   0.971  38.644  1.00  0.00    -0.206 F 
HETATM    2  O1  UNK     1      18.784   0.480  33.317  1.00  0.00    -0.309 OA
HETATM    3  O2  UNK     1      19.501  -2.712  35.747  1.00  0.00    -0.287 OA
HETATM    4  C1  UNK     1      18.704  -0.497  35.540  1.00  0.00     0.051 A 
HETATM    5  C2  UNK     1      19.336  -0.696  32.835  1.00  0.00     0.091 A 
HETATM    6  C3  UNK     1      18.483   0.557  34.654  1.00  0.00     0.090 A 
HETATM    7  C5  UNK     1      19.283  -1.748  35.027  1.00  0.00     0.187 A 
HETATM    8  C6  UNK     1      19.592  -1.781  33.582  1.00  0.00     0.093 A 
HETATM    9  C7  UNK     1      18.377  -0.363  36.891  1.00  0.00     0.060 A 
HETATM   10  C8  UNK     1      17.933   1.753  35.115  1.00  0.00     0.041 A 
HETATM   11  C11 UNK     1      17.828   0.835  37.350  1.00  0.00     0.117 A 
HETATM   12  C12 UNK     1      17.606   1.890  36.464  1.00  0.00     0.045 A 
ENDROOT
BRANCH   5  13
HETATM   13  C4  UNK     1      19.613  -0.682  31.430  1.00  0.00     0.020 A 
HETATM   14  C10 UNK     1      20.119  -1.848  30.847  1.00  0.00     0.016 A 
HETATM   15  C14 UNK     1      20.405  -1.886  29.483  1.00  0.00     0.001 A 
HETATM   16  C15 UNK     1      20.189  -0.757  28.693  1.00  0.00     0.002 A 
HETATM   17  C13 UNK     1      19.685   0.410  29.268  1.00  0.00     0.025 A 
HETATM   18  C9  UNK     1      19.398   0.448  30.632  1.00  0.00     0.047 A 
HETATM   19 Cl1  UNK     1      18.776   1.919  31.294  1.00  0.00    -0.083 Cl
ENDBRANCH   5  13
TORSDOF 1
ENDMDL
MODEL 7
REMARK VINA RESULT:      -7.8      2.920      4.246
REMARK  1 active torsions:
REMARK  status: ('A' for Active; 'I' for Inactive)
REMARK    1  A    between atoms: C2_6  and  C4_8 
ROOT
HETATM    1  F1  UNK     1      19.283   6.431  29.319  1.00  0.00    -0.206 F 
HETATM    2  O1  UNK     1      17.953   3.381  33.698  1.00  0.00    -0.309 OA
HETATM    3  O2  UNK     1      19.148   1.440  30.320  1.00  0.00    -0.287 OA
HETATM    4  C1  UNK     1      18.709   3.499  31.392  1.00  0.00     0.051 A 
HETATM    5  C2  UNK     1      18.022   1.999  33.636  1.00  0.00     0.091 A 
HETATM    6  C3  UNK     1      18.294   4.101  32.580  1.00  0.00     0.090 A 
HETATM    7  C5  UNK     1      18.789   2.032  31.328  1.00  0.00     0.187 A 
HETATM    8  C6  UNK     1      18.410   1.303  32.556  1.00  0.00     0.093 A 
HETATM    9  C7  UNK     1      19.045   4.282  30.285  1.00  0.00     0.060 A 
HETATM   10  C8  UNK     1      18.211   5.490  32.668  1.00  0.00     0.041 A 
HETATM   11  C11 UNK     1      18.961   5.672  30.375  1.00  0.00     0.117 A 
HETATM   12  C12 UNK     1      18.546   6.275  31.563  1.00  0.00     0.045 A 
ENDROOT
BRANCH   5  13
HETATM   13  C4  UNK     1      17.650   1.336  34.850  1.00  0.00     0.020 A 
HETATM   14  C10 UNK     1      16.532   0.498  34.826  1.00  0.00     0.016 A 
HETATM   15  C14 UNK     1      16.128  -0.171  35.981  1.00  0.00     0.001 A 
HETATM   16  C15 UNK     1      16.841  -0.004  37.168  1.00  0.00     0.002 A 
HETATM   17  C13 UNK     1      17.957   0.832  37.199  1.00  0.00     0.025 A 
HETATM   18  C9  UNK     1      18.361   1.500  36.044  1.00  0.00     0.047 A 
HETATM   19 Cl1  UNK     1      19.751   2.524  36.137  1.00  0.00    -0.083 Cl
ENDBRANCH   5  13
TORSDOF 1
ENDMDL
MODEL 8
REMARK VINA RESULT:      -7.8      3.937      5.348
REMARK  1 active torsions:
REMARK  status: ('A' for Active; 'I' for Inactive)
REMARK    1  A    between atoms: C2_6  and  C4_8 
ROOT
HETATM    1  F1  UNK     1      19.039  -1.787  32.560  1.00  0.00    -0.206 F 
HETATM    2  O1  UNK     1      18.008   3.575  33.220  1.00  0.00    -0.309 OA
HETATM    3  O2  UNK     1      19.134   2.295  29.518  1.00  0.00    -0.287 OA
HETATM    4  C1  UNK     1      18.668   1.743  31.768  1.00  0.00     0.051 A 
HETATM    5  C2  UNK     1      18.137   4.449  32.153  1.00  0.00     0.091 A 
HETATM    6  C3  UNK     1      18.277   2.246  33.008  1.00  0.00     0.090 A 
HETATM    7  C5  UNK     1      18.798   2.669  30.633  1.00  0.00     0.187 A 
HETATM    8  C6  UNK     1      18.500   4.089  30.912  1.00  0.00     0.093 A 
HETATM    9  C7  UNK     1      18.927   0.379  31.609  1.00  0.00     0.060 A 
HETATM   10  C8  UNK     1      18.144   1.388  34.100  1.00  0.00     0.041 A 
HETATM   11  C11 UNK     1      18.794  -0.478  32.703  1.00  0.00     0.117 A 
HETATM   12  C12 UNK     1      18.403   0.025  33.945  1.00  0.00     0.045 A 
ENDROOT
BRANCH   5  13
HETATM   13  C4  UNK     1      17.834   5.813  32.470  1.00  0.00     0.020 A 
HETATM   14  C10 UNK     1      16.511   6.242  32.334  1.00  0.00     0.016 A 
HETATM   15  C14 UNK     1      16.164   7.560  32.630  1.00  0.00     0.001 A 
HETATM   16  C15 UNK     1      17.140   8.457  33.064  1.00  0.00     0.002 A 
HETATM   17  C13 UNK     1      18.463   8.035  33.202  1.00  0.00     0.025 A 
HETATM   18  C9  UNK     1      18.809   6.717  32.906  1.00  0.00     0.047 A 
HETATM   19 Cl1  UNK     1      20.462   6.247  33.095  1.00  0.00    -0.083 Cl
ENDBRANCH   5  13
TORSDOF 1
ENDMDL
MODEL 9
REMARK VINA RESULT:      -7.8      3.037      6.112
REMARK  1 active torsions:
REMARK  status: ('A' for Active; 'I' for Inactive)
REMARK    1  A    between atoms: C2_6  and  C4_8 
ROOT
HETATM    1  F1  UNK     1      17.466   0.942  38.548  1.00  0.00    -0.206 F 
HETATM    2  O1  UNK     1      18.929  -0.456  33.434  1.00  0.00    -0.309 OA
HETATM    3  O2  UNK     1      17.916   3.429  34.128  1.00  0.00    -0.287 OA
HETATM    4  C1  UNK     1      18.197   1.251  34.999  1.00  0.00     0.051 A 
HETATM    5  C2  UNK     1      18.941   0.493  32.425  1.00  0.00     0.091 A 
HETATM    6  C3  UNK     1      18.556  -0.062  34.694  1.00  0.00     0.090 A 
HETATM    7  C5  UNK     1      18.217   2.261  33.930  1.00  0.00     0.187 A 
HETATM    8  C6  UNK     1      18.622   1.786  32.591  1.00  0.00     0.093 A 
HETATM    9  C7  UNK     1      17.827   1.597  36.301  1.00  0.00     0.060 A 
HETATM   10  C8  UNK     1      18.547  -1.037  35.691  1.00  0.00     0.041 A 
HETATM   11  C11 UNK     1      17.818   0.619  37.296  1.00  0.00     0.117 A 
HETATM   12  C12 UNK     1      18.178  -0.695  36.992  1.00  0.00     0.045 A 
ENDROOT
BRANCH   5  13
HETATM   13  C4  UNK     1      19.345  -0.013  31.147  1.00  0.00     0.020 A 
HETATM   14  C10 UNK     1      19.010   0.729  30.010  1.00  0.00     0.016 A 
HETATM   15  C14 UNK     1      19.380   0.280  28.742  1.00  0.00     0.001 A 
HETATM   16  C15 UNK     1      20.087  -0.914  28.605  1.00  0.00     0.002 A 
HETATM   17  C13 UNK     1      20.424  -1.660  29.735  1.00  0.00     0.025 A 
HETATM   18  C9  UNK     1      20.054  -1.210  31.002  1.00  0.00     0.047 A 
HETATM   19 Cl1  UNK     1      20.498  -2.172  32.369  1.00  0.00    -0.083 Cl
ENDBRANCH   5  13
TORSDOF 1
ENDMDL
MODEL 10
REMARK VINA RESULT:      -7.8     24.519     26.230
REMARK  1 active torsions:
REMARK  status: ('A' for Active; 'I' for Inactive)
REMARK    1  A    between atoms: C2_6  and  C4_8 
ROOT
HETATM    1  F1  UNK     1      17.982   7.296  10.634  1.00  0.00    -0.206 F 
HETATM    2  O1  UNK     1      12.854   6.537   8.798  1.00  0.00    -0.309 OA
HETATM    3  O2  UNK     1      13.950  10.311   9.877  1.00  0.00    -0.287 OA
HETATM    4  C1  UNK     1      14.562   8.040   9.650  1.00  0.00     0.051 A 
HETATM    5  C2  UNK     1      11.975   7.604   8.717  1.00  0.00     0.091 A 
HETATM    6  C3  UNK     1      14.123   6.774   9.263  1.00  0.00     0.090 A 
HETATM    7  C5  UNK     1      13.631   9.175   9.557  1.00  0.00     0.187 A 
HETATM    8  C6  UNK     1      12.276   8.868   9.053  1.00  0.00     0.093 A 
HETATM    9  C7  UNK     1      15.867   8.224  10.115  1.00  0.00     0.060 A 
HETATM   10  C8  UNK     1      14.988   5.682   9.339  1.00  0.00     0.041 A 
HETATM   11  C11 UNK     1      16.729   7.129  10.191  1.00  0.00     0.117 A 
HETATM   12  C12 UNK     1      16.291   5.862   9.804  1.00  0.00     0.045 A 
ENDROOT
BRANCH   5  13
HETATM   13  C4  UNK     1      10.677   7.260   8.219  1.00  0.00     0.020 A 
HETATM   14  C10 UNK     1       9.566   7.557   9.015  1.00  0.00     0.016 A 
HETATM   15  C14 UNK     1       8.280   7.243   8.575  1.00  0.00     0.001 A 
HETATM   16  C15 UNK     1       8.098   6.627   7.337  1.00  0.00     0.002 A 
HETATM   17  C13 UNK     1       9.202   6.326   6.539  1.00  0.00     0.025 A 
HETATM   18  C9  UNK     1      10.487   6.642   6.978  1.00  0.00     0.047 A 
HETATM   19 Cl1  UNK     1      11.819   6.248   5.949  1.00  0.00    -0.083 Cl
ENDBRANCH   5  13
TORSDOF 1
ENDMDL
