MODEL 1
REMARK VINA RESULT:     -10.4      0.000      0.000
REMARK  5 active torsions:
REMARK  status: ('A' for Active; 'I' for Inactive)
REMARK    1  A    between atoms: C2_9  and  O1_1 
REMARK    2  A    between atoms: C3_10  and  O1_1 
REMARK       I    between atoms: C9_16  and  N1_6 
REMARK    3  A    between atoms: N1_6  and  N2_7 
REMARK       I    between atoms: C19_26  and  N2_7 
REMARK    4  A    between atoms: C3_10  and  C9_16 
REMARK    5  A    between atoms: C13_20  and  C19_26 
ROOT
HETATM    1  O3  UNK     1      20.947  -2.372  34.448  1.00  0.00    -0.269 OA
HETATM    2  N1  UNK     1      18.892  -1.432  34.976  1.00  0.00    -0.265 N 
HETATM    3  C9  UNK     1      19.907  -2.362  35.104  1.00  0.00     0.265 C 
HETATM    4  H13 UNK     1      18.022  -1.470  35.496  1.00  0.00     0.190 HD
ENDROOT
BRANCH   2   5
HETATM    5  N2  UNK     1      19.024  -0.424  34.054  1.00  0.00    -0.263 N 
HETATM    6  C19 UNK     1      18.007   0.497  33.917  1.00  0.00     0.276 C 
HETATM    7  O4  UNK     1      16.953   0.518  34.550  1.00  0.00    -0.266 OA
HETATM    8  H16 UNK     1      19.867  -0.435  33.488  1.00  0.00     0.190 HD
BRANCH   6   9
HETATM    9  C13 UNK     1      18.295   1.509  32.894  1.00  0.00     0.110 A 
HETATM   10  C16 UNK     1      18.082   2.782  33.246  1.00  0.00     0.037 A 
HETATM   11  C12 UNK     1      18.339   3.857  32.299  1.00  0.00    -0.001 A 
HETATM   12  C14 UNK     1      18.809   3.538  31.029  1.00  0.00     0.089 A 
HETATM   13  C18 UNK     1      18.130   5.200  32.624  1.00  0.00     0.014 A 
HETATM   14  O2  UNK     1      19.032   2.195  30.666  1.00  0.00    -0.274 OA
HETATM   15  C21 UNK     1      19.075   4.519  30.076  1.00  0.00     0.038 A 
HETATM   16  C20 UNK     1      18.795   1.146  31.549  1.00  0.00     0.304 A 
HETATM   17  O5  UNK     1      18.992  -0.020  31.223  1.00  0.00    -0.259 OA
HETATM   18  C23 UNK     1      18.864   5.856  30.407  1.00  0.00     0.003 A 
HETATM   19  C22 UNK     1      18.392   6.196  31.678  1.00  0.00     0.001 A 
ENDBRANCH   6   9
ENDBRANCH   2   5
BRANCH   3  20
HETATM   20  C3  UNK     1      19.612  -3.393  36.183  1.00  0.00     0.218 C 
HETATM   21  C10 UNK     1      19.777  -2.796  37.572  1.00  0.00     0.050 C 
BRANCH  20  22
HETATM   22  O1  UNK     1      20.520  -4.475  36.056  1.00  0.00    -0.336 OA
BRANCH  22  23
HETATM   23  C2  UNK     1      20.138  -5.675  36.603  1.00  0.00     0.081 A 
HETATM   24  C1  UNK     1      20.881  -6.272  37.630  1.00  0.00     0.007 A 
HETATM   25  C4  UNK     1      20.447  -7.510  38.161  1.00  0.00    -0.023 A 
HETATM   26  C6  UNK     1      22.042  -5.673  38.145  1.00  0.00     0.015 A 
HETATM   27  C7  UNK     1      19.285  -8.109  37.647  1.00  0.00     0.012 A 
HETATM   28  C8  UNK     1      21.187  -8.113  39.191  1.00  0.00     0.012 A 
HETATM   29  C11 UNK     1      18.562  -7.496  36.623  1.00  0.00     0.004 A 
HETATM   30  C5  UNK     1      18.989  -6.279  36.100  1.00  0.00     0.038 A 
HETATM   31  C17 UNK     1      22.339  -7.504  39.690  1.00  0.00     0.001 A 
HETATM   32  C15 UNK     1      22.766  -6.286  39.168  1.00  0.00     0.001 A 
ENDBRANCH  22  23
ENDBRANCH  20  22
ENDBRANCH   3  20
TORSDOF 5
ENDMDL
MODEL 2
REMARK VINA RESULT:     -10.4      2.539     10.347
REMARK  5 active torsions:
REMARK  status: ('A' for Active; 'I' for Inactive)
REMARK    1  A    between atoms: C2_9  and  O1_1 
REMARK    2  A    between atoms: C3_10  and  O1_1 
REMARK       I    between atoms: C9_16  and  N1_6 
REMARK    3  A    between atoms: N1_6  and  N2_7 
REMARK       I    between atoms: C19_26  and  N2_7 
REMARK    4  A    between atoms: C3_10  and  C9_16 
REMARK    5  A    between atoms: C13_20  and  C19_26 
ROOT
HETATM    1  O3  UNK     1      20.979  -1.614  35.472  1.00  0.00    -0.269 OA
HETATM    2  N1  UNK     1      19.221  -3.084  35.836  1.00  0.00    -0.265 N 
HETATM    3  C9  UNK     1      19.775  -1.848  35.558  1.00  0.00     0.265 C 
HETATM    4  H13 UNK     1      18.225  -3.245  35.946  1.00  0.00     0.190 HD
ENDROOT
BRANCH   2   5
HETATM    5  N2  UNK     1      20.052  -4.157  36.039  1.00  0.00    -0.263 N 
HETATM    6  C19 UNK     1      19.503  -5.375  36.377  1.00  0.00     0.276 C 
HETATM    7  O4  UNK     1      18.308  -5.620  36.525  1.00  0.00    -0.266 OA
HETATM    8  H16 UNK     1      21.049  -3.978  35.961  1.00  0.00     0.190 HD
BRANCH   6   9
HETATM    9  C13 UNK     1      20.518  -6.420  36.560  1.00  0.00     0.110 A 
HETATM   10  C16 UNK     1      20.429  -7.479  35.747  1.00  0.00     0.037 A 
HETATM   11  C12 UNK     1      21.389  -8.567  35.852  1.00  0.00    -0.001 A 
HETATM   12  C14 UNK     1      22.397  -8.485  36.808  1.00  0.00     0.089 A 
HETATM   13  C18 UNK     1      21.334  -9.691  35.024  1.00  0.00     0.014 A 
HETATM   14  O2  UNK     1      22.485  -7.367  37.661  1.00  0.00    -0.274 OA
HETATM   15  C21 UNK     1      23.348  -9.493  36.961  1.00  0.00     0.038 A 
HETATM   16  C20 UNK     1      21.581  -6.312  37.584  1.00  0.00     0.304 A 
HETATM   17  O5  UNK     1      21.665  -5.343  38.331  1.00  0.00    -0.259 OA
HETATM   18  C23 UNK     1      23.286 -10.611  36.131  1.00  0.00     0.003 A 
HETATM   19  C22 UNK     1      22.282 -10.710  35.165  1.00  0.00     0.001 A 
ENDBRANCH   6   9
ENDBRANCH   2   5
BRANCH   3  20
HETATM   20  C3  UNK     1      18.717  -0.777  35.337  1.00  0.00     0.218 C 
HETATM   21  C10 UNK     1      17.618  -0.867  36.384  1.00  0.00     0.050 C 
BRANCH  20  22
HETATM   22  O1  UNK     1      18.127  -0.958  34.060  1.00  0.00    -0.336 OA
BRANCH  22  23
HETATM   23  C2  UNK     1      18.447  -0.040  33.092  1.00  0.00     0.081 A 
HETATM   24  C1  UNK     1      19.139  -0.420  31.934  1.00  0.00     0.007 A 
HETATM   25  C4  UNK     1      19.447   0.564  30.964  1.00  0.00    -0.023 A 
HETATM   26  C6  UNK     1      19.532  -1.749  31.712  1.00  0.00     0.015 A 
HETATM   27  C7  UNK     1      19.053   1.895  31.185  1.00  0.00     0.012 A 
HETATM   28  C8  UNK     1      20.140   0.189  29.801  1.00  0.00     0.012 A 
HETATM   29  C11 UNK     1      18.366   2.249  32.347  1.00  0.00     0.004 A 
HETATM   30  C5  UNK     1      18.063   1.282  33.301  1.00  0.00     0.038 A 
HETATM   31  C17 UNK     1      20.523  -1.136  29.597  1.00  0.00     0.001 A 
HETATM   32  C15 UNK     1      20.220  -2.105  30.551  1.00  0.00     0.001 A 
ENDBRANCH  22  23
ENDBRANCH  20  22
ENDBRANCH   3  20
TORSDOF 5
ENDMDL
MODEL 3
REMARK VINA RESULT:     -10.2      1.692     10.479
REMARK  5 active torsions:
REMARK  status: ('A' for Active; 'I' for Inactive)
REMARK    1  A    between atoms: C2_9  and  O1_1 
REMARK    2  A    between atoms: C3_10  and  O1_1 
REMARK       I    between atoms: C9_16  and  N1_6 
REMARK    3  A    between atoms: N1_6  and  N2_7 
REMARK       I    between atoms: C19_26  and  N2_7 
REMARK    4  A    between atoms: C3_10  and  C9_16 
REMARK    5  A    between atoms: C13_20  and  C19_26 
ROOT
HETATM    1  O3  UNK     1      18.258  -0.731  37.722  1.00  0.00    -0.269 OA
HETATM    2  N1  UNK     1      18.031  -2.060  35.834  1.00  0.00    -0.265 N 
HETATM    3  C9  UNK     1      17.989  -0.867  36.530  1.00  0.00     0.265 C 
HETATM    4  H13 UNK     1      17.760  -2.157  34.861  1.00  0.00     0.190 HD
ENDROOT
BRANCH   2   5
HETATM    5  N2  UNK     1      18.397  -3.205  36.496  1.00  0.00    -0.263 N 
HETATM    6  C19 UNK     1      19.582  -3.825  36.160  1.00  0.00     0.276 C 
HETATM    7  O4  UNK     1      20.378  -3.455  35.300  1.00  0.00    -0.266 OA
HETATM    8  H16 UNK     1      17.742  -3.558  37.187  1.00  0.00     0.190 HD
BRANCH   6   9
HETATM    9  C13 UNK     1      19.834  -5.033  36.954  1.00  0.00     0.110 A 
HETATM   10  C16 UNK     1      21.034  -5.117  37.539  1.00  0.00     0.037 A 
HETATM   11  C12 UNK     1      21.377  -6.278  38.347  1.00  0.00    -0.001 A 
HETATM   12  C14 UNK     1      20.437  -7.293  38.500  1.00  0.00     0.089 A 
HETATM   13  C18 UNK     1      22.618  -6.407  38.975  1.00  0.00     0.014 A 
HETATM   14  O2  UNK     1      19.174  -7.197  37.882  1.00  0.00    -0.274 OA
HETATM   15  C21 UNK     1      20.702  -8.430  39.260  1.00  0.00     0.038 A 
HETATM   16  C20 UNK     1      18.818  -6.100  37.103  1.00  0.00     0.304 A 
HETATM   17  O5  UNK     1      17.717  -6.027  36.568  1.00  0.00    -0.259 OA
HETATM   18  C23 UNK     1      21.942  -8.552  39.883  1.00  0.00     0.003 A 
HETATM   19  C22 UNK     1      22.898  -7.543  39.741  1.00  0.00     0.001 A 
ENDBRANCH   6   9
ENDBRANCH   2   5
BRANCH   3  20
HETATM   20  C3  UNK     1      17.588   0.304  35.645  1.00  0.00     0.218 C 
HETATM   21  C10 UNK     1      16.272   0.029  34.934  1.00  0.00     0.050 C 
BRANCH  20  22
HETATM   22  O1  UNK     1      18.588   0.510  34.661  1.00  0.00    -0.336 OA
BRANCH  22  23
HETATM   23  C2  UNK     1      18.479   1.641  33.892  1.00  0.00     0.081 A 
HETATM   24  C1  UNK     1      18.648   1.591  32.501  1.00  0.00     0.007 A 
HETATM   25  C4  UNK     1      18.527   2.784  31.751  1.00  0.00    -0.023 A 
HETATM   26  C6  UNK     1      18.933   0.388  31.836  1.00  0.00     0.015 A 
HETATM   27  C7  UNK     1      18.241   3.989  32.416  1.00  0.00     0.012 A 
HETATM   28  C8  UNK     1      18.695   2.740  30.357  1.00  0.00     0.012 A 
HETATM   29  C11 UNK     1      18.078   4.014  33.802  1.00  0.00     0.004 A 
HETATM   30  C5  UNK     1      18.197   2.841  34.540  1.00  0.00     0.038 A 
HETATM   31  C17 UNK     1      18.978   1.536  29.712  1.00  0.00     0.001 A 
HETATM   32  C15 UNK     1      19.097   0.361  30.450  1.00  0.00     0.001 A 
ENDBRANCH  22  23
ENDBRANCH  20  22
ENDBRANCH   3  20
TORSDOF 5
ENDMDL
MODEL 4
REMARK VINA RESULT:     -10.2      2.037     10.524
REMARK  5 active torsions:
REMARK  status: ('A' for Active; 'I' for Inactive)
REMARK    1  A    between atoms: C2_9  and  O1_1 
REMARK    2  A    between atoms: C3_10  and  O1_1 
REMARK       I    between atoms: C9_16  and  N1_6 
REMARK    3  A    between atoms: N1_6  and  N2_7 
REMARK       I    between atoms: C19_26  and  N2_7 
REMARK    4  A    between atoms: C3_10  and  C9_16 
REMARK    5  A    between atoms: C13_20  and  C19_26 
ROOT
HETATM    1  O3  UNK     1      18.273  -1.356  37.233  1.00  0.00    -0.269 OA
HETATM    2  N1  UNK     1      19.044  -2.655  35.472  1.00  0.00    -0.265 N 
HETATM    3  C9  UNK     1      18.495  -1.518  36.035  1.00  0.00     0.265 C 
HETATM    4  H13 UNK     1      19.176  -2.784  34.475  1.00  0.00     0.190 HD
ENDROOT
BRANCH   2   5
HETATM    5  N2  UNK     1      19.380  -3.707  36.287  1.00  0.00    -0.263 N 
HETATM    6  C19 UNK     1      20.011  -4.804  35.740  1.00  0.00     0.276 C 
HETATM    7  O4  UNK     1      20.317  -4.955  34.559  1.00  0.00    -0.266 OA
HETATM    8  H16 UNK     1      19.107  -3.629  37.262  1.00  0.00     0.190 HD
BRANCH   6   9
HETATM    9  C13 UNK     1      20.304  -5.841  36.736  1.00  0.00     0.110 A 
HETATM   10  C16 UNK     1      19.517  -6.923  36.713  1.00  0.00     0.037 A 
HETATM   11  C12 UNK     1      19.730  -8.006  37.661  1.00  0.00    -0.001 A 
HETATM   12  C14 UNK     1      20.763  -7.896  38.588  1.00  0.00     0.089 A 
HETATM   13  C18 UNK     1      18.933  -9.153  37.673  1.00  0.00     0.014 A 
HETATM   14  O2  UNK     1      21.588  -6.754  38.606  1.00  0.00    -0.274 OA
HETATM   15  C21 UNK     1      21.020  -8.896  39.523  1.00  0.00     0.038 A 
HETATM   16  C20 UNK     1      21.409  -5.703  37.712  1.00  0.00     0.304 A 
HETATM   17  O5  UNK     1      22.132  -4.712  37.737  1.00  0.00    -0.259 OA
HETATM   18  C23 UNK     1      20.220 -10.037  39.528  1.00  0.00     0.003 A 
HETATM   19  C22 UNK     1      19.179 -10.166  38.606  1.00  0.00     0.001 A 
ENDBRANCH   6   9
ENDBRANCH   2   5
BRANCH   3  20
HETATM   20  C3  UNK     1      18.204  -0.443  34.998  1.00  0.00     0.218 C 
HETATM   21  C10 UNK     1      16.749  -0.486  34.557  1.00  0.00     0.050 C 
BRANCH  20  22
HETATM   22  O1  UNK     1      19.019  -0.660  33.858  1.00  0.00    -0.336 OA
BRANCH  22  23
HETATM   23  C2  UNK     1      18.923   0.256  32.842  1.00  0.00     0.081 A 
HETATM   24  C1  UNK     1      19.342  -0.057  31.541  1.00  0.00     0.007 A 
HETATM   25  C4  UNK     1      19.224   0.921  30.527  1.00  0.00    -0.023 A 
HETATM   26  C6  UNK     1      19.875  -1.316  31.222  1.00  0.00     0.015 A 
HETATM   27  C7  UNK     1      18.690   2.182  30.846  1.00  0.00     0.012 A 
HETATM   28  C8  UNK     1      19.642   0.613  29.221  1.00  0.00     0.012 A 
HETATM   29  C11 UNK     1      18.279   2.471  32.148  1.00  0.00     0.004 A 
HETATM   30  C5  UNK     1      18.396   1.509  33.146  1.00  0.00     0.038 A 
HETATM   31  C17 UNK     1      20.169  -0.643  28.922  1.00  0.00     0.001 A 
HETATM   32  C15 UNK     1      20.286  -1.607  29.920  1.00  0.00     0.001 A 
ENDBRANCH  22  23
ENDBRANCH  20  22
ENDBRANCH   3  20
TORSDOF 5
ENDMDL
MODEL 5
REMARK VINA RESULT:     -10.2      2.211      3.798
REMARK  5 active torsions:
REMARK  status: ('A' for Active; 'I' for Inactive)
REMARK    1  A    between atoms: C2_9  and  O1_1 
REMARK    2  A    between atoms: C3_10  and  O1_1 
REMARK       I    between atoms: C9_16  and  N1_6 
REMARK    3  A    between atoms: N1_6  and  N2_7 
REMARK       I    between atoms: C19_26  and  N2_7 
REMARK    4  A    between atoms: C3_10  and  C9_16 
REMARK    5  A    between atoms: C13_20  and  C19_26 
ROOT
HETATM    1  O3  UNK     1      20.498  -2.697  37.488  1.00  0.00    -0.269 OA
HETATM    2  N1  UNK     1      19.771  -4.014  35.722  1.00  0.00    -0.265 N 
HETATM    3  C9  UNK     1      20.280  -3.800  36.989  1.00  0.00     0.265 C 
HETATM    4  H13 UNK     1      19.641  -4.934  35.313  1.00  0.00     0.190 HD
ENDROOT
BRANCH   2   5
HETATM    5  N2  UNK     1      19.473  -2.933  34.931  1.00  0.00    -0.263 N 
HETATM    6  C19 UNK     1      20.207  -2.719  33.783  1.00  0.00     0.276 C 
HETATM    7  O4  UNK     1      21.135  -3.412  33.373  1.00  0.00    -0.266 OA
HETATM    8  H16 UNK     1      18.735  -2.319  35.262  1.00  0.00     0.190 HD
BRANCH   6   9
HETATM    9  C13 UNK     1      19.769  -1.528  33.047  1.00  0.00     0.110 A 
HETATM   10  C16 UNK     1      20.015  -1.522  31.732  1.00  0.00     0.037 A 
HETATM   11  C12 UNK     1      19.619  -0.383  30.916  1.00  0.00    -0.001 A 
HETATM   12  C14 UNK     1      18.982   0.692  31.527  1.00  0.00     0.089 A 
HETATM   13  C18 UNK     1      19.856  -0.335  29.540  1.00  0.00     0.014 A 
HETATM   14  O2  UNK     1      18.725   0.679  32.912  1.00  0.00    -0.274 OA
HETATM   15  C21 UNK     1      18.577   1.813  30.804  1.00  0.00     0.038 A 
HETATM   16  C20 UNK     1      19.093  -0.394  33.717  1.00  0.00     0.304 A 
HETATM   17  O5  UNK     1      18.866  -0.396  34.923  1.00  0.00    -0.259 OA
HETATM   18  C23 UNK     1      18.817   1.853  29.431  1.00  0.00     0.003 A 
HETATM   19  C22 UNK     1      19.455   0.782  28.801  1.00  0.00     0.001 A 
ENDBRANCH   6   9
ENDBRANCH   2   5
BRANCH   3  20
HETATM   20  C3  UNK     1      20.532  -5.100  37.738  1.00  0.00     0.218 C 
HETATM   21  C10 UNK     1      21.999  -5.245  38.108  1.00  0.00     0.050 C 
BRANCH  20  22
HETATM   22  O1  UNK     1      20.173  -6.193  36.909  1.00  0.00    -0.336 OA
BRANCH  22  23
HETATM   23  C2  UNK     1      20.181  -7.439  37.486  1.00  0.00     0.081 A 
HETATM   24  C1  UNK     1      20.681  -8.552  36.798  1.00  0.00     0.007 A 
HETATM   25  C4  UNK     1      20.667  -9.816  37.433  1.00  0.00    -0.023 A 
HETATM   26  C6  UNK     1      21.195  -8.445  35.495  1.00  0.00     0.015 A 
HETATM   27  C7  UNK     1      20.154  -9.924  38.737  1.00  0.00     0.012 A 
HETATM   28  C8  UNK     1      21.167 -10.936  36.749  1.00  0.00     0.012 A 
HETATM   29  C11 UNK     1      19.661  -8.801  39.403  1.00  0.00     0.004 A 
HETATM   30  C5  UNK     1      19.674  -7.558  38.777  1.00  0.00     0.038 A 
HETATM   31  C17 UNK     1      21.674 -10.811  35.455  1.00  0.00     0.001 A 
HETATM   32  C15 UNK     1      21.688  -9.568  34.828  1.00  0.00     0.001 A 
ENDBRANCH  22  23
ENDBRANCH  20  22
ENDBRANCH   3  20
TORSDOF 5
ENDMDL
MODEL 6
REMARK VINA RESULT:     -10.1      3.439      5.518
REMARK  5 active torsions:
REMARK  status: ('A' for Active; 'I' for Inactive)
REMARK    1  A    between atoms: C2_9  and  O1_1 
REMARK    2  A    between atoms: C3_10  and  O1_1 
REMARK       I    between atoms: C9_16  and  N1_6 
REMARK    3  A    between atoms: N1_6  and  N2_7 
REMARK       I    between atoms: C19_26  and  N2_7 
REMARK    4  A    between atoms: C3_10  and  C9_16 
REMARK    5  A    between atoms: C13_20  and  C19_26 
ROOT
HETATM    1  O3  UNK     1      22.578  -4.899  38.266  1.00  0.00    -0.269 OA
HETATM    2  N1  UNK     1      20.431  -5.595  37.727  1.00  0.00    -0.265 N 
HETATM    3  C9  UNK     1      21.737  -5.787  38.140  1.00  0.00     0.265 C 
HETATM    4  H13 UNK     1      19.767  -6.348  37.586  1.00  0.00     0.190 HD
ENDROOT
BRANCH   2   5
HETATM    5  N2  UNK     1      20.007  -4.325  37.426  1.00  0.00    -0.263 N 
HETATM    6  C19 UNK     1      19.992  -3.918  36.109  1.00  0.00     0.276 C 
HETATM    7  O4  UNK     1      20.330  -4.588  35.136  1.00  0.00    -0.266 OA
HETATM    8  H16 UNK     1      19.757  -3.733  38.212  1.00  0.00     0.190 HD
BRANCH   6   9
HETATM    9  C13 UNK     1      19.514  -2.539  35.949  1.00  0.00     0.110 A 
HETATM   10  C16 UNK     1      18.899  -2.000  37.008  1.00  0.00     0.037 A 
HETATM   11  C12 UNK     1      18.391  -0.638  36.946  1.00  0.00    -0.001 A 
HETATM   12  C14 UNK     1      18.555   0.089  35.771  1.00  0.00     0.089 A 
HETATM   13  C18 UNK     1      17.743  -0.035  38.027  1.00  0.00     0.014 A 
HETATM   14  O2  UNK     1      19.204  -0.485  34.660  1.00  0.00    -0.274 OA
HETATM   15  C21 UNK     1      18.092   1.397  35.646  1.00  0.00     0.038 A 
HETATM   16  C20 UNK     1      19.700  -1.784  34.689  1.00  0.00     0.304 A 
HETATM   17  O5  UNK     1      20.263  -2.276  33.717  1.00  0.00    -0.259 OA
HETATM   18  C23 UNK     1      17.446   1.992  36.729  1.00  0.00     0.003 A 
HETATM   19  C22 UNK     1      17.272   1.277  37.917  1.00  0.00     0.001 A 
ENDBRANCH   6   9
ENDBRANCH   2   5
BRANCH   3  20
HETATM   20  C3  UNK     1      22.034  -7.245  38.455  1.00  0.00     0.218 C 
HETATM   21  C10 UNK     1      22.668  -7.392  39.829  1.00  0.00     0.050 C 
BRANCH  20  22
HETATM   22  O1  UNK     1      22.941  -7.756  37.492  1.00  0.00    -0.336 OA
BRANCH  22  23
HETATM   23  C2  UNK     1      22.567  -8.900  36.832  1.00  0.00     0.081 A 
HETATM   24  C1  UNK     1      23.496  -9.913  36.556  1.00  0.00     0.007 A 
HETATM   25  C4  UNK     1      23.063 -11.074  35.872  1.00  0.00    -0.023 A 
HETATM   26  C6  UNK     1      24.841  -9.805  36.942  1.00  0.00     0.015 A 
HETATM   27  C7  UNK     1      21.716 -11.182  35.486  1.00  0.00     0.012 A 
HETATM   28  C8  UNK     1      23.989 -12.093  35.594  1.00  0.00     0.012 A 
HETATM   29  C11 UNK     1      20.810 -10.160  35.771  1.00  0.00     0.004 A 
HETATM   30  C5  UNK     1      21.236  -9.018  36.443  1.00  0.00     0.038 A 
HETATM   31  C17 UNK     1      25.322 -11.969  35.984  1.00  0.00     0.001 A 
HETATM   32  C15 UNK     1      25.749 -10.827  36.658  1.00  0.00     0.001 A 
ENDBRANCH  22  23
ENDBRANCH  20  22
ENDBRANCH   3  20
TORSDOF 5
ENDMDL
MODEL 7
REMARK VINA RESULT:     -10.0      4.403      7.198
REMARK  5 active torsions:
REMARK  status: ('A' for Active; 'I' for Inactive)
REMARK    1  A    between atoms: C2_9  and  O1_1 
REMARK    2  A    between atoms: C3_10  and  O1_1 
REMARK       I    between atoms: C9_16  and  N1_6 
REMARK    3  A    between atoms: N1_6  and  N2_7 
REMARK       I    between atoms: C19_26  and  N2_7 
REMARK    4  A    between atoms: C3_10  and  C9_16 
REMARK    5  A    between atoms: C13_20  and  C19_26 
ROOT
HETATM    1  O3  UNK     1      19.224   4.228  29.839  1.00  0.00    -0.269 OA
HETATM    2  N1  UNK     1      17.807   3.539  31.542  1.00  0.00    -0.265 N 
HETATM    3  C9  UNK     1      18.654   3.339  30.468  1.00  0.00     0.265 C 
HETATM    4  H13 UNK     1      17.311   2.792  32.017  1.00  0.00     0.190 HD
ENDROOT
BRANCH   2   5
HETATM    5  N2  UNK     1      17.559   4.820  31.966  1.00  0.00    -0.263 N 
HETATM    6  C19 UNK     1      18.038   5.226  33.193  1.00  0.00     0.276 C 
HETATM    7  O4  UNK     1      18.686   4.543  33.983  1.00  0.00    -0.266 OA
HETATM    8  H16 UNK     1      16.993   5.399  31.352  1.00  0.00     0.190 HD
BRANCH   6   9
HETATM    9  C13 UNK     1      17.693   6.618  33.503  1.00  0.00     0.110 A 
HETATM   10  C16 UNK     1      16.389   6.888  33.638  1.00  0.00     0.037 A 
HETATM   11  C12 UNK     1      15.948   8.240  33.946  1.00  0.00    -0.001 A 
HETATM   12  C14 UNK     1      16.903   9.241  34.096  1.00  0.00     0.089 A 
HETATM   13  C18 UNK     1      14.598   8.566  34.096  1.00  0.00     0.014 A 
HETATM   14  O2  UNK     1      18.274   8.950  33.953  1.00  0.00    -0.274 OA
HETATM   15  C21 UNK     1      16.547  10.556  34.390  1.00  0.00     0.038 A 
HETATM   16  C20 UNK     1      18.725   7.668  33.659  1.00  0.00     0.304 A 
HETATM   17  O5  UNK     1      19.921   7.424  33.535  1.00  0.00    -0.259 OA
HETATM   18  C23 UNK     1      15.198  10.874  34.538  1.00  0.00     0.003 A 
HETATM   19  C22 UNK     1      14.226   9.882  34.392  1.00  0.00     0.001 A 
ENDBRANCH   6   9
ENDBRANCH   2   5
BRANCH   3  20
HETATM   20  C3  UNK     1      18.838   1.863  30.144  1.00  0.00     0.218 C 
HETATM   21  C10 UNK     1      18.008   1.459  28.936  1.00  0.00     0.050 C 
BRANCH  20  22
HETATM   22  O1  UNK     1      18.415   1.086  31.252  1.00  0.00    -0.336 OA
BRANCH  22  23
HETATM   23  C2  UNK     1      19.156  -0.031  31.546  1.00  0.00     0.081 A 
HETATM   24  C1  UNK     1      19.141  -0.593  32.830  1.00  0.00     0.007 A 
HETATM   25  C4  UNK     1      19.922  -1.745  33.085  1.00  0.00    -0.023 A 
HETATM   26  C6  UNK     1      18.371  -0.042  33.867  1.00  0.00     0.015 A 
HETATM   27  C7  UNK     1      20.692  -2.297  32.047  1.00  0.00     0.012 A 
HETATM   28  C8  UNK     1      19.911  -2.313  34.370  1.00  0.00     0.012 A 
HETATM   29  C11 UNK     1      20.691  -1.720  30.777  1.00  0.00     0.004 A 
HETATM   30  C5  UNK     1      19.924  -0.587  30.527  1.00  0.00     0.038 A 
HETATM   31  C17 UNK     1      19.140  -1.752  35.389  1.00  0.00     0.001 A 
HETATM   32  C15 UNK     1      18.371  -0.618  35.139  1.00  0.00     0.001 A 
ENDBRANCH  22  23
ENDBRANCH  20  22
ENDBRANCH   3  20
TORSDOF 5
ENDMDL
MODEL 8
REMARK VINA RESULT:      -9.8      1.774      2.362
REMARK  5 active torsions:
REMARK  status: ('A' for Active; 'I' for Inactive)
REMARK    1  A    between atoms: C2_9  and  O1_1 
REMARK    2  A    between atoms: C3_10  and  O1_1 
REMARK       I    between atoms: C9_16  and  N1_6 
REMARK    3  A    between atoms: N1_6  and  N2_7 
REMARK       I    between atoms: C19_26  and  N2_7 
REMARK    4  A    between atoms: C3_10  and  C9_16 
REMARK    5  A    between atoms: C13_20  and  C19_26 
ROOT
HETATM    1  O3  UNK     1      20.432  -3.910  34.499  1.00  0.00    -0.269 OA
HETATM    2  N1  UNK     1      19.457  -2.480  36.043  1.00  0.00    -0.265 N 
HETATM    3  C9  UNK     1      19.999  -3.681  35.626  1.00  0.00     0.265 C 
HETATM    4  H13 UNK     1      19.064  -2.327  36.966  1.00  0.00     0.190 HD
ENDROOT
BRANCH   2   5
HETATM    5  N2  UNK     1      19.378  -1.439  35.153  1.00  0.00    -0.263 N 
HETATM    6  C19 UNK     1      18.201  -0.729  35.052  1.00  0.00     0.276 C 
HETATM    7  O4  UNK     1      17.172  -0.931  35.693  1.00  0.00    -0.266 OA
HETATM    8  H16 UNK     1      20.200  -1.270  34.580  1.00  0.00     0.190 HD
BRANCH   6   9
HETATM    9  C13 UNK     1      18.275   0.350  34.060  1.00  0.00     0.110 A 
HETATM   10  C16 UNK     1      18.180   1.597  34.535  1.00  0.00     0.037 A 
HETATM   11  C12 UNK     1      18.242   2.734  33.629  1.00  0.00    -0.001 A 
HETATM   12  C14 UNK     1      18.402   2.501  32.266  1.00  0.00     0.089 A 
HETATM   13  C18 UNK     1      18.147   4.053  34.081  1.00  0.00     0.014 A 
HETATM   14  O2  UNK     1      18.501   1.185  31.773  1.00  0.00    -0.274 OA
HETATM   15  C21 UNK     1      18.468   3.544  31.345  1.00  0.00     0.038 A 
HETATM   16  C20 UNK     1      18.445   0.079  32.615  1.00  0.00     0.304 A 
HETATM   17  O5  UNK     1      18.531  -1.064  32.176  1.00  0.00    -0.259 OA
HETATM   18  C23 UNK     1      18.373   4.857  31.804  1.00  0.00     0.003 A 
HETATM   19  C22 UNK     1      18.213   5.111  33.169  1.00  0.00     0.001 A 
ENDBRANCH   6   9
ENDBRANCH   2   5
BRANCH   3  20
HETATM   20  C3  UNK     1      20.032  -4.717  36.740  1.00  0.00     0.218 C 
HETATM   21  C10 UNK     1      21.267  -4.548  37.611  1.00  0.00     0.050 C 
BRANCH  20  22
HETATM   22  O1  UNK     1      20.067  -6.015  36.170  1.00  0.00    -0.336 OA
BRANCH  22  23
HETATM   23  C2  UNK     1      20.063  -7.077  37.039  1.00  0.00     0.081 A 
HETATM   24  C1  UNK     1      20.600  -8.318  36.670  1.00  0.00     0.007 A 
HETATM   25  C4  UNK     1      20.573  -9.382  37.601  1.00  0.00    -0.023 A 
HETATM   26  C6  UNK     1      21.163  -8.529  35.402  1.00  0.00     0.015 A 
HETATM   27  C7  UNK     1      20.010  -9.171  38.872  1.00  0.00     0.012 A 
HETATM   28  C8  UNK     1      21.109 -10.628  37.237  1.00  0.00     0.012 A 
HETATM   29  C11 UNK     1      19.481  -7.926  39.216  1.00  0.00     0.004 A 
HETATM   30  C5  UNK     1      19.507  -6.879  38.300  1.00  0.00     0.038 A 
HETATM   31  C17 UNK     1      21.665 -10.821  35.972  1.00  0.00     0.001 A 
HETATM   32  C15 UNK     1      21.692  -9.774  35.055  1.00  0.00     0.001 A 
ENDBRANCH  22  23
ENDBRANCH  20  22
ENDBRANCH   3  20
TORSDOF 5
ENDMDL
MODEL 9
REMARK VINA RESULT:      -9.8      5.199      8.776
REMARK  5 active torsions:
REMARK  status: ('A' for Active; 'I' for Inactive)
REMARK    1  A    between atoms: C2_9  and  O1_1 
REMARK    2  A    between atoms: C3_10  and  O1_1 
REMARK       I    between atoms: C9_16  and  N1_6 
REMARK    3  A    between atoms: N1_6  and  N2_7 
REMARK       I    between atoms: C19_26  and  N2_7 
REMARK    4  A    between atoms: C3_10  and  C9_16 
REMARK    5  A    between atoms: C13_20  and  C19_26 
ROOT
HETATM    1  O3  UNK     1      17.879   3.941  33.129  1.00  0.00    -0.269 OA
HETATM    2  N1  UNK     1      17.920   5.686  31.601  1.00  0.00    -0.265 N 
HETATM    3  C9  UNK     1      18.166   4.393  32.022  1.00  0.00     0.265 C 
HETATM    4  H13 UNK     1      18.207   6.051  30.698  1.00  0.00     0.190 HD
ENDROOT
BRANCH   2   5
HETATM    5  N2  UNK     1      17.309   6.563  32.461  1.00  0.00    -0.263 N 
HETATM    6  C19 UNK     1      16.735   7.710  31.955  1.00  0.00     0.276 C 
HETATM    7  O4  UNK     1      16.710   8.051  30.774  1.00  0.00    -0.266 OA
HETATM    8  H16 UNK     1      17.345   6.328  33.448  1.00  0.00     0.190 HD
BRANCH   6   9
HETATM    9  C13 UNK     1      16.123   8.543  32.996  1.00  0.00     0.110 A 
HETATM   10  C16 UNK     1      15.107   9.322  32.609  1.00  0.00     0.037 A 
HETATM   11  C12 UNK     1      14.435  10.184  33.570  1.00  0.00    -0.001 A 
HETATM   12  C14 UNK     1      14.867  10.181  34.893  1.00  0.00     0.089 A 
HETATM   13  C18 UNK     1      13.371  11.013  33.209  1.00  0.00     0.014 A 
HETATM   14  O2  UNK     1      15.937   9.357  35.294  1.00  0.00    -0.274 OA
HETATM   15  C21 UNK     1      14.267  10.982  35.863  1.00  0.00     0.038 A 
HETATM   16  C20 UNK     1      16.598   8.524  34.398  1.00  0.00     0.304 A 
HETATM   17  O5  UNK     1      17.530   7.810  34.757  1.00  0.00    -0.259 OA
HETATM   18  C23 UNK     1      13.206  11.807  35.495  1.00  0.00     0.003 A 
HETATM   19  C22 UNK     1      12.758  11.823  34.172  1.00  0.00     0.001 A 
ENDBRANCH   6   9
ENDBRANCH   2   5
BRANCH   3  20
HETATM   20  C3  UNK     1      18.827   3.549  30.942  1.00  0.00     0.218 C 
HETATM   21  C10 UNK     1      18.818   4.268  29.602  1.00  0.00     0.050 C 
BRANCH  20  22
HETATM   22  O1  UNK     1      18.112   2.333  30.797  1.00  0.00    -0.336 OA
BRANCH  22  23
HETATM   23  C2  UNK     1      18.853   1.199  30.577  1.00  0.00     0.081 A 
HETATM   24  C1  UNK     1      19.042   0.249  31.590  1.00  0.00     0.007 A 
HETATM   25  C4  UNK     1      19.814  -0.904  31.316  1.00  0.00    -0.023 A 
HETATM   26  C6  UNK     1      18.485   0.414  32.868  1.00  0.00     0.015 A 
HETATM   27  C7  UNK     1      20.372  -1.069  30.036  1.00  0.00     0.012 A 
HETATM   28  C8  UNK     1      20.007  -1.859  32.327  1.00  0.00     0.012 A 
HETATM   29  C11 UNK     1      20.170  -0.110  29.043  1.00  0.00     0.004 A 
HETATM   30  C5  UNK     1      19.411   1.024  29.313  1.00  0.00     0.038 A 
HETATM   31  C17 UNK     1      19.446  -1.679  33.592  1.00  0.00     0.001 A 
HETATM   32  C15 UNK     1      18.686  -0.544  33.863  1.00  0.00     0.001 A 
ENDBRANCH  22  23
ENDBRANCH  20  22
ENDBRANCH   3  20
TORSDOF 5
ENDMDL
MODEL 10
REMARK VINA RESULT:      -9.8      6.289     11.905
REMARK  5 active torsions:
REMARK  status: ('A' for Active; 'I' for Inactive)
REMARK    1  A    between atoms: C2_9  and  O1_1 
REMARK    2  A    between atoms: C3_10  and  O1_1 
REMARK       I    between atoms: C9_16  and  N1_6 
REMARK    3  A    between atoms: N1_6  and  N2_7 
REMARK       I    between atoms: C19_26  and  N2_7 
REMARK    4  A    between atoms: C3_10  and  C9_16 
REMARK    5  A    between atoms: C13_20  and  C19_26 
ROOT
HETATM    1  O3  UNK     1      20.340   6.014  33.125  1.00  0.00    -0.269 OA
HETATM    2  N1  UNK     1      18.497   6.158  31.723  1.00  0.00    -0.265 N 
HETATM    3  C9  UNK     1      19.329   6.596  32.736  1.00  0.00     0.265 C 
HETATM    4  H13 UNK     1      17.642   6.631  31.450  1.00  0.00     0.190 HD
ENDROOT
BRANCH   2   5
HETATM    5  N2  UNK     1      18.792   4.983  31.078  1.00  0.00    -0.263 N 
HETATM    6  C19 UNK     1      18.282   3.801  31.569  1.00  0.00     0.276 C 
HETATM    7  O4  UNK     1      17.565   3.673  32.560  1.00  0.00    -0.266 OA
HETATM    8  H16 UNK     1      19.414   5.050  30.278  1.00  0.00     0.190 HD
BRANCH   6   9
HETATM    9  C13 UNK     1      18.685   2.637  30.773  1.00  0.00     0.110 A 
HETATM   10  C16 UNK     1      19.113   1.570  31.458  1.00  0.00     0.037 A 
HETATM   11  C12 UNK     1      19.535   0.367  30.756  1.00  0.00    -0.001 A 
HETATM   12  C14 UNK     1      19.485   0.347  29.365  1.00  0.00     0.089 A 
HETATM   13  C18 UNK     1      19.988  -0.768  31.431  1.00  0.00     0.014 A 
HETATM   14  O2  UNK     1      19.033   1.474  28.650  1.00  0.00    -0.274 OA
HETATM   15  C21 UNK     1      19.875  -0.772  28.633  1.00  0.00     0.038 A 
HETATM   16  C20 UNK     1      18.624   2.637  29.293  1.00  0.00     0.304 A 
HETATM   17  O5  UNK     1      18.233   3.613  28.661  1.00  0.00    -0.259 OA
HETATM   18  C23 UNK     1      20.326  -1.901  29.314  1.00  0.00     0.003 A 
HETATM   19  C22 UNK     1      20.383  -1.900  30.710  1.00  0.00     0.001 A 
ENDBRANCH   6   9
ENDBRANCH   2   5
BRANCH   3  20
HETATM   20  C3  UNK     1      18.871   7.921  33.327  1.00  0.00     0.218 C 
HETATM   21  C10 UNK     1      19.995   8.596  34.097  1.00  0.00     0.050 C 
BRANCH  20  22
HETATM   22  O1  UNK     1      17.798   7.687  34.224  1.00  0.00    -0.336 OA
BRANCH  22  23
HETATM   23  C2  UNK     1      16.553   8.101  33.824  1.00  0.00     0.081 A 
HETATM   24  C1  UNK     1      16.188   9.454  33.875  1.00  0.00     0.007 A 
HETATM   25  C4  UNK     1      14.891   9.832  33.453  1.00  0.00    -0.023 A 
HETATM   26  C6  UNK     1      17.075  10.440  34.334  1.00  0.00     0.015 A 
HETATM   27  C7  UNK     1      14.003   8.845  32.993  1.00  0.00     0.012 A 
HETATM   28  C8  UNK     1      14.520  11.186  33.501  1.00  0.00     0.012 A 
HETATM   29  C11 UNK     1      14.388   7.504  32.952  1.00  0.00     0.004 A 
HETATM   30  C5  UNK     1      15.663   7.132  33.368  1.00  0.00     0.038 A 
HETATM   31  C17 UNK     1      15.414  12.153  33.960  1.00  0.00     0.001 A 
HETATM   32  C15 UNK     1      16.690  11.781  34.376  1.00  0.00     0.001 A 
ENDBRANCH  22  23
ENDBRANCH  20  22
ENDBRANCH   3  20
TORSDOF 5
ENDMDL
