MODEL 1
REMARK VINA RESULT:     -10.0      0.000      0.000
REMARK  2 active torsions:
REMARK  status: ('A' for Active; 'I' for Inactive)
REMARK    1  A    between atoms: C1_5  and  N1_4 
REMARK       I    between atoms: C11_15  and  N1_4 
REMARK    2  A    between atoms: C11_15  and  C12_16 
ROOT
HETATM    1  O1  UNK     1      21.611  -4.190  37.206  1.00  0.00    -0.267 OA
HETATM    2  N1  UNK     1      19.495  -5.152  37.038  1.00  0.00    -0.347 N 
HETATM    3  C11 UNK     1      20.415  -4.128  36.943  1.00  0.00     0.258 C 
HETATM    4  H16 UNK     1      18.532  -4.996  36.755  1.00  0.00     0.163 HD
ENDROOT
BRANCH   3   5
HETATM    5  C12 UNK     1      19.814  -2.870  36.467  1.00  0.00     0.108 A 
HETATM    6  C14 UNK     1      20.002  -2.384  35.081  1.00  0.00     0.304 A 
HETATM    7  O2  UNK     1      19.385  -1.181  34.750  1.00  0.00    -0.274 OA
HETATM    8  O3  UNK     1      20.668  -3.007  34.261  1.00  0.00    -0.259 OA
HETATM    9  C16 UNK     1      18.618  -0.457  35.684  1.00  0.00     0.089 A 
HETATM   10  C15 UNK     1      18.453  -0.932  36.982  1.00  0.00    -0.001 A 
HETATM   11  C18 UNK     1      18.038   0.736  35.259  1.00  0.00     0.038 A 
HETATM   12  C13 UNK     1      19.087  -2.186  37.358  1.00  0.00     0.037 A 
HETATM   13  C17 UNK     1      17.686  -0.186  37.879  1.00  0.00     0.014 A 
HETATM   14  C19 UNK     1      17.098   1.014  37.468  1.00  0.00     0.001 A 
HETATM   15  C20 UNK     1      17.274   1.474  36.161  1.00  0.00     0.003 A 
ENDBRANCH   3   5
BRANCH   2  16
HETATM   16  C1  UNK     1      19.848  -6.484  37.480  1.00  0.00     0.034 C 
HETATM   17  C5  UNK     1      20.565  -6.420  38.847  1.00  0.00     0.035 C 
HETATM   18  C2  UNK     1      20.945  -7.834  39.320  1.00  0.00    -0.012 C 
HETATM   19  C8  UNK     1      19.668  -8.682  39.452  1.00  0.00     0.009 C 
HETATM   20  C9  UNK     1      21.877  -8.481  38.280  1.00  0.00     0.009 C 
HETATM   21  C3  UNK     1      18.949  -8.769  38.095  1.00  0.00    -0.012 C 
HETATM   22  C10 UNK     1      19.892  -9.412  37.063  1.00  0.00     0.009 C 
HETATM   23  C6  UNK     1      18.578  -7.351  37.627  1.00  0.00     0.035 C 
HETATM   24  C4  UNK     1      21.170  -8.567  36.917  1.00  0.00    -0.012 C 
HETATM   25  C7  UNK     1      20.790  -7.150  36.453  1.00  0.00     0.035 C 
ENDBRANCH   2  16
TORSDOF 2
ENDMDL
MODEL 2
REMARK VINA RESULT:      -9.9      0.032      1.530
REMARK  2 active torsions:
REMARK  status: ('A' for Active; 'I' for Inactive)
REMARK    1  A    between atoms: C1_5  and  N1_4 
REMARK       I    between atoms: C11_15  and  N1_4 
REMARK    2  A    between atoms: C11_15  and  C12_16 
ROOT
HETATM    1  O1  UNK     1      21.630  -4.202  37.194  1.00  0.00    -0.267 OA
HETATM    2  N1  UNK     1      19.513  -5.165  37.032  1.00  0.00    -0.347 N 
HETATM    3  C11 UNK     1      20.433  -4.142  36.933  1.00  0.00     0.258 C 
HETATM    4  H16 UNK     1      18.550  -5.010  36.751  1.00  0.00     0.163 HD
ENDROOT
BRANCH   3   5
HETATM    5  C12 UNK     1      19.832  -2.884  36.454  1.00  0.00     0.108 A 
HETATM    6  C14 UNK     1      20.017  -2.403  35.067  1.00  0.00     0.304 A 
HETATM    7  O2  UNK     1      19.400  -1.201  34.733  1.00  0.00    -0.274 OA
HETATM    8  O3  UNK     1      20.682  -3.029  34.247  1.00  0.00    -0.259 OA
HETATM    9  C16 UNK     1      18.634  -0.474  35.666  1.00  0.00     0.089 A 
HETATM   10  C15 UNK     1      18.472  -0.945  36.966  1.00  0.00    -0.001 A 
HETATM   11  C18 UNK     1      18.054   0.718  35.239  1.00  0.00     0.038 A 
HETATM   12  C13 UNK     1      19.106  -2.198  37.345  1.00  0.00     0.037 A 
HETATM   13  C17 UNK     1      17.706  -0.196  37.862  1.00  0.00     0.014 A 
HETATM   14  C19 UNK     1      17.117   1.002  37.449  1.00  0.00     0.001 A 
HETATM   15  C20 UNK     1      17.291   1.458  36.140  1.00  0.00     0.003 A 
ENDBRANCH   3   5
BRANCH   2  16
HETATM   16  C1  UNK     1      19.867  -6.495  37.478  1.00  0.00     0.034 C 
HETATM   17  C5  UNK     1      20.835  -7.157  36.473  1.00  0.00     0.035 C 
HETATM   18  C2  UNK     1      21.212  -8.573  36.943  1.00  0.00    -0.012 C 
HETATM   19  C8  UNK     1      21.889  -8.484  38.320  1.00  0.00     0.009 C 
HETATM   20  C9  UNK     1      19.934  -9.422  37.060  1.00  0.00     0.009 C 
HETATM   21  C3  UNK     1      20.932  -7.842  39.340  1.00  0.00    -0.012 C 
HETATM   22  C10 UNK     1      19.657  -8.695  39.444  1.00  0.00     0.009 C 
HETATM   23  C6  UNK     1      20.556  -6.428  38.859  1.00  0.00     0.035 C 
HETATM   24  C4  UNK     1      18.967  -8.785  38.072  1.00  0.00    -0.012 C 
HETATM   25  C7  UNK     1      18.598  -7.368  37.597  1.00  0.00     0.035 C 
ENDBRANCH   2  16
TORSDOF 2
ENDMDL
MODEL 3
REMARK VINA RESULT:      -9.4      1.707      7.664
REMARK  2 active torsions:
REMARK  status: ('A' for Active; 'I' for Inactive)
REMARK    1  A    between atoms: C1_5  and  N1_4 
REMARK       I    between atoms: C11_15  and  N1_4 
REMARK    2  A    between atoms: C11_15  and  C12_16 
ROOT
HETATM    1  O1  UNK     1      20.106  -3.164  35.327  1.00  0.00    -0.267 OA
HETATM    2  N1  UNK     1      18.627  -2.718  37.072  1.00  0.00    -0.347 N 
HETATM    3  C11 UNK     1      19.559  -3.465  36.383  1.00  0.00     0.258 C 
HETATM    4  H16 UNK     1      18.268  -3.052  37.962  1.00  0.00     0.163 HD
ENDROOT
BRANCH   3   5
HETATM    5  C12 UNK     1      19.875  -4.738  37.055  1.00  0.00     0.108 A 
HETATM    6  C14 UNK     1      18.917  -5.866  37.092  1.00  0.00     0.304 A 
HETATM    7  O2  UNK     1      19.329  -7.017  37.758  1.00  0.00    -0.274 OA
HETATM    8  O3  UNK     1      17.812  -5.795  36.563  1.00  0.00    -0.259 OA
HETATM    9  C16 UNK     1      20.595  -7.109  38.368  1.00  0.00     0.089 A 
HETATM   10  C15 UNK     1      21.482  -6.037  38.321  1.00  0.00    -0.001 A 
HETATM   11  C18 UNK     1      20.919  -8.302  39.010  1.00  0.00     0.038 A 
HETATM   12  C13 UNK     1      21.079  -4.820  37.633  1.00  0.00     0.037 A 
HETATM   13  C17 UNK     1      22.728  -6.167  38.939  1.00  0.00     0.014 A 
HETATM   14  C19 UNK     1      23.068  -7.357  39.587  1.00  0.00     0.001 A 
HETATM   15  C20 UNK     1      22.165  -8.423  39.622  1.00  0.00     0.003 A 
ENDBRANCH   3   5
BRANCH   2  16
HETATM   16  C1  UNK     1      18.160  -1.429  36.610  1.00  0.00     0.034 C 
HETATM   17  C5  UNK     1      19.326  -0.630  35.988  1.00  0.00     0.035 C 
HETATM   18  C2  UNK     1      18.833   0.743  35.498  1.00  0.00    -0.012 C 
HETATM   19  C8  UNK     1      17.735   0.537  34.441  1.00  0.00     0.009 C 
HETATM   20  C9  UNK     1      18.251   1.526  36.688  1.00  0.00     0.009 C 
HETATM   21  C3  UNK     1      16.557  -0.244  35.048  1.00  0.00    -0.012 C 
HETATM   22  C10 UNK     1      15.987   0.544  36.241  1.00  0.00     0.009 C 
HETATM   23  C6  UNK     1      17.060  -1.613  35.541  1.00  0.00     0.035 C 
HETATM   24  C4  UNK     1      17.077   0.749  37.307  1.00  0.00    -0.012 C 
HETATM   25  C7  UNK     1      17.576  -0.623  37.791  1.00  0.00     0.035 C 
ENDBRANCH   2  16
TORSDOF 2
ENDMDL
MODEL 4
REMARK VINA RESULT:      -9.4      1.711      7.662
REMARK  2 active torsions:
REMARK  status: ('A' for Active; 'I' for Inactive)
REMARK    1  A    between atoms: C1_5  and  N1_4 
REMARK       I    between atoms: C11_15  and  N1_4 
REMARK    2  A    between atoms: C11_15  and  C12_16 
ROOT
HETATM    1  O1  UNK     1      20.083  -3.176  35.318  1.00  0.00    -0.267 OA
HETATM    2  N1  UNK     1      18.619  -2.722  37.074  1.00  0.00    -0.347 N 
HETATM    3  C11 UNK     1      19.545  -3.472  36.380  1.00  0.00     0.258 C 
HETATM    4  H16 UNK     1      18.267  -3.051  37.968  1.00  0.00     0.163 HD
ENDROOT
BRANCH   3   5
HETATM    5  C12 UNK     1      19.865  -4.743  37.055  1.00  0.00     0.108 A 
HETATM    6  C14 UNK     1      18.912  -5.874  37.093  1.00  0.00     0.304 A 
HETATM    7  O2  UNK     1      19.328  -7.022  37.761  1.00  0.00    -0.274 OA
HETATM    8  O3  UNK     1      17.806  -5.808  36.565  1.00  0.00    -0.259 OA
HETATM    9  C16 UNK     1      20.595  -7.108  38.372  1.00  0.00     0.089 A 
HETATM   10  C15 UNK     1      21.477  -6.033  38.323  1.00  0.00    -0.001 A 
HETATM   11  C18 UNK     1      20.923  -8.299  39.016  1.00  0.00     0.038 A 
HETATM   12  C13 UNK     1      21.070  -4.819  37.633  1.00  0.00     0.037 A 
HETATM   13  C17 UNK     1      22.724  -6.156  38.941  1.00  0.00     0.014 A 
HETATM   14  C19 UNK     1      23.068  -7.345  39.591  1.00  0.00     0.001 A 
HETATM   15  C20 UNK     1      22.169  -8.413  39.629  1.00  0.00     0.003 A 
ENDBRANCH   3   5
BRANCH   2  16
HETATM   16  C1  UNK     1      18.149  -1.434  36.610  1.00  0.00     0.034 C 
HETATM   17  C5  UNK     1      17.042  -1.620  35.550  1.00  0.00     0.035 C 
HETATM   18  C2  UNK     1      16.541  -0.252  35.053  1.00  0.00    -0.012 C 
HETATM   19  C8  UNK     1      15.980   0.543  36.243  1.00  0.00     0.009 C 
HETATM   20  C9  UNK     1      17.718   0.523  34.435  1.00  0.00     0.009 C 
HETATM   21  C3  UNK     1      17.075   0.752  37.303  1.00  0.00    -0.012 C 
HETATM   22  C10 UNK     1      18.249   1.522  36.674  1.00  0.00     0.009 C 
HETATM   23  C6  UNK     1      17.573  -0.620  37.791  1.00  0.00     0.035 C 
HETATM   24  C4  UNK     1      18.823   0.730  35.485  1.00  0.00    -0.012 C 
HETATM   25  C7  UNK     1      19.315  -0.641  35.981  1.00  0.00     0.035 C 
ENDBRANCH   2  16
TORSDOF 2
ENDMDL
MODEL 5
REMARK VINA RESULT:      -9.3      1.461      7.580
REMARK  2 active torsions:
REMARK  status: ('A' for Active; 'I' for Inactive)
REMARK    1  A    between atoms: C1_5  and  N1_4 
REMARK       I    between atoms: C11_15  and  N1_4 
REMARK    2  A    between atoms: C11_15  and  C12_16 
ROOT
HETATM    1  O1  UNK     1      20.311  -2.485  37.650  1.00  0.00    -0.267 OA
HETATM    2  N1  UNK     1      18.478  -2.863  36.261  1.00  0.00    -0.347 N 
HETATM    3  C11 UNK     1      19.588  -3.228  36.995  1.00  0.00     0.258 C 
HETATM    4  H16 UNK     1      17.929  -3.574  35.786  1.00  0.00     0.163 HD
ENDROOT
BRANCH   3   5
HETATM    5  C12 UNK     1      19.859  -4.675  36.932  1.00  0.00     0.108 A 
HETATM    6  C14 UNK     1      20.192  -5.358  35.662  1.00  0.00     0.304 A 
HETATM    7  O2  UNK     1      20.426  -6.728  35.730  1.00  0.00    -0.274 OA
HETATM    8  O3  UNK     1      20.258  -4.751  34.598  1.00  0.00    -0.259 OA
HETATM    9  C16 UNK     1      20.353  -7.435  36.946  1.00  0.00     0.089 A 
HETATM   10  C15 UNK     1      20.039  -6.774  38.130  1.00  0.00    -0.001 A 
HETATM   11  C18 UNK     1      20.605  -8.805  36.915  1.00  0.00     0.038 A 
HETATM   12  C13 UNK     1      19.787  -5.342  38.091  1.00  0.00     0.037 A 
HETATM   13  C17 UNK     1      19.975  -7.509  39.316  1.00  0.00     0.014 A 
HETATM   14  C19 UNK     1      20.226  -8.884  39.301  1.00  0.00     0.001 A 
HETATM   15  C20 UNK     1      20.540  -9.531  38.103  1.00  0.00     0.003 A 
ENDBRANCH   3   5
BRANCH   2  16
HETATM   16  C1  UNK     1      18.013  -1.496  36.172  1.00  0.00     0.034 C 
HETATM   17  C5  UNK     1      17.653  -0.962  37.576  1.00  0.00     0.035 C 
HETATM   18  C2  UNK     1      17.155   0.491  37.485  1.00  0.00    -0.012 C 
HETATM   19  C8  UNK     1      18.262   1.367  36.873  1.00  0.00     0.009 C 
HETATM   20  C9  UNK     1      15.911   0.543  36.582  1.00  0.00     0.009 C 
HETATM   21  C3  UNK     1      18.621   0.858  35.466  1.00  0.00    -0.012 C 
HETATM   22  C10 UNK     1      17.369   0.908  34.574  1.00  0.00     0.009 C 
HETATM   23  C6  UNK     1      19.113  -0.597  35.566  1.00  0.00     0.035 C 
HETATM   24  C4  UNK     1      16.257   0.029  35.175  1.00  0.00    -0.012 C 
HETATM   25  C7  UNK     1      16.758  -1.423  35.274  1.00  0.00     0.035 C 
ENDBRANCH   2  16
TORSDOF 2
ENDMDL
MODEL 6
REMARK VINA RESULT:      -9.0      7.321     12.151
REMARK  2 active torsions:
REMARK  status: ('A' for Active; 'I' for Inactive)
REMARK    1  A    between atoms: C1_5  and  N1_4 
REMARK       I    between atoms: C11_15  and  N1_4 
REMARK    2  A    between atoms: C11_15  and  C12_16 
ROOT
HETATM    1  O1  UNK     1      18.228   4.651  30.544  1.00  0.00    -0.267 OA
HETATM    2  N1  UNK     1      17.832   4.454  32.833  1.00  0.00    -0.347 N 
HETATM    3  C11 UNK     1      18.194   3.998  31.582  1.00  0.00     0.258 C 
HETATM    4  H16 UNK     1      17.879   3.829  33.632  1.00  0.00     0.163 HD
ENDROOT
BRANCH   3   5
HETATM    5  C12 UNK     1      18.566   2.572  31.584  1.00  0.00     0.108 A 
HETATM    6  C14 UNK     1      18.374   1.712  32.773  1.00  0.00     0.304 A 
HETATM    7  O2  UNK     1      18.764   0.381  32.653  1.00  0.00    -0.274 OA
HETATM    8  O3  UNK     1      17.894   2.145  33.816  1.00  0.00    -0.259 OA
HETATM    9  C16 UNK     1      19.316  -0.127  31.460  1.00  0.00     0.089 A 
HETATM   10  C15 UNK     1      19.487   0.699  30.353  1.00  0.00    -0.001 A 
HETATM   11  C18 UNK     1      19.675  -1.472  31.435  1.00  0.00     0.038 A 
HETATM   12  C13 UNK     1      19.090   2.095  30.449  1.00  0.00     0.037 A 
HETATM   13  C17 UNK     1      20.038   0.159  29.189  1.00  0.00     0.014 A 
HETATM   14  C19 UNK     1      20.404  -1.189  29.148  1.00  0.00     0.001 A 
HETATM   15  C20 UNK     1      20.223  -2.003  30.269  1.00  0.00     0.003 A 
ENDBRANCH   3   5
BRANCH   2  16
HETATM   16  C1  UNK     1      17.429   5.821  33.081  1.00  0.00     0.034 C 
HETATM   17  C5  UNK     1      18.549   6.795  32.656  1.00  0.00     0.035 C 
HETATM   18  C2  UNK     1      18.125   8.250  32.921  1.00  0.00    -0.012 C 
HETATM   19  C8  UNK     1      16.849   8.558  32.120  1.00  0.00     0.009 C 
HETATM   20  C9  UNK     1      17.835   8.425  34.422  1.00  0.00     0.009 C 
HETATM   21  C3  UNK     1      15.716   7.607  32.543  1.00  0.00    -0.012 C 
HETATM   22  C10 UNK     1      15.440   7.786  34.046  1.00  0.00     0.009 C 
HETATM   23  C6  UNK     1      16.151   6.154  32.280  1.00  0.00     0.035 C 
HETATM   24  C4  UNK     1      16.709   7.473  34.858  1.00  0.00    -0.012 C 
HETATM   25  C7  UNK     1      17.139   6.021  34.585  1.00  0.00     0.035 C 
ENDBRANCH   2  16
TORSDOF 2
ENDMDL
MODEL 7
REMARK VINA RESULT:      -9.0      2.406      3.756
REMARK  2 active torsions:
REMARK  status: ('A' for Active; 'I' for Inactive)
REMARK    1  A    between atoms: C1_5  and  N1_4 
REMARK       I    between atoms: C11_15  and  N1_4 
REMARK    2  A    between atoms: C11_15  and  C12_16 
ROOT
HETATM    1  O1  UNK     1      20.602  -2.907  36.733  1.00  0.00    -0.267 OA
HETATM    2  N1  UNK     1      19.788  -4.599  35.352  1.00  0.00    -0.347 N 
HETATM    3  C11 UNK     1      20.123  -3.300  35.675  1.00  0.00     0.258 C 
HETATM    4  H16 UNK     1      19.432  -4.815  34.426  1.00  0.00     0.163 HD
ENDROOT
BRANCH   3   5
HETATM    5  C12 UNK     1      19.847  -2.355  34.578  1.00  0.00     0.108 A 
HETATM    6  C14 UNK     1      19.015  -1.147  34.773  1.00  0.00     0.304 A 
HETATM    7  O2  UNK     1      18.826  -0.331  33.662  1.00  0.00    -0.274 OA
HETATM    8  O3  UNK     1      18.513  -0.873  35.859  1.00  0.00    -0.259 OA
HETATM    9  C16 UNK     1      19.397  -0.635  32.411  1.00  0.00     0.089 A 
HETATM   10  C15 UNK     1      20.177  -1.776  32.249  1.00  0.00    -0.001 A 
HETATM   11  C18 UNK     1      19.152   0.243  31.357  1.00  0.00     0.038 A 
HETATM   12  C13 UNK     1      20.392  -2.649  33.392  1.00  0.00     0.037 A 
HETATM   13  C17 UNK     1      20.725  -2.043  30.992  1.00  0.00     0.014 A 
HETATM   14  C19 UNK     1      20.489  -1.172  29.925  1.00  0.00     0.001 A 
HETATM   15  C20 UNK     1      19.704  -0.031  30.107  1.00  0.00     0.003 A 
ENDBRANCH   3   5
BRANCH   2  16
HETATM   16  C1  UNK     1      19.970  -5.705  36.267  1.00  0.00     0.034 C 
HETATM   17  C5  UNK     1      18.636  -6.045  36.967  1.00  0.00     0.035 C 
HETATM   18  C2  UNK     1      18.826  -7.219  37.943  1.00  0.00    -0.012 C 
HETATM   19  C8  UNK     1      19.321  -8.448  37.163  1.00  0.00     0.009 C 
HETATM   20  C9  UNK     1      19.875  -6.832  39.000  1.00  0.00     0.009 C 
HETATM   21  C3  UNK     1      20.659  -8.133  36.473  1.00  0.00    -0.012 C 
HETATM   22  C10 UNK     1      21.699  -7.742  37.538  1.00  0.00     0.009 C 
HETATM   23  C6  UNK     1      20.461  -6.954  35.503  1.00  0.00     0.035 C 
HETATM   24  C4  UNK     1      21.216  -6.507  38.319  1.00  0.00    -0.012 C 
HETATM   25  C7  UNK     1      21.016  -5.335  37.342  1.00  0.00     0.035 C 
ENDBRANCH   2  16
TORSDOF 2
ENDMDL
MODEL 8
REMARK VINA RESULT:      -8.9      7.669     11.931
REMARK  2 active torsions:
REMARK  status: ('A' for Active; 'I' for Inactive)
REMARK    1  A    between atoms: C1_5  and  N1_4 
REMARK       I    between atoms: C11_15  and  N1_4 
REMARK    2  A    between atoms: C11_15  and  C12_16 
ROOT
HETATM    1  O1  UNK     1      17.588   2.922  33.153  1.00  0.00    -0.267 OA
HETATM    2  N1  UNK     1      18.590   4.496  31.756  1.00  0.00    -0.347 N 
HETATM    3  C11 UNK     1      18.238   3.224  32.158  1.00  0.00     0.258 C 
HETATM    4  H16 UNK     1      19.100   4.630  30.888  1.00  0.00     0.163 HD
ENDROOT
BRANCH   3   5
HETATM    5  C12 UNK     1      18.731   2.183  31.239  1.00  0.00     0.108 A 
HETATM    6  C14 UNK     1      18.800   2.395  29.776  1.00  0.00     0.304 A 
HETATM    7  O2  UNK     1      19.284   1.336  29.011  1.00  0.00    -0.274 OA
HETATM    8  O3  UNK     1      18.449   3.449  29.256  1.00  0.00    -0.259 OA
HETATM    9  C16 UNK     1      19.690   0.121  29.597  1.00  0.00     0.089 A 
HETATM   10  C15 UNK     1      19.617  -0.057  30.976  1.00  0.00    -0.001 A 
HETATM   11  C18 UNK     1      20.161  -0.880  28.751  1.00  0.00     0.038 A 
HETATM   12  C13 UNK     1      19.115   1.030  31.801  1.00  0.00     0.037 A 
HETATM   13  C17 UNK     1      20.029  -1.277  31.519  1.00  0.00     0.014 A 
HETATM   14  C19 UNK     1      20.504  -2.291  30.683  1.00  0.00     0.001 A 
HETATM   15  C20 UNK     1      20.570  -2.093  29.302  1.00  0.00     0.003 A 
ENDBRANCH   3   5
BRANCH   2  16
HETATM   16  C1  UNK     1      18.218   5.682  32.496  1.00  0.00     0.034 C 
HETATM   17  C5  UNK     1      16.689   5.895  32.430  1.00  0.00     0.035 C 
HETATM   18  C2  UNK     1      16.290   7.157  33.214  1.00  0.00    -0.012 C 
HETATM   19  C8  UNK     1      16.720   6.997  34.682  1.00  0.00     0.009 C 
HETATM   20  C9  UNK     1      17.006   8.377  32.607  1.00  0.00     0.009 C 
HETATM   21  C3  UNK     1      18.243   6.799  34.768  1.00  0.00    -0.012 C 
HETATM   22  C10 UNK     1      18.948   8.021  34.153  1.00  0.00     0.009 C 
HETATM   23  C6  UNK     1      18.634   5.538  33.977  1.00  0.00     0.035 C 
HETATM   24  C4  UNK     1      18.530   8.186  32.681  1.00  0.00    -0.012 C 
HETATM   25  C7  UNK     1      18.921   6.920  31.899  1.00  0.00     0.035 C 
ENDBRANCH   2  16
TORSDOF 2
ENDMDL
MODEL 9
REMARK VINA RESULT:      -8.7      1.279      7.644
REMARK  2 active torsions:
REMARK  status: ('A' for Active; 'I' for Inactive)
REMARK    1  A    between atoms: C1_5  and  N1_4 
REMARK       I    between atoms: C11_15  and  N1_4 
REMARK    2  A    between atoms: C11_15  and  C12_16 
ROOT
HETATM    1  O1  UNK     1      20.150  -3.131  35.106  1.00  0.00    -0.267 OA
HETATM    2  N1  UNK     1      18.711  -2.839  36.917  1.00  0.00    -0.347 N 
HETATM    3  C11 UNK     1      19.636  -3.517  36.151  1.00  0.00     0.258 C 
HETATM    4  H16 UNK     1      18.381  -3.242  37.789  1.00  0.00     0.163 HD
ENDROOT
BRANCH   3   5
HETATM    5  C12 UNK     1      19.989  -4.830  36.720  1.00  0.00     0.108 A 
HETATM    6  C14 UNK     1      21.197  -5.027  37.552  1.00  0.00     0.304 A 
HETATM    7  O2  UNK     1      21.424  -6.313  38.033  1.00  0.00    -0.274 OA
HETATM    8  O3  UNK     1      21.964  -4.104  37.809  1.00  0.00    -0.259 OA
HETATM    9  C16 UNK     1      20.550  -7.379  37.745  1.00  0.00     0.089 A 
HETATM   10  C15 UNK     1      19.418  -7.173  36.960  1.00  0.00    -0.001 A 
HETATM   11  C18 UNK     1      20.859  -8.631  38.271  1.00  0.00     0.038 A 
HETATM   12  C13 UNK     1      19.155  -5.839  36.443  1.00  0.00     0.037 A 
HETATM   13  C17 UNK     1      18.576  -8.255  36.696  1.00  0.00     0.014 A 
HETATM   14  C19 UNK     1      18.873  -9.517  37.218  1.00  0.00     0.001 A 
HETATM   15  C20 UNK     1      20.013  -9.705  38.003  1.00  0.00     0.003 A 
ENDBRANCH   3   5
BRANCH   2  16
HETATM   16  C1  UNK     1      18.212  -1.528  36.562  1.00  0.00     0.034 C 
HETATM   17  C5  UNK     1      19.331  -0.689  35.906  1.00  0.00     0.035 C 
HETATM   18  C2  UNK     1      18.804   0.707  35.530  1.00  0.00    -0.012 C 
HETATM   19  C8  UNK     1      17.633   0.556  34.544  1.00  0.00     0.009 C 
HETATM   20  C9  UNK     1      18.307   1.418  36.800  1.00  0.00     0.009 C 
HETATM   21  C3  UNK     1      16.502  -0.264  35.188  1.00  0.00    -0.012 C 
HETATM   22  C10 UNK     1      16.018   0.453  36.460  1.00  0.00     0.009 C 
HETATM   23  C6  UNK     1      17.039  -1.656  35.566  1.00  0.00     0.035 C 
HETATM   24  C4  UNK     1      17.180   0.603  37.457  1.00  0.00    -0.012 C 
HETATM   25  C7  UNK     1      17.714  -0.792  37.826  1.00  0.00     0.035 C 
ENDBRANCH   2  16
TORSDOF 2
ENDMDL
MODEL 10
REMARK VINA RESULT:      -8.6      5.360      8.561
REMARK  2 active torsions:
REMARK  status: ('A' for Active; 'I' for Inactive)
REMARK    1  A    between atoms: C1_5  and  N1_4 
REMARK       I    between atoms: C11_15  and  N1_4 
REMARK    2  A    between atoms: C11_15  and  C12_16 
ROOT
HETATM    1  O1  UNK     1      23.325  -6.939  39.802  1.00  0.00    -0.267 OA
HETATM    2  N1  UNK     1      23.371  -8.399  37.986  1.00  0.00    -0.347 N 
HETATM    3  C11 UNK     1      23.923  -7.552  38.924  1.00  0.00     0.258 C 
HETATM    4  H16 UNK     1      23.972  -8.886  37.327  1.00  0.00     0.163 HD
ENDROOT
BRANCH   3   5
HETATM    5  C12 UNK     1      25.386  -7.432  38.788  1.00  0.00     0.108 A 
HETATM    6  C14 UNK     1      26.058  -6.120  38.662  1.00  0.00     0.304 A 
HETATM    7  O2  UNK     1      27.445  -6.136  38.539  1.00  0.00    -0.274 OA
HETATM    8  O3  UNK     1      25.429  -5.066  38.664  1.00  0.00    -0.259 OA
HETATM    9  C16 UNK     1      28.177  -7.339  38.536  1.00  0.00     0.089 A 
HETATM   10  C15 UNK     1      27.525  -8.563  38.657  1.00  0.00    -0.001 A 
HETATM   11  C18 UNK     1      29.561  -7.254  38.409  1.00  0.00     0.038 A 
HETATM   12  C13 UNK     1      26.076  -8.579  38.785  1.00  0.00     0.037 A 
HETATM   13  C17 UNK     1      28.286  -9.734  38.648  1.00  0.00     0.014 A 
HETATM   14  C19 UNK     1      29.676  -9.665  38.522  1.00  0.00     0.001 A 
HETATM   15  C20 UNK     1      30.312  -8.427  38.403  1.00  0.00     0.003 A 
ENDBRANCH   3   5
BRANCH   2  16
HETATM   16  C1  UNK     1      21.953  -8.678  37.921  1.00  0.00     0.034 C 
HETATM   17  C5  UNK     1      21.688  -9.890  37.002  1.00  0.00     0.035 C 
HETATM   18  C2  UNK     1      20.180 -10.188  36.928  1.00  0.00    -0.012 C 
HETATM   19  C8  UNK     1      19.656 -10.494  38.342  1.00  0.00     0.009 C 
HETATM   20  C9  UNK     1      19.448  -8.954  36.374  1.00  0.00     0.009 C 
HETATM   21  C3  UNK     1      19.898  -9.289  39.267  1.00  0.00    -0.012 C 
HETATM   22  C10 UNK     1      19.167  -8.060  38.700  1.00  0.00     0.009 C 
HETATM   23  C6  UNK     1      21.407  -8.995  39.331  1.00  0.00     0.035 C 
HETATM   24  C4  UNK     1      19.689  -7.741  37.288  1.00  0.00    -0.012 C 
HETATM   25  C7  UNK     1      21.198  -7.452  37.360  1.00  0.00     0.035 C 
ENDBRANCH   2  16
TORSDOF 2
ENDMDL
