MODEL 1
REMARK VINA RESULT:      -9.5      0.000      0.000
REMARK  2 active torsions:
REMARK  status: ('A' for Active; 'I' for Inactive)
REMARK    1  A    between atoms: C3_9  and  N1_6 
REMARK       I    between atoms: C7_13  and  N1_6 
REMARK    2  A    between atoms: C2_8  and  C7_13 
ROOT
HETATM    1 Cl1  UNK     1      17.670  -7.927  13.162  1.00  0.00    -0.084 Cl
HETATM    2  O1  UNK     1      19.379  -2.283  13.236  1.00  0.00    -0.274 OA
HETATM    3  O3  UNK     1      19.533  -0.271  14.307  1.00  0.00    -0.259 OA
HETATM    4  C1  UNK     1      18.312  -4.160  14.356  1.00  0.00     0.001 A 
HETATM    5  C2  UNK     1      18.475  -2.028  15.494  1.00  0.00     0.108 A 
HETATM    6  C4  UNK     1      18.960  -3.628  13.245  1.00  0.00     0.089 A 
HETATM    7  C5  UNK     1      18.075  -3.304  15.508  1.00  0.00     0.037 A 
HETATM    8  C8  UNK     1      17.913  -5.498  14.327  1.00  0.00     0.038 A 
HETATM    9  C9  UNK     1      19.166  -1.440  14.324  1.00  0.00     0.304 A 
HETATM   10  C11 UNK     1      19.218  -4.394  12.110  1.00  0.00     0.040 A 
HETATM   11  C14 UNK     1      18.165  -6.279  13.195  1.00  0.00     0.035 A 
HETATM   12  C15 UNK     1      18.817  -5.728  12.090  1.00  0.00     0.026 A 
ENDROOT
BRANCH   5  13
HETATM   13  C7  UNK     1      18.190  -1.244  16.704  1.00  0.00     0.262 C 
HETATM   14  O2  UNK     1      17.102  -1.364  17.265  1.00  0.00    -0.267 OA
HETATM   15  N1  UNK     1      19.255  -0.430  17.063  1.00  0.00    -0.322 N 
HETATM   16  H2  UNK     1      20.094  -0.475  16.492  1.00  0.00     0.169 HD
BRANCH  15  17
HETATM   17  C3  UNK     1      19.330   0.456  18.165  1.00  0.00     0.043 A 
HETATM   18  C10 UNK     1      19.442  -0.081  19.438  1.00  0.00     0.072 A 
HETATM   19  C16 UNK     1      19.517   0.777  20.536  1.00  0.00     0.118 A 
HETATM   20  F1  UNK     1      19.626   0.273  21.773  1.00  0.00    -0.206 F 
HETATM   21  C17 UNK     1      19.480   2.158  20.347  1.00  0.00     0.043 A 
HETATM   22  C12 UNK     1      19.368   2.682  19.059  1.00  0.00     0.012 A 
HETATM   23  C6  UNK     1      19.292   1.826  17.961  1.00  0.00    -0.035 A 
HETATM   24  C13 UNK     1      19.173   2.415  16.592  1.00  0.00     0.050 C 
ENDBRANCH  15  17
ENDBRANCH   5  13
TORSDOF 2
ENDMDL
MODEL 2
REMARK VINA RESULT:      -9.5     13.787     16.162
REMARK  2 active torsions:
REMARK  status: ('A' for Active; 'I' for Inactive)
REMARK    1  A    between atoms: C3_9  and  N1_6 
REMARK       I    between atoms: C7_13  and  N1_6 
REMARK    2  A    between atoms: C2_8  and  C7_13 
ROOT
HETATM    1 Cl1  UNK     1      20.963  -3.338  31.254  1.00  0.00    -0.084 Cl
HETATM    2  O1  UNK     1      19.052   1.664  28.780  1.00  0.00    -0.274 OA
HETATM    3  O3  UNK     1      18.223   3.783  28.976  1.00  0.00    -0.259 OA
HETATM    4  C1  UNK     1      19.526   0.370  30.784  1.00  0.00     0.001 A 
HETATM    5  C2  UNK     1      18.648   2.618  30.995  1.00  0.00     0.108 A 
HETATM    6  C4  UNK     1      19.504   0.480  29.397  1.00  0.00     0.089 A 
HETATM    7  C5  UNK     1      19.076   1.496  31.586  1.00  0.00     0.037 A 
HETATM    8  C8  UNK     1      19.982  -0.819  31.358  1.00  0.00     0.038 A 
HETATM    9  C9  UNK     1      18.616   2.758  29.521  1.00  0.00     0.304 A 
HETATM   10  C11 UNK     1      19.922  -0.561  28.571  1.00  0.00     0.040 A 
HETATM   11  C14 UNK     1      20.405  -1.873  30.542  1.00  0.00     0.035 A 
HETATM   12  C15 UNK     1      20.375  -1.744  29.152  1.00  0.00     0.026 A 
ENDROOT
BRANCH   5  13
HETATM   13  C7  UNK     1      18.213   3.699  31.889  1.00  0.00     0.262 C 
HETATM   14  O2  UNK     1      17.603   3.427  32.922  1.00  0.00    -0.267 OA
HETATM   15  N1  UNK     1      18.575   4.950  31.411  1.00  0.00    -0.322 N 
HETATM   16  H2  UNK     1      19.100   4.988  30.543  1.00  0.00     0.169 HD
BRANCH  15  17
HETATM   17  C3  UNK     1      18.320   6.209  32.009  1.00  0.00     0.043 A 
HETATM   18  C10 UNK     1      17.067   6.777  31.844  1.00  0.00     0.072 A 
HETATM   19  C16 UNK     1      16.798   8.016  32.426  1.00  0.00     0.118 A 
HETATM   20  F1  UNK     1      15.591   8.579  32.276  1.00  0.00    -0.206 F 
HETATM   21  C17 UNK     1      17.785   8.669  33.165  1.00  0.00     0.043 A 
HETATM   22  C12 UNK     1      19.040   8.083  33.323  1.00  0.00     0.012 A 
HETATM   23  C6  UNK     1      19.311   6.845  32.741  1.00  0.00    -0.035 A 
HETATM   24  C13 UNK     1      20.665   6.239  32.926  1.00  0.00     0.050 C 
ENDBRANCH  15  17
ENDBRANCH   5  13
TORSDOF 2
ENDMDL
MODEL 3
REMARK VINA RESULT:      -8.8     19.208     21.340
REMARK  2 active torsions:
REMARK  status: ('A' for Active; 'I' for Inactive)
REMARK    1  A    between atoms: C3_9  and  N1_6 
REMARK       I    between atoms: C7_13  and  N1_6 
REMARK    2  A    between atoms: C2_8  and  C7_13 
ROOT
HETATM    1 Cl1  UNK     1      16.144   2.044  37.573  1.00  0.00    -0.084 Cl
HETATM    2  O1  UNK     1      19.539  -1.342  34.138  1.00  0.00    -0.274 OA
HETATM    3  O3  UNK     1      20.781  -3.233  33.825  1.00  0.00    -0.259 OA
HETATM    4  C1  UNK     1      18.446  -0.965  36.278  1.00  0.00     0.001 A 
HETATM    5  C2  UNK     1      19.762  -2.972  35.948  1.00  0.00     0.108 A 
HETATM    6  C4  UNK     1      18.730  -0.553  34.980  1.00  0.00     0.089 A 
HETATM    7  C5  UNK     1      18.996  -2.225  36.752  1.00  0.00     0.037 A 
HETATM    8  C8  UNK     1      17.640  -0.155  37.081  1.00  0.00     0.038 A 
HETATM    9  C9  UNK     1      20.079  -2.553  34.564  1.00  0.00     0.304 A 
HETATM   10  C11 UNK     1      18.234   0.643  34.465  1.00  0.00     0.040 A 
HETATM   11  C14 UNK     1      17.135   1.048  36.579  1.00  0.00     0.035 A 
HETATM   12  C15 UNK     1      17.431   1.445  35.273  1.00  0.00     0.026 A 
ENDROOT
BRANCH   5  13
HETATM   13  C7  UNK     1      20.272  -4.227  36.517  1.00  0.00     0.262 C 
HETATM   14  O2  UNK     1      21.279  -4.212  37.223  1.00  0.00    -0.267 OA
HETATM   15  N1  UNK     1      19.496  -5.318  36.153  1.00  0.00    -0.322 N 
HETATM   16  H2  UNK     1      18.679  -5.143  35.577  1.00  0.00     0.169 HD
BRANCH  15  17
HETATM   17  C3  UNK     1      19.690  -6.674  36.516  1.00  0.00     0.043 A 
HETATM   18  C10 UNK     1      19.404  -7.057  37.816  1.00  0.00     0.072 A 
HETATM   19  C16 UNK     1      19.590  -8.389  38.191  1.00  0.00     0.118 A 
HETATM   20  F1  UNK     1      19.318  -8.776  39.445  1.00  0.00    -0.206 F 
HETATM   21  C17 UNK     1      20.058  -9.317  37.261  1.00  0.00     0.043 A 
HETATM   22  C12 UNK     1      20.339  -8.915  35.956  1.00  0.00     0.012 A 
HETATM   23  C6  UNK     1      20.155  -7.584  35.580  1.00  0.00    -0.035 A 
HETATM   24  C13 UNK     1      20.464  -7.181  34.174  1.00  0.00     0.050 C 
ENDBRANCH  15  17
ENDBRANCH   5  13
TORSDOF 2
ENDMDL
MODEL 4
REMARK VINA RESULT:      -8.5     16.133     19.571
REMARK  2 active torsions:
REMARK  status: ('A' for Active; 'I' for Inactive)
REMARK    1  A    between atoms: C3_9  and  N1_6 
REMARK       I    between atoms: C7_13  and  N1_6 
REMARK    2  A    between atoms: C2_8  and  C7_13 
ROOT
HETATM    1 Cl1  UNK     1      20.829  -0.771  28.777  1.00  0.00    -0.084 Cl
HETATM    2  O1  UNK     1      18.679  -0.472  34.261  1.00  0.00    -0.274 OA
HETATM    3  O3  UNK     1      18.524  -1.312  36.379  1.00  0.00    -0.259 OA
HETATM    4  C1  UNK     1      20.064  -1.609  32.616  1.00  0.00     0.001 A 
HETATM    5  C2  UNK     1      19.902  -2.502  34.862  1.00  0.00     0.108 A 
HETATM    6  C4  UNK     1      19.207  -0.567  32.958  1.00  0.00     0.089 A 
HETATM    7  C5  UNK     1      20.406  -2.597  33.627  1.00  0.00     0.037 A 
HETATM    8  C8  UNK     1      20.567  -1.668  31.315  1.00  0.00     0.038 A 
HETATM    9  C9  UNK     1      18.989  -1.403  35.248  1.00  0.00     0.304 A 
HETATM   10  C11 UNK     1      18.840   0.413  32.038  1.00  0.00     0.040 A 
HETATM   11  C14 UNK     1      20.208  -0.692  30.381  1.00  0.00     0.035 A 
HETATM   12  C15 UNK     1      19.347   0.346  30.741  1.00  0.00     0.026 A 
ENDROOT
BRANCH   5  13
HETATM   13  C7  UNK     1      20.306  -3.548  35.811  1.00  0.00     0.262 C 
HETATM   14  O2  UNK     1      21.075  -3.273  36.731  1.00  0.00    -0.267 OA
HETATM   15  N1  UNK     1      19.727  -4.774  35.516  1.00  0.00    -0.322 N 
HETATM   16  H2  UNK     1      19.093  -4.815  34.724  1.00  0.00     0.169 HD
BRANCH  15  17
HETATM   17  C3  UNK     1      19.892  -5.997  36.211  1.00  0.00     0.043 A 
HETATM   18  C10 UNK     1      19.689  -6.009  37.582  1.00  0.00     0.072 A 
HETATM   19  C16 UNK     1      19.847  -7.204  38.284  1.00  0.00     0.118 A 
HETATM   20  F1  UNK     1      19.654  -7.233  39.610  1.00  0.00    -0.206 F 
HETATM   21  C17 UNK     1      20.205  -8.370  37.607  1.00  0.00     0.043 A 
HETATM   22  C12 UNK     1      20.404  -8.340  36.227  1.00  0.00     0.012 A 
HETATM   23  C6  UNK     1      20.247  -7.146  35.524  1.00  0.00    -0.035 A 
HETATM   24  C13 UNK     1      20.467  -7.144  34.046  1.00  0.00     0.050 C 
ENDBRANCH  15  17
ENDBRANCH   5  13
TORSDOF 2
ENDMDL
MODEL 5
REMARK VINA RESULT:      -8.4     17.389     19.324
REMARK  2 active torsions:
REMARK  status: ('A' for Active; 'I' for Inactive)
REMARK    1  A    between atoms: C3_9  and  N1_6 
REMARK       I    between atoms: C7_13  and  N1_6 
REMARK    2  A    between atoms: C2_8  and  C7_13 
ROOT
HETATM    1 Cl1  UNK     1      18.084  -0.382  38.002  1.00  0.00    -0.084 Cl
HETATM    2  O1  UNK     1      18.276   1.312  32.355  1.00  0.00    -0.274 OA
HETATM    3  O3  UNK     1      18.359   2.967  30.783  1.00  0.00    -0.259 OA
HETATM    4  C1  UNK     1      18.228   1.900  34.715  1.00  0.00     0.001 A 
HETATM    5  C2  UNK     1      18.316   3.657  33.049  1.00  0.00     0.108 A 
HETATM    6  C4  UNK     1      18.231   0.935  33.712  1.00  0.00     0.089 A 
HETATM    7  C5  UNK     1      18.273   3.304  34.339  1.00  0.00     0.037 A 
HETATM    8  C8  UNK     1      18.183   1.486  36.048  1.00  0.00     0.038 A 
HETATM    9  C9  UNK     1      18.320   2.648  31.966  1.00  0.00     0.304 A 
HETATM   10  C11 UNK     1      18.190  -0.427  34.004  1.00  0.00     0.040 A 
HETATM   11  C14 UNK     1      18.142   0.123  36.357  1.00  0.00     0.035 A 
HETATM   12  C15 UNK     1      18.146  -0.831  35.337  1.00  0.00     0.026 A 
ENDROOT
BRANCH   5  13
HETATM   13  C7  UNK     1      18.358   5.099  32.771  1.00  0.00     0.262 C 
HETATM   14  O2  UNK     1      18.285   5.498  31.610  1.00  0.00    -0.267 OA
HETATM   15  N1  UNK     1      18.483   5.851  33.930  1.00  0.00    -0.322 N 
HETATM   16  H2  UNK     1      18.508   5.352  34.814  1.00  0.00     0.169 HD
BRANCH  15  17
HETATM   17  C3  UNK     1      18.556   7.262  34.039  1.00  0.00     0.043 A 
HETATM   18  C10 UNK     1      19.802   7.849  34.191  1.00  0.00     0.072 A 
HETATM   19  C16 UNK     1      19.893   9.237  34.300  1.00  0.00     0.118 A 
HETATM   20  F1  UNK     1      21.091   9.820  34.447  1.00  0.00    -0.206 F 
HETATM   21  C17 UNK     1      18.739  10.018  34.254  1.00  0.00     0.043 A 
HETATM   22  C12 UNK     1      17.493   9.412  34.100  1.00  0.00     0.012 A 
HETATM   23  C6  UNK     1      17.400   8.024  33.991  1.00  0.00    -0.035 A 
HETATM   24  C13 UNK     1      16.052   7.401  33.826  1.00  0.00     0.050 C 
ENDBRANCH  15  17
ENDBRANCH   5  13
TORSDOF 2
ENDMDL
MODEL 6
REMARK VINA RESULT:      -8.4     19.487     21.177
REMARK  2 active torsions:
REMARK  status: ('A' for Active; 'I' for Inactive)
REMARK    1  A    between atoms: C3_9  and  N1_6 
REMARK       I    between atoms: C7_13  and  N1_6 
REMARK    2  A    between atoms: C2_8  and  C7_13 
ROOT
HETATM    1 Cl1  UNK     1      23.498 -11.138  36.006  1.00  0.00    -0.084 Cl
HETATM    2  O1  UNK     1      18.555  -8.071  36.981  1.00  0.00    -0.274 OA
HETATM    3  O3  UNK     1      17.491  -6.077  37.315  1.00  0.00    -0.259 OA
HETATM    4  C1  UNK     1      20.963  -8.104  36.642  1.00  0.00     0.001 A 
HETATM    5  C2  UNK     1      19.838  -5.989  36.995  1.00  0.00     0.108 A 
HETATM    6  C4  UNK     1      19.751  -8.779  36.748  1.00  0.00     0.089 A 
HETATM    7  C5  UNK     1      20.976  -6.656  36.775  1.00  0.00     0.037 A 
HETATM    8  C8  UNK     1      22.127  -8.841  36.410  1.00  0.00     0.038 A 
HETATM    9  C9  UNK     1      18.536  -6.685  37.112  1.00  0.00     0.304 A 
HETATM   10  C11 UNK     1      19.670 -10.165  36.630  1.00  0.00     0.040 A 
HETATM   11  C14 UNK     1      22.061 -10.233  36.289  1.00  0.00     0.035 A 
HETATM   12  C15 UNK     1      20.835 -10.892  36.398  1.00  0.00     0.026 A 
ENDROOT
BRANCH   5  13
HETATM   13  C7  UNK     1      19.953  -4.529  37.116  1.00  0.00     0.262 C 
HETATM   14  O2  UNK     1      20.865  -4.043  37.782  1.00  0.00    -0.267 OA
HETATM   15  N1  UNK     1      18.954  -3.866  36.417  1.00  0.00    -0.322 N 
HETATM   16  H2  UNK     1      18.289  -4.431  35.898  1.00  0.00     0.169 HD
BRANCH  15  17
HETATM   17  C3  UNK     1      18.756  -2.467  36.314  1.00  0.00     0.043 A 
HETATM   18  C10 UNK     1      17.978  -1.838  37.272  1.00  0.00     0.072 A 
HETATM   19  C16 UNK     1      17.772  -0.460  37.186  1.00  0.00     0.118 A 
HETATM   20  F1  UNK     1      17.023   0.164  38.106  1.00  0.00    -0.206 F 
HETATM   21  C17 UNK     1      18.348   0.268  36.145  1.00  0.00     0.043 A 
HETATM   22  C12 UNK     1      19.129  -0.381  35.189  1.00  0.00     0.012 A 
HETATM   23  C6  UNK     1      19.334  -1.758  35.274  1.00  0.00    -0.035 A 
HETATM   24  C13 UNK     1      20.177  -2.427  34.236  1.00  0.00     0.050 C 
ENDBRANCH  15  17
ENDBRANCH   5  13
TORSDOF 2
ENDMDL
MODEL 7
REMARK VINA RESULT:      -8.4     13.119     15.398
REMARK  2 active torsions:
REMARK  status: ('A' for Active; 'I' for Inactive)
REMARK    1  A    between atoms: C3_9  and  N1_6 
REMARK       I    between atoms: C7_13  and  N1_6 
REMARK    2  A    between atoms: C2_8  and  C7_13 
ROOT
HETATM    1 Cl1  UNK     1      16.860  13.210   7.002  1.00  0.00    -0.084 Cl
HETATM    2  O1  UNK     1      16.312   8.361  10.315  1.00  0.00    -0.274 OA
HETATM    3  O3  UNK     1      15.068   6.591  11.050  1.00  0.00    -0.259 OA
HETATM    4  C1  UNK     1      15.346   9.928   8.726  1.00  0.00     0.001 A 
HETATM    5  C2  UNK     1      14.025   8.052   9.503  1.00  0.00     0.108 A 
HETATM    6  C4  UNK     1      16.416   9.515   9.513  1.00  0.00     0.089 A 
HETATM    7  C5  UNK     1      14.119   9.148   8.742  1.00  0.00     0.037 A 
HETATM    8  C8  UNK     1      15.488  11.077   7.945  1.00  0.00     0.038 A 
HETATM    9  C9  UNK     1      15.150   7.594  10.350  1.00  0.00     0.304 A 
HETATM   10  C11 UNK     1      17.619  10.217   9.543  1.00  0.00     0.040 A 
HETATM   11  C14 UNK     1      16.690  11.792   7.964  1.00  0.00     0.035 A 
HETATM   12  C15 UNK     1      17.752  11.363   8.761  1.00  0.00     0.026 A 
ENDROOT
BRANCH   5  13
HETATM   13  C7  UNK     1      12.746   7.333   9.452  1.00  0.00     0.262 C 
HETATM   14  O2  UNK     1      12.523   6.427  10.255  1.00  0.00    -0.267 OA
HETATM   15  N1  UNK     1      11.919   7.806   8.443  1.00  0.00    -0.322 N 
HETATM   16  H2  UNK     1      12.259   8.582   7.884  1.00  0.00     0.169 HD
BRANCH  15  17
HETATM   17  C3  UNK     1      10.622   7.349   8.105  1.00  0.00     0.043 A 
HETATM   18  C10 UNK     1       9.563   7.699   8.928  1.00  0.00     0.072 A 
HETATM   19  C16 UNK     1       8.278   7.257   8.610  1.00  0.00     0.118 A 
HETATM   20  F1  UNK     1       7.244   7.587   9.396  1.00  0.00    -0.206 F 
HETATM   21  C17 UNK     1       8.069   6.474   7.475  1.00  0.00     0.043 A 
HETATM   22  C12 UNK     1       9.146   6.133   6.657  1.00  0.00     0.012 A 
HETATM   23  C6  UNK     1      10.431   6.572   6.973  1.00  0.00    -0.035 A 
HETATM   24  C13 UNK     1      11.566   6.192   6.078  1.00  0.00     0.050 C 
ENDBRANCH  15  17
ENDBRANCH   5  13
TORSDOF 2
ENDMDL
MODEL 8
REMARK VINA RESULT:      -8.4     23.235     24.927
REMARK  2 active torsions:
REMARK  status: ('A' for Active; 'I' for Inactive)
REMARK    1  A    between atoms: C3_9  and  N1_6 
REMARK       I    between atoms: C7_13  and  N1_6 
REMARK    2  A    between atoms: C2_8  and  C7_13 
ROOT
HETATM    1 Cl1  UNK     1      33.018  -6.714  38.045  1.00  0.00    -0.084 Cl
HETATM    2  O1  UNK     1      27.475  -4.807  38.706  1.00  0.00    -0.274 OA
HETATM    3  O3  UNK     1      25.242  -5.237  38.923  1.00  0.00    -0.259 OA
HETATM    4  C1  UNK     1      29.036  -6.657  38.466  1.00  0.00     0.001 A 
HETATM    5  C2  UNK     1      26.669  -7.116  38.697  1.00  0.00     0.108 A 
HETATM    6  C4  UNK     1      28.790  -5.290  38.549  1.00  0.00     0.089 A 
HETATM    7  C5  UNK     1      27.915  -7.580  38.547  1.00  0.00     0.037 A 
HETATM    8  C8  UNK     1      30.353  -7.096  38.311  1.00  0.00     0.038 A 
HETATM    9  C9  UNK     1      26.383  -5.666  38.787  1.00  0.00     0.304 A 
HETATM   10  C11 UNK     1      29.819  -4.354  38.479  1.00  0.00     0.040 A 
HETATM   11  C14 UNK     1      31.396  -6.168  38.239  1.00  0.00     0.035 A 
HETATM   12  C15 UNK     1      31.130  -4.800  38.323  1.00  0.00     0.026 A 
ENDROOT
BRANCH   5  13
HETATM   13  C7  UNK     1      25.604  -8.126  38.767  1.00  0.00     0.262 C 
HETATM   14  O2  UNK     1      25.764  -9.134  39.453  1.00  0.00    -0.267 OA
HETATM   15  N1  UNK     1      24.501  -7.776  38.001  1.00  0.00    -0.322 N 
HETATM   16  H2  UNK     1      24.531  -6.887  37.512  1.00  0.00     0.169 HD
BRANCH  15  17
HETATM   17  C3  UNK     1      23.300  -8.508  37.834  1.00  0.00     0.043 A 
HETATM   18  C10 UNK     1      23.204  -9.385  36.766  1.00  0.00     0.072 A 
HETATM   19  C16 UNK     1      22.029 -10.114  36.585  1.00  0.00     0.118 A 
HETATM   20  F1  UNK     1      21.920 -10.967  35.557  1.00  0.00    -0.206 F 
HETATM   21  C17 UNK     1      20.966  -9.958  37.475  1.00  0.00     0.043 A 
HETATM   22  C12 UNK     1      21.079  -9.072  38.546  1.00  0.00     0.012 A 
HETATM   23  C6  UNK     1      22.254  -8.341  38.727  1.00  0.00    -0.035 A 
HETATM   24  C13 UNK     1      22.347  -7.400  39.884  1.00  0.00     0.050 C 
ENDBRANCH  15  17
ENDBRANCH   5  13
TORSDOF 2
ENDMDL
MODEL 9
REMARK VINA RESULT:      -8.3     19.034     21.376
REMARK  2 active torsions:
REMARK  status: ('A' for Active; 'I' for Inactive)
REMARK    1  A    between atoms: C3_9  and  N1_6 
REMARK       I    between atoms: C7_13  and  N1_6 
REMARK    2  A    between atoms: C2_8  and  C7_13 
ROOT
HETATM    1 Cl1  UNK     1      19.305 -10.976  40.234  1.00  0.00    -0.084 Cl
HETATM    2  O1  UNK     1      20.143  -7.627  35.452  1.00  0.00    -0.274 OA
HETATM    3  O3  UNK     1      20.364  -5.568  34.486  1.00  0.00    -0.259 OA
HETATM    4  C1  UNK     1      19.780  -7.794  37.851  1.00  0.00     0.001 A 
HETATM    5  C2  UNK     1      20.015  -5.610  36.829  1.00  0.00     0.108 A 
HETATM    6  C4  UNK     1      19.942  -8.403  36.610  1.00  0.00     0.089 A 
HETATM    7  C5  UNK     1      19.823  -6.343  37.933  1.00  0.00     0.037 A 
HETATM    8  C8  UNK     1      19.583  -8.597  38.976  1.00  0.00     0.038 A 
HETATM    9  C9  UNK     1      20.189  -6.236  35.499  1.00  0.00     0.304 A 
HETATM   10  C11 UNK     1      19.911  -9.788  36.464  1.00  0.00     0.040 A 
HETATM   11  C14 UNK     1      19.550  -9.989  38.845  1.00  0.00     0.035 A 
HETATM   12  C15 UNK     1      19.714 -10.583  37.592  1.00  0.00     0.026 A 
ENDROOT
BRANCH   5  13
HETATM   13  C7  UNK     1      20.042  -4.153  37.014  1.00  0.00     0.262 C 
HETATM   14  O2  UNK     1      20.911  -3.644  37.720  1.00  0.00    -0.267 OA
HETATM   15  N1  UNK     1      19.019  -3.519  36.322  1.00  0.00    -0.322 N 
HETATM   16  H2  UNK     1      18.399  -4.099  35.765  1.00  0.00     0.169 HD
BRANCH  15  17
HETATM   17  C3  UNK     1      18.741  -2.131  36.273  1.00  0.00     0.043 A 
HETATM   18  C10 UNK     1      18.179  -1.531  37.388  1.00  0.00     0.072 A 
HETATM   19  C16 UNK     1      17.898  -0.164  37.358  1.00  0.00     0.118 A 
HETATM   20  F1  UNK     1      17.354   0.432  38.428  1.00  0.00    -0.206 F 
HETATM   21  C17 UNK     1      18.185   0.583  36.215  1.00  0.00     0.043 A 
HETATM   22  C12 UNK     1      18.752  -0.037  35.102  1.00  0.00     0.012 A 
HETATM   23  C6  UNK     1      19.032  -1.403  35.131  1.00  0.00    -0.035 A 
HETATM   24  C13 UNK     1      19.641  -2.041  33.924  1.00  0.00     0.050 C 
ENDBRANCH  15  17
ENDBRANCH   5  13
TORSDOF 2
ENDMDL
MODEL 10
REMARK VINA RESULT:      -8.2     16.932     19.489
REMARK  2 active torsions:
REMARK  status: ('A' for Active; 'I' for Inactive)
REMARK    1  A    between atoms: C3_9  and  N1_6 
REMARK       I    between atoms: C7_13  and  N1_6 
REMARK    2  A    between atoms: C2_8  and  C7_13 
ROOT
HETATM    1 Cl1  UNK     1      18.285   8.520  34.402  1.00  0.00    -0.084 Cl
HETATM    2  O1  UNK     1      18.318   3.768  30.909  1.00  0.00    -0.274 OA
HETATM    3  O3  UNK     1      18.330   1.498  30.647  1.00  0.00    -0.259 OA
HETATM    4  C1  UNK     1      18.308   4.718  33.147  1.00  0.00     0.001 A 
HETATM    5  C2  UNK     1      18.319   2.311  32.873  1.00  0.00     0.108 A 
HETATM    6  C4  UNK     1      18.310   4.886  31.766  1.00  0.00     0.089 A 
HETATM    7  C5  UNK     1      18.312   3.369  33.692  1.00  0.00     0.037 A 
HETATM    8  C8  UNK     1      18.299   5.850  33.964  1.00  0.00     0.038 A 
HETATM    9  C9  UNK     1      18.322   2.465  31.400  1.00  0.00     0.304 A 
HETATM   10  C11 UNK     1      18.305   6.150  31.181  1.00  0.00     0.040 A 
HETATM   11  C14 UNK     1      18.294   7.126  33.392  1.00  0.00     0.035 A 
HETATM   12  C15 UNK     1      18.296   7.275  32.003  1.00  0.00     0.026 A 
ENDROOT
BRANCH   5  13
HETATM   13  C7  UNK     1      18.324   0.991  33.517  1.00  0.00     0.262 C 
HETATM   14  O2  UNK     1      18.156  -0.020  32.837  1.00  0.00    -0.267 OA
HETATM   15  N1  UNK     1      18.531   1.078  34.887  1.00  0.00    -0.322 N 
HETATM   16  H2  UNK     1      18.676   2.002  35.282  1.00  0.00     0.169 HD
BRANCH  15  17
HETATM   17  C3  UNK     1      18.595   0.014  35.819  1.00  0.00     0.043 A 
HETATM   18  C10 UNK     1      19.381  -1.086  35.514  1.00  0.00     0.072 A 
HETATM   19  C16 UNK     1      19.455  -2.144  36.421  1.00  0.00     0.118 A 
HETATM   20  F1  UNK     1      20.211  -3.214  36.140  1.00  0.00    -0.206 F 
HETATM   21  C17 UNK     1      18.744  -2.087  37.619  1.00  0.00     0.043 A 
HETATM   22  C12 UNK     1      17.958  -0.973  37.911  1.00  0.00     0.012 A 
HETATM   23  C6  UNK     1      17.882   0.085  37.005  1.00  0.00    -0.035 A 
HETATM   24  C13 UNK     1      17.033   1.267  37.345  1.00  0.00     0.050 C 
ENDBRANCH  15  17
ENDBRANCH   5  13
TORSDOF 2
ENDMDL
