MODEL 1
REMARK VINA RESULT:     -10.9      0.000      0.000
REMARK  8 active torsions:
REMARK  status: ('A' for Active; 'I' for Inactive)
REMARK    1  A    between atoms: C1_5  and  N1_3 
REMARK       I    between atoms: C10_14  and  N1_3 
REMARK       I    between atoms: C11_15  and  N2_4 
REMARK    2  A    between atoms: C2_6  and  N2_4 
REMARK    3  A    between atoms: C10_14  and  C3_7 
REMARK    4  A    between atoms: C11_15  and  C3_7 
REMARK    5  A    between atoms: C16_20  and  C4_8 
REMARK    6  A    between atoms: C17_21  and  C5_9 
REMARK    7  A    between atoms: C18_22  and  C20_24 
REMARK    8  A    between atoms: C19_23  and  C21_25 
ROOT
HETATM    1  C3  UNK     1      19.378   0.942  29.271  1.00  0.00     0.206 C 
ENDROOT
BRANCH   1   2
HETATM    2  C10 UNK     1      20.037   0.092  30.344  1.00  0.00     0.231 C 
HETATM    3  O1  UNK     1      21.226  -0.205  30.278  1.00  0.00    -0.273 OA
HETATM    4  N1  UNK     1      19.123  -0.292  31.319  1.00  0.00    -0.327 N 
HETATM    5  H7  UNK     1      18.159   0.018  31.211  1.00  0.00     0.169 HD
BRANCH   4   6
HETATM    6  C1  UNK     1      19.368  -1.082  32.466  1.00  0.00     0.034 A 
HETATM    7  C6  UNK     1      18.668  -0.834  33.647  1.00  0.00     0.030 A 
HETATM    8  C12 UNK     1      18.909  -1.613  34.779  1.00  0.00     0.013 A 
HETATM    9  C4  UNK     1      19.851  -2.640  34.729  1.00  0.00    -0.036 A 
HETATM   10  C14 UNK     1      20.552  -2.889  33.548  1.00  0.00     0.013 A 
HETATM   11  C8  UNK     1      20.310  -2.110  32.417  1.00  0.00     0.030 A 
BRANCH   9  12
HETATM   12  C16 UNK     1      20.103  -3.453  35.909  1.00  0.00     0.012 C 
HETATM   13  C18 UNK     1      19.970  -4.799  35.973  1.00  0.00     0.012 C 
BRANCH  13  14
HETATM   14  C20 UNK     1      20.244  -5.623  37.164  1.00  0.00    -0.036 A 
HETATM   15  C22 UNK     1      19.299  -6.551  37.603  1.00  0.00     0.011 A 
HETATM   16  C26 UNK     1      19.558  -7.331  38.729  1.00  0.00     0.001 A 
HETATM   17  C30 UNK     1      20.762  -7.184  39.417  1.00  0.00     0.000 A 
HETATM   18  C28 UNK     1      21.708  -6.257  38.978  1.00  0.00     0.001 A 
HETATM   19  C24 UNK     1      21.448  -5.476  37.851  1.00  0.00     0.011 A 
ENDBRANCH  13  14
ENDBRANCH   9  12
ENDBRANCH   4   6
ENDBRANCH   1   2
BRANCH   1  20
HETATM   20  C11 UNK     1      18.516   2.073  29.804  1.00  0.00     0.231 C 
HETATM   21  O2  UNK     1      17.291   2.018  29.742  1.00  0.00    -0.273 OA
HETATM   22  N2  UNK     1      19.291   3.113  30.306  1.00  0.00    -0.327 N 
HETATM   23  H8  UNK     1      20.302   3.012  30.259  1.00  0.00     0.169 HD
BRANCH  22  24
HETATM   24  C2  UNK     1      18.838   4.325  30.880  1.00  0.00     0.034 A 
HETATM   25  C7  UNK     1      18.968   5.522  30.174  1.00  0.00     0.030 A 
HETATM   26  C13 UNK     1      18.523   6.716  30.741  1.00  0.00     0.013 A 
HETATM   27  C5  UNK     1      17.948   6.715  32.011  1.00  0.00    -0.036 A 
HETATM   28  C15 UNK     1      17.818   5.518  32.716  1.00  0.00     0.013 A 
HETATM   29  C9  UNK     1      18.263   4.323  32.150  1.00  0.00     0.030 A 
BRANCH  27  30
HETATM   30  C17 UNK     1      17.483   7.960  32.600  1.00  0.00     0.012 C 
HETATM   31  C19 UNK     1      16.370   8.097  33.359  1.00  0.00     0.012 C 
BRANCH  31  32
HETATM   32  C21 UNK     1      15.909   9.355  33.973  1.00  0.00    -0.036 A 
HETATM   33  C23 UNK     1      16.784  10.436  34.088  1.00  0.00     0.011 A 
HETATM   34  C27 UNK     1      16.348  11.626  34.670  1.00  0.00     0.001 A 
HETATM   35  C31 UNK     1      15.037  11.737  35.135  1.00  0.00     0.000 A 
HETATM   36  C29 UNK     1      14.163  10.656  35.019  1.00  0.00     0.001 A 
HETATM   37  C25 UNK     1      14.599   9.465  34.438  1.00  0.00     0.011 A 
ENDBRANCH  31  32
ENDBRANCH  27  30
ENDBRANCH  22  24
ENDBRANCH   1  20
TORSDOF 8
ENDMDL
MODEL 2
REMARK VINA RESULT:     -10.9      0.042     12.497
REMARK  8 active torsions:
REMARK  status: ('A' for Active; 'I' for Inactive)
REMARK    1  A    between atoms: C1_5  and  N1_3 
REMARK       I    between atoms: C10_14  and  N1_3 
REMARK       I    between atoms: C11_15  and  N2_4 
REMARK    2  A    between atoms: C2_6  and  N2_4 
REMARK    3  A    between atoms: C10_14  and  C3_7 
REMARK    4  A    between atoms: C11_15  and  C3_7 
REMARK    5  A    between atoms: C16_20  and  C4_8 
REMARK    6  A    between atoms: C17_21  and  C5_9 
REMARK    7  A    between atoms: C18_22  and  C20_24 
REMARK    8  A    between atoms: C19_23  and  C21_25 
ROOT
HETATM    1  C3  UNK     1      19.379   0.950  29.281  1.00  0.00     0.206 C 
ENDROOT
BRANCH   1   2
HETATM    2  C10 UNK     1      18.514   2.079  29.816  1.00  0.00     0.231 C 
HETATM    3  O1  UNK     1      17.290   2.025  29.755  1.00  0.00    -0.273 OA
HETATM    4  N1  UNK     1      19.290   3.119  30.316  1.00  0.00    -0.327 N 
HETATM    5  H7  UNK     1      20.302   3.019  30.266  1.00  0.00     0.169 HD
BRANCH   4   6
HETATM    6  C1  UNK     1      18.840   4.330  30.893  1.00  0.00     0.034 A 
HETATM    7  C6  UNK     1      18.261   4.324  32.162  1.00  0.00     0.030 A 
HETATM    8  C12 UNK     1      17.816   5.518  32.731  1.00  0.00     0.013 A 
HETATM    9  C4  UNK     1      17.952   6.717  32.031  1.00  0.00    -0.036 A 
HETATM   10  C14 UNK     1      18.532   6.722  30.762  1.00  0.00     0.013 A 
HETATM   11  C8  UNK     1      18.976   5.529  30.193  1.00  0.00     0.030 A 
BRANCH   9  12
HETATM   12  C16 UNK     1      17.489   7.961  32.625  1.00  0.00     0.012 C 
HETATM   13  C18 UNK     1      16.376   8.097  33.385  1.00  0.00     0.012 C 
BRANCH  13  14
HETATM   14  C20 UNK     1      15.918   9.355  34.001  1.00  0.00    -0.036 A 
HETATM   15  C22 UNK     1      14.614   9.460  34.486  1.00  0.00     0.011 A 
HETATM   16  C26 UNK     1      14.180  10.650  35.068  1.00  0.00     0.001 A 
HETATM   17  C30 UNK     1      15.049  11.736  35.167  1.00  0.00     0.000 A 
HETATM   18  C28 UNK     1      16.354  11.631  34.684  1.00  0.00     0.001 A 
HETATM   19  C24 UNK     1      16.788  10.440  34.100  1.00  0.00     0.011 A 
ENDBRANCH  13  14
ENDBRANCH   9  12
ENDBRANCH   4   6
ENDBRANCH   1   2
BRANCH   1  20
HETATM   20  C11 UNK     1      20.040   0.100  30.352  1.00  0.00     0.231 C 
HETATM   21  O2  UNK     1      21.232  -0.186  30.287  1.00  0.00    -0.273 OA
HETATM   22  N2  UNK     1      19.128  -0.295  31.325  1.00  0.00    -0.327 N 
HETATM   23  H8  UNK     1      18.163   0.009  31.217  1.00  0.00     0.169 HD
BRANCH  22  24
HETATM   24  C2  UNK     1      19.380  -1.090  32.468  1.00  0.00     0.034 A 
HETATM   25  C7  UNK     1      20.335  -2.106  32.414  1.00  0.00     0.030 A 
HETATM   26  C13 UNK     1      20.583  -2.890  33.541  1.00  0.00     0.013 A 
HETATM   27  C5  UNK     1      19.876  -2.659  34.721  1.00  0.00    -0.036 A 
HETATM   28  C15 UNK     1      18.921  -1.644  34.775  1.00  0.00     0.013 A 
HETATM   29  C9  UNK     1      18.673  -0.859  33.648  1.00  0.00     0.030 A 
BRANCH  27  30
HETATM   30  C17 UNK     1      20.135  -3.477  35.895  1.00  0.00     0.012 C 
HETATM   31  C19 UNK     1      19.897  -4.807  35.988  1.00  0.00     0.012 C 
BRANCH  31  32
HETATM   32  C21 UNK     1      20.177  -5.640  37.171  1.00  0.00    -0.036 A 
HETATM   33  C23 UNK     1      21.363  -5.461  37.884  1.00  0.00     0.011 A 
HETATM   34  C27 UNK     1      21.629  -6.250  39.003  1.00  0.00     0.001 A 
HETATM   35  C31 UNK     1      20.709  -7.217  39.410  1.00  0.00     0.000 A 
HETATM   36  C29 UNK     1      19.524  -7.395  38.696  1.00  0.00     0.001 A 
HETATM   37  C25 UNK     1      19.258  -6.607  37.577  1.00  0.00     0.011 A 
ENDBRANCH  31  32
ENDBRANCH  27  30
ENDBRANCH  22  24
ENDBRANCH   1  20
TORSDOF 8
ENDMDL
MODEL 3
REMARK VINA RESULT:     -10.9      0.036     12.541
REMARK  8 active torsions:
REMARK  status: ('A' for Active; 'I' for Inactive)
REMARK    1  A    between atoms: C1_5  and  N1_3 
REMARK       I    between atoms: C10_14  and  N1_3 
REMARK       I    between atoms: C11_15  and  N2_4 
REMARK    2  A    between atoms: C2_6  and  N2_4 
REMARK    3  A    between atoms: C10_14  and  C3_7 
REMARK    4  A    between atoms: C11_15  and  C3_7 
REMARK    5  A    between atoms: C16_20  and  C4_8 
REMARK    6  A    between atoms: C17_21  and  C5_9 
REMARK    7  A    between atoms: C18_22  and  C20_24 
REMARK    8  A    between atoms: C19_23  and  C21_25 
ROOT
HETATM    1  C3  UNK     1      19.366   0.938  29.274  1.00  0.00     0.206 C 
ENDROOT
BRANCH   1   2
HETATM    2  C10 UNK     1      18.507   2.072  29.808  1.00  0.00     0.231 C 
HETATM    3  O1  UNK     1      17.282   2.032  29.730  1.00  0.00    -0.273 OA
HETATM    4  N1  UNK     1      19.288   3.099  30.326  1.00  0.00    -0.327 N 
HETATM    5  H7  UNK     1      20.299   2.988  30.289  1.00  0.00     0.169 HD
BRANCH   4   6
HETATM    6  C1  UNK     1      18.844   4.310  30.908  1.00  0.00     0.034 A 
HETATM    7  C6  UNK     1      18.987   5.510  30.213  1.00  0.00     0.030 A 
HETATM    8  C12 UNK     1      18.550   6.705  30.786  1.00  0.00     0.013 A 
HETATM    9  C4  UNK     1      17.968   6.698  32.053  1.00  0.00    -0.036 A 
HETATM   10  C14 UNK     1      17.824   5.496  32.749  1.00  0.00     0.013 A 
HETATM   11  C8  UNK     1      18.262   4.302  32.176  1.00  0.00     0.030 A 
BRANCH   9  12
HETATM   12  C16 UNK     1      17.511   7.943  32.651  1.00  0.00     0.012 C 
HETATM   13  C18 UNK     1      16.350   8.104  33.328  1.00  0.00     0.012 C 
BRANCH  13  14
HETATM   14  C20 UNK     1      15.897   9.361  33.950  1.00  0.00    -0.036 A 
HETATM   15  C22 UNK     1      14.603   9.460  34.463  1.00  0.00     0.011 A 
HETATM   16  C26 UNK     1      14.175  10.649  35.050  1.00  0.00     0.001 A 
HETATM   17  C30 UNK     1      15.039  11.741  35.126  1.00  0.00     0.000 A 
HETATM   18  C28 UNK     1      16.333  11.642  34.614  1.00  0.00     0.001 A 
HETATM   19  C24 UNK     1      16.762  10.452  34.026  1.00  0.00     0.011 A 
ENDBRANCH  13  14
ENDBRANCH   9  12
ENDBRANCH   4   6
ENDBRANCH   1   2
BRANCH   1  20
HETATM   20  C11 UNK     1      20.033   0.094  30.347  1.00  0.00     0.231 C 
HETATM   21  O2  UNK     1      21.225  -0.189  30.278  1.00  0.00    -0.273 OA
HETATM   22  N2  UNK     1      19.125  -0.298  31.325  1.00  0.00    -0.327 N 
HETATM   23  H8  UNK     1      18.160   0.003  31.219  1.00  0.00     0.169 HD
BRANCH  22  24
HETATM   24  C2  UNK     1      19.383  -1.087  32.471  1.00  0.00     0.034 A 
HETATM   25  C7  UNK     1      18.697  -0.835  33.660  1.00  0.00     0.030 A 
HETATM   26  C13 UNK     1      18.952  -1.613  34.790  1.00  0.00     0.013 A 
HETATM   27  C5  UNK     1      19.892  -2.641  34.732  1.00  0.00    -0.036 A 
HETATM   28  C15 UNK     1      20.578  -2.893  33.544  1.00  0.00     0.013 A 
HETATM   29  C9  UNK     1      20.324  -2.115  32.413  1.00  0.00     0.030 A 
BRANCH  27  30
HETATM   30  C17 UNK     1      20.157  -3.450  35.910  1.00  0.00     0.012 C 
HETATM   31  C19 UNK     1      19.966  -4.788  35.997  1.00  0.00     0.012 C 
BRANCH  31  32
HETATM   32  C21 UNK     1      20.252  -5.613  37.184  1.00  0.00    -0.036 A 
HETATM   33  C23 UNK     1      19.322  -6.559  37.616  1.00  0.00     0.011 A 
HETATM   34  C27 UNK     1      19.591  -7.340  38.740  1.00  0.00     0.001 A 
HETATM   35  C31 UNK     1      20.792  -7.175  39.432  1.00  0.00     0.000 A 
HETATM   36  C29 UNK     1      21.722  -6.229  38.999  1.00  0.00     0.001 A 
HETATM   37  C25 UNK     1      21.452  -5.449  37.875  1.00  0.00     0.011 A 
ENDBRANCH  31  32
ENDBRANCH  27  30
ENDBRANCH  22  24
ENDBRANCH   1  20
TORSDOF 8
ENDMDL
MODEL 4
REMARK VINA RESULT:      -9.8      1.315     13.069
REMARK  8 active torsions:
REMARK  status: ('A' for Active; 'I' for Inactive)
REMARK    1  A    between atoms: C1_5  and  N1_3 
REMARK       I    between atoms: C10_14  and  N1_3 
REMARK       I    between atoms: C11_15  and  N2_4 
REMARK    2  A    between atoms: C2_6  and  N2_4 
REMARK    3  A    between atoms: C10_14  and  C3_7 
REMARK    4  A    between atoms: C11_15  and  C3_7 
REMARK    5  A    between atoms: C16_20  and  C4_8 
REMARK    6  A    between atoms: C17_21  and  C5_9 
REMARK    7  A    between atoms: C18_22  and  C20_24 
REMARK    8  A    between atoms: C19_23  and  C21_25 
ROOT
HETATM    1  C3  UNK     1      18.327   1.406  30.623  1.00  0.00     0.206 C 
ENDROOT
BRANCH   1   2
HETATM    2  C10 UNK     1      18.554   2.903  30.743  1.00  0.00     0.231 C 
HETATM    3  O1  UNK     1      19.161   3.525  29.876  1.00  0.00    -0.273 OA
HETATM    4  N1  UNK     1      18.030   3.402  31.930  1.00  0.00    -0.327 N 
HETATM    5  H7  UNK     1      17.578   2.743  32.561  1.00  0.00     0.169 HD
BRANCH   4   6
HETATM    6  C1  UNK     1      18.051   4.741  32.386  1.00  0.00     0.034 A 
HETATM    7  C6  UNK     1      18.947   5.124  33.383  1.00  0.00     0.030 A 
HETATM    8  C12 UNK     1      18.968   6.445  33.833  1.00  0.00     0.013 A 
HETATM    9  C4  UNK     1      18.093   7.382  33.284  1.00  0.00    -0.036 A 
HETATM   10  C14 UNK     1      17.196   6.999  32.286  1.00  0.00     0.013 A 
HETATM   11  C8  UNK     1      17.175   5.679  31.837  1.00  0.00     0.030 A 
BRANCH   9  12
HETATM   12  C16 UNK     1      18.114   8.759  33.753  1.00  0.00     0.012 C 
HETATM   13  C18 UNK     1      17.040   9.583  33.804  1.00  0.00     0.012 C 
BRANCH  13  14
HETATM   14  C20 UNK     1      17.059  10.972  34.297  1.00  0.00    -0.036 A 
HETATM   15  C22 UNK     1      18.219  11.738  34.181  1.00  0.00     0.011 A 
HETATM   16  C26 UNK     1      18.236  13.052  34.647  1.00  0.00     0.001 A 
HETATM   17  C30 UNK     1      17.094  13.601  35.229  1.00  0.00     0.000 A 
HETATM   18  C28 UNK     1      15.933  12.835  35.344  1.00  0.00     0.001 A 
HETATM   19  C24 UNK     1      15.916  11.520  34.879  1.00  0.00     0.011 A 
ENDBRANCH  13  14
ENDBRANCH   9  12
ENDBRANCH   4   6
ENDBRANCH   1   2
BRANCH   1  20
HETATM   20  C11 UNK     1      19.209   0.560  31.526  1.00  0.00     0.231 C 
HETATM   21  O2  UNK     1      20.413   0.452  31.313  1.00  0.00    -0.273 OA
HETATM   22  N2  UNK     1      18.471  -0.048  32.535  1.00  0.00    -0.327 N 
HETATM   23  H8  UNK     1      17.469   0.125  32.556  1.00  0.00     0.169 HD
BRANCH  22  24
HETATM   24  C2  UNK     1      18.950  -0.903  33.556  1.00  0.00     0.034 A 
HETATM   25  C7  UNK     1      19.836  -1.935  33.241  1.00  0.00     0.030 A 
HETATM   26  C13 UNK     1      20.308  -2.779  34.247  1.00  0.00     0.013 A 
HETATM   27  C5  UNK     1      19.894  -2.592  35.566  1.00  0.00    -0.036 A 
HETATM   28  C15 UNK     1      19.009  -1.560  35.880  1.00  0.00     0.013 A 
HETATM   29  C9  UNK     1      18.537  -0.716  34.874  1.00  0.00     0.030 A 
BRANCH  27  30
HETATM   30  C17 UNK     1      20.387  -3.471  36.613  1.00  0.00     0.012 C 
HETATM   31  C19 UNK     1      20.125  -4.797  36.708  1.00  0.00     0.012 C 
BRANCH  31  32
HETATM   32  C21 UNK     1      20.640  -5.693  37.758  1.00  0.00    -0.036 A 
HETATM   33  C23 UNK     1      21.973  -5.601  38.161  1.00  0.00     0.011 A 
HETATM   34  C27 UNK     1      22.461  -6.449  39.155  1.00  0.00     0.001 A 
HETATM   35  C31 UNK     1      21.616  -7.390  39.746  1.00  0.00     0.000 A 
HETATM   36  C29 UNK     1      20.284  -7.481  39.343  1.00  0.00     0.001 A 
HETATM   37  C25 UNK     1      19.796  -6.632  38.349  1.00  0.00     0.011 A 
ENDBRANCH  31  32
ENDBRANCH  27  30
ENDBRANCH  22  24
ENDBRANCH   1  20
TORSDOF 8
ENDMDL
MODEL 5
REMARK VINA RESULT:      -9.4      1.292      1.980
REMARK  8 active torsions:
REMARK  status: ('A' for Active; 'I' for Inactive)
REMARK    1  A    between atoms: C1_5  and  N1_3 
REMARK       I    between atoms: C10_14  and  N1_3 
REMARK       I    between atoms: C11_15  and  N2_4 
REMARK    2  A    between atoms: C2_6  and  N2_4 
REMARK    3  A    between atoms: C10_14  and  C3_7 
REMARK    4  A    between atoms: C11_15  and  C3_7 
REMARK    5  A    between atoms: C16_20  and  C4_8 
REMARK    6  A    between atoms: C17_21  and  C5_9 
REMARK    7  A    between atoms: C18_22  and  C20_24 
REMARK    8  A    between atoms: C19_23  and  C21_25 
ROOT
HETATM    1  C3  UNK     1      18.691   1.606  30.762  1.00  0.00     0.206 C 
ENDROOT
BRANCH   1   2
HETATM    2  C10 UNK     1      19.232   0.388  31.493  1.00  0.00     0.231 C 
HETATM    3  O1  UNK     1      19.949  -0.429  30.922  1.00  0.00    -0.273 OA
HETATM    4  N1  UNK     1      18.781   0.343  32.807  1.00  0.00    -0.327 N 
HETATM    5  H7  UNK     1      18.164   1.090  33.120  1.00  0.00     0.169 HD
BRANCH   4   6
HETATM    6  C1  UNK     1      19.073  -0.636  33.785  1.00  0.00     0.034 A 
HETATM    7  C6  UNK     1      19.853  -1.744  33.451  1.00  0.00     0.030 A 
HETATM    8  C12 UNK     1      20.141  -2.710  34.416  1.00  0.00     0.013 A 
HETATM    9  C4  UNK     1      19.651  -2.568  35.714  1.00  0.00    -0.036 A 
HETATM   10  C14 UNK     1      18.871  -1.459  36.048  1.00  0.00     0.013 A 
HETATM   11  C8  UNK     1      18.583  -0.493  35.083  1.00  0.00     0.030 A 
BRANCH   9  12
HETATM   12  C16 UNK     1      19.951  -3.575  36.720  1.00  0.00     0.012 C 
HETATM   13  C18 UNK     1      19.868  -4.913  36.533  1.00  0.00     0.012 C 
BRANCH  13  14
HETATM   14  C20 UNK     1      20.191  -5.933  37.546  1.00  0.00    -0.036 A 
HETATM   15  C22 UNK     1      21.441  -5.932  38.165  1.00  0.00     0.011 A 
HETATM   16  C26 UNK     1      21.746  -6.897  39.123  1.00  0.00     0.001 A 
HETATM   17  C30 UNK     1      20.801  -7.865  39.464  1.00  0.00     0.000 A 
HETATM   18  C28 UNK     1      19.550  -7.866  38.847  1.00  0.00     0.001 A 
HETATM   19  C24 UNK     1      19.245  -6.900  37.887  1.00  0.00     0.011 A 
ENDBRANCH  13  14
ENDBRANCH   9  12
ENDBRANCH   4   6
ENDBRANCH   1   2
BRANCH   1  20
HETATM   20  C11 UNK     1      18.277   2.752  31.669  1.00  0.00     0.231 C 
HETATM   21  O2  UNK     1      17.510   2.568  32.610  1.00  0.00    -0.273 OA
HETATM   22  N2  UNK     1      18.844   3.955  31.264  1.00  0.00    -0.327 N 
HETATM   23  H8  UNK     1      19.442   3.939  30.441  1.00  0.00     0.169 HD
BRANCH  22  24
HETATM   24  C2  UNK     1      18.685   5.227  31.863  1.00  0.00     0.034 A 
HETATM   25  C7  UNK     1      17.731   6.116  31.366  1.00  0.00     0.030 A 
HETATM   26  C13 UNK     1      17.574   7.371  31.956  1.00  0.00     0.013 A 
HETATM   27  C5  UNK     1      18.370   7.736  33.041  1.00  0.00    -0.036 A 
HETATM   28  C15 UNK     1      19.323   6.846  33.538  1.00  0.00     0.013 A 
HETATM   29  C9  UNK     1      19.480   5.592  32.948  1.00  0.00     0.030 A 
BRANCH  27  30
HETATM   30  C17 UNK     1      18.205   9.043  33.655  1.00  0.00     0.012 C 
HETATM   31  C19 UNK     1      17.057   9.761  33.669  1.00  0.00     0.012 C 
BRANCH  31  32
HETATM   32  C21 UNK     1      16.883  11.077  34.308  1.00  0.00    -0.036 A 
HETATM   33  C23 UNK     1      17.861  12.061  34.153  1.00  0.00     0.011 A 
HETATM   34  C27 UNK     1      17.698  13.307  34.758  1.00  0.00     0.001 A 
HETATM   35  C31 UNK     1      16.557  13.570  35.518  1.00  0.00     0.000 A 
HETATM   36  C29 UNK     1      15.580  12.586  35.672  1.00  0.00     0.001 A 
HETATM   37  C25 UNK     1      15.744  11.340  35.067  1.00  0.00     0.011 A 
ENDBRANCH  31  32
ENDBRANCH  27  30
ENDBRANCH  22  24
ENDBRANCH   1  20
TORSDOF 8
ENDMDL
MODEL 6
REMARK VINA RESULT:      -9.3      2.312      3.181
REMARK  8 active torsions:
REMARK  status: ('A' for Active; 'I' for Inactive)
REMARK    1  A    between atoms: C1_5  and  N1_3 
REMARK       I    between atoms: C10_14  and  N1_3 
REMARK       I    between atoms: C11_15  and  N2_4 
REMARK    2  A    between atoms: C2_6  and  N2_4 
REMARK    3  A    between atoms: C10_14  and  C3_7 
REMARK    4  A    between atoms: C11_15  and  C3_7 
REMARK    5  A    between atoms: C16_20  and  C4_8 
REMARK    6  A    between atoms: C17_21  and  C5_9 
REMARK    7  A    between atoms: C18_22  and  C20_24 
REMARK    8  A    between atoms: C19_23  and  C21_25 
ROOT
HETATM    1  C3  UNK     1      18.129   1.631  32.916  1.00  0.00     0.206 C 
ENDROOT
BRANCH   1   2
HETATM    2  C10 UNK     1      17.927   0.444  33.844  1.00  0.00     0.231 C 
HETATM    3  O1  UNK     1      16.811   0.148  34.262  1.00  0.00    -0.273 OA
HETATM    4  N1  UNK     1      19.134  -0.177  34.143  1.00  0.00    -0.327 N 
HETATM    5  H7  UNK     1      19.980   0.213  33.734  1.00  0.00     0.169 HD
BRANCH   4   6
HETATM    6  C1  UNK     1      19.340  -1.307  34.970  1.00  0.00     0.034 A 
HETATM    7  C6  UNK     1      20.015  -2.421  34.471  1.00  0.00     0.030 A 
HETATM    8  C12 UNK     1      20.218  -3.536  35.285  1.00  0.00     0.013 A 
HETATM    9  C4  UNK     1      19.747  -3.535  36.598  1.00  0.00    -0.036 A 
HETATM   10  C14 UNK     1      19.072  -2.420  37.097  1.00  0.00     0.013 A 
HETATM   11  C8  UNK     1      18.869  -1.306  36.282  1.00  0.00     0.030 A 
BRANCH   9  12
HETATM   12  C16 UNK     1      19.959  -4.697  37.447  1.00  0.00     0.012 C 
HETATM   13  C18 UNK     1      21.127  -5.370  37.571  1.00  0.00     0.012 C 
BRANCH  13  14
HETATM   14  C20 UNK     1      21.346  -6.536  38.446  1.00  0.00    -0.036 A 
HETATM   15  C22 UNK     1      20.299  -7.421  38.706  1.00  0.00     0.011 A 
HETATM   16  C26 UNK     1      20.506  -8.523  39.534  1.00  0.00     0.001 A 
HETATM   17  C30 UNK     1      21.760  -8.742  40.103  1.00  0.00     0.000 A 
HETATM   18  C28 UNK     1      22.808  -7.859  39.842  1.00  0.00     0.001 A 
HETATM   19  C24 UNK     1      22.600  -6.755  39.014  1.00  0.00     0.011 A 
ENDBRANCH  13  14
ENDBRANCH   9  12
ENDBRANCH   4   6
ENDBRANCH   1   2
BRANCH   1  20
HETATM   20  C11 UNK     1      18.275   2.967  33.625  1.00  0.00     0.231 C 
HETATM   21  O2  UNK     1      18.527   3.022  34.826  1.00  0.00    -0.273 OA
HETATM   22  N2  UNK     1      18.061   4.031  32.757  1.00  0.00    -0.327 N 
HETATM   23  H8  UNK     1      17.835   3.812  31.790  1.00  0.00     0.169 HD
BRANCH  22  24
HETATM   24  C2  UNK     1      18.112   5.412  33.059  1.00  0.00     0.034 A 
HETATM   25  C7  UNK     1      16.958   6.191  32.960  1.00  0.00     0.030 A 
HETATM   26  C13 UNK     1      17.009   7.553  33.258  1.00  0.00     0.013 A 
HETATM   27  C5  UNK     1      18.212   8.137  33.654  1.00  0.00    -0.036 A 
HETATM   28  C15 UNK     1      19.366   7.358  33.753  1.00  0.00     0.013 A 
HETATM   29  C9  UNK     1      19.315   5.996  33.455  1.00  0.00     0.030 A 
BRANCH  27  30
HETATM   30  C17 UNK     1      18.264   9.556  33.964  1.00  0.00     0.012 C 
HETATM   31  C19 UNK     1      17.213  10.407  33.904  1.00  0.00     0.012 C 
BRANCH  31  32
HETATM   32  C21 UNK     1      17.260  11.842  34.237  1.00  0.00    -0.036 A 
HETATM   33  C23 UNK     1      16.268  12.404  35.042  1.00  0.00     0.011 A 
HETATM   34  C27 UNK     1      16.311  13.761  35.357  1.00  0.00     0.001 A 
HETATM   35  C31 UNK     1      17.348  14.558  34.868  1.00  0.00     0.000 A 
HETATM   36  C29 UNK     1      18.339  13.996  34.063  1.00  0.00     0.001 A 
HETATM   37  C25 UNK     1      18.295  12.638  33.748  1.00  0.00     0.011 A 
ENDBRANCH  31  32
ENDBRANCH  27  30
ENDBRANCH  22  24
ENDBRANCH   1  20
TORSDOF 8
ENDMDL
MODEL 7
REMARK VINA RESULT:      -9.3      7.002     15.231
REMARK  8 active torsions:
REMARK  status: ('A' for Active; 'I' for Inactive)
REMARK    1  A    between atoms: C1_5  and  N1_3 
REMARK       I    between atoms: C10_14  and  N1_3 
REMARK       I    between atoms: C11_15  and  N2_4 
REMARK    2  A    between atoms: C2_6  and  N2_4 
REMARK    3  A    between atoms: C10_14  and  C3_7 
REMARK    4  A    between atoms: C11_15  and  C3_7 
REMARK    5  A    between atoms: C16_20  and  C4_8 
REMARK    6  A    between atoms: C17_21  and  C5_9 
REMARK    7  A    between atoms: C18_22  and  C20_24 
REMARK    8  A    between atoms: C19_23  and  C21_25 
ROOT
HETATM    1  C3  UNK     1      21.464 -10.900  36.309  1.00  0.00     0.206 C 
ENDROOT
BRANCH   1   2
HETATM    2  C10 UNK     1      20.828  -9.633  36.855  1.00  0.00     0.231 C 
HETATM    3  O1  UNK     1      19.988  -9.678  37.748  1.00  0.00    -0.273 OA
HETATM    4  N1  UNK     1      21.300  -8.504  36.194  1.00  0.00    -0.327 N 
HETATM    5  H7  UNK     1      21.981  -8.642  35.451  1.00  0.00     0.169 HD
BRANCH   4   6
HETATM    6  C1  UNK     1      20.939  -7.156  36.427  1.00  0.00     0.034 A 
HETATM    7  C6  UNK     1      20.095  -6.496  35.533  1.00  0.00     0.030 A 
HETATM    8  C12 UNK     1      19.739  -5.167  35.762  1.00  0.00     0.013 A 
HETATM    9  C4  UNK     1      20.226  -4.498  36.885  1.00  0.00    -0.036 A 
HETATM   10  C14 UNK     1      21.071  -5.158  37.779  1.00  0.00     0.013 A 
HETATM   11  C8  UNK     1      21.426  -6.487  37.550  1.00  0.00     0.030 A 
BRANCH   9  12
HETATM   12  C16 UNK     1      19.855  -3.112  37.124  1.00  0.00     0.012 C 
HETATM   13  C18 UNK     1      18.998  -2.391  36.362  1.00  0.00     0.012 C 
BRANCH  13  14
HETATM   14  C20 UNK     1      18.608  -0.993  36.616  1.00  0.00    -0.036 A 
HETATM   15  C22 UNK     1      17.939  -0.657  37.793  1.00  0.00     0.011 A 
HETATM   16  C26 UNK     1      17.570   0.666  38.032  1.00  0.00     0.001 A 
HETATM   17  C30 UNK     1      17.869   1.655  37.095  1.00  0.00     0.000 A 
HETATM   18  C28 UNK     1      18.540   1.319  35.918  1.00  0.00     0.001 A 
HETATM   19  C24 UNK     1      18.908  -0.005  35.678  1.00  0.00     0.011 A 
ENDBRANCH  13  14
ENDBRANCH   9  12
ENDBRANCH   4   6
ENDBRANCH   1   2
BRANCH   1  20
HETATM   20  C11 UNK     1      22.960 -10.800  36.065  1.00  0.00     0.231 C 
HETATM   21  O2  UNK     1      23.511 -11.497  35.217  1.00  0.00    -0.273 OA
HETATM   22  N2  UNK     1      23.556  -9.880  36.921  1.00  0.00    -0.327 N 
HETATM   23  H8  UNK     1      22.957  -9.401  37.589  1.00  0.00     0.169 HD
BRANCH  22  24
HETATM   24  C2  UNK     1      24.925  -9.525  36.984  1.00  0.00     0.034 A 
HETATM   25  C7  UNK     1      25.321  -8.406  37.718  1.00  0.00     0.030 A 
HETATM   26  C13 UNK     1      26.670  -8.055  37.780  1.00  0.00     0.013 A 
HETATM   27  C5  UNK     1      27.622  -8.821  37.107  1.00  0.00    -0.036 A 
HETATM   28  C15 UNK     1      27.225  -9.939  36.373  1.00  0.00     0.013 A 
HETATM   29  C9  UNK     1      25.876 -10.291  36.311  1.00  0.00     0.030 A 
BRANCH  27  30
HETATM   30  C17 UNK     1      29.027  -8.455  37.172  1.00  0.00     0.012 C 
HETATM   31  C19 UNK     1      29.521  -7.365  37.808  1.00  0.00     0.012 C 
BRANCH  31  32
HETATM   32  C21 UNK     1      30.947  -7.003  37.891  1.00  0.00    -0.036 A 
HETATM   33  C23 UNK     1      31.317  -5.696  38.208  1.00  0.00     0.011 A 
HETATM   34  C27 UNK     1      32.667  -5.352  38.286  1.00  0.00     0.001 A 
HETATM   35  C31 UNK     1      33.647  -6.317  38.048  1.00  0.00     0.000 A 
HETATM   36  C29 UNK     1      33.276  -7.624  37.731  1.00  0.00     0.001 A 
HETATM   37  C25 UNK     1      31.927  -7.967  37.653  1.00  0.00     0.011 A 
ENDBRANCH  31  32
ENDBRANCH  27  30
ENDBRANCH  22  24
ENDBRANCH   1  20
TORSDOF 8
ENDMDL
MODEL 8
REMARK VINA RESULT:      -9.2      4.498      7.380
REMARK  8 active torsions:
REMARK  status: ('A' for Active; 'I' for Inactive)
REMARK    1  A    between atoms: C1_5  and  N1_3 
REMARK       I    between atoms: C10_14  and  N1_3 
REMARK       I    between atoms: C11_15  and  N2_4 
REMARK    2  A    between atoms: C2_6  and  N2_4 
REMARK    3  A    between atoms: C10_14  and  C3_7 
REMARK    4  A    between atoms: C11_15  and  C3_7 
REMARK    5  A    between atoms: C16_20  and  C4_8 
REMARK    6  A    between atoms: C17_21  and  C5_9 
REMARK    7  A    between atoms: C18_22  and  C20_24 
REMARK    8  A    between atoms: C19_23  and  C21_25 
ROOT
HETATM    1  C3  UNK     1      18.611  -4.326  36.614  1.00  0.00     0.206 C 
ENDROOT
BRANCH   1   2
HETATM    2  C10 UNK     1      19.884  -5.149  36.514  1.00  0.00     0.231 C 
HETATM    3  O1  UNK     1      20.326  -5.506  35.426  1.00  0.00    -0.273 OA
HETATM    4  N1  UNK     1      20.401  -5.438  37.772  1.00  0.00    -0.327 N 
HETATM    5  H7  UNK     1      19.895  -5.088  38.582  1.00  0.00     0.169 HD
BRANCH   4   6
HETATM    6  C1  UNK     1      21.568  -6.178  38.074  1.00  0.00     0.034 A 
HETATM    7  C6  UNK     1      21.690  -7.497  37.636  1.00  0.00     0.030 A 
HETATM    8  C12 UNK     1      22.841  -8.228  37.934  1.00  0.00     0.013 A 
HETATM    9  C4  UNK     1      23.869  -7.639  38.670  1.00  0.00    -0.036 A 
HETATM   10  C14 UNK     1      23.747  -6.320  39.109  1.00  0.00     0.013 A 
HETATM   11  C8  UNK     1      22.597  -5.590  38.810  1.00  0.00     0.030 A 
BRANCH   9  12
HETATM   12  C16 UNK     1      25.069  -8.401  38.981  1.00  0.00     0.012 C 
HETATM   13  C18 UNK     1      26.317  -8.102  38.550  1.00  0.00     0.012 C 
BRANCH  13  14
HETATM   14  C20 UNK     1      27.535  -8.863  38.880  1.00  0.00    -0.036 A 
HETATM   15  C22 UNK     1      28.699  -8.676  38.135  1.00  0.00     0.011 A 
HETATM   16  C26 UNK     1      29.851  -9.397  38.448  1.00  0.00     0.001 A 
HETATM   17  C30 UNK     1      29.840 -10.305  39.506  1.00  0.00     0.000 A 
HETATM   18  C28 UNK     1      28.676 -10.491  40.253  1.00  0.00     0.001 A 
HETATM   19  C24 UNK     1      27.523  -9.770  39.939  1.00  0.00     0.011 A 
ENDBRANCH  13  14
ENDBRANCH   9  12
ENDBRANCH   4   6
ENDBRANCH   1   2
BRANCH   1  20
HETATM   20  C11 UNK     1      18.838  -2.829  36.740  1.00  0.00     0.231 C 
HETATM   21  O2  UNK     1      19.459  -2.360  37.689  1.00  0.00    -0.273 OA
HETATM   22  N2  UNK     1      18.241  -2.132  35.694  1.00  0.00    -0.327 N 
HETATM   23  H8  UNK     1      17.737  -2.673  34.996  1.00  0.00     0.169 HD
BRANCH  22  24
HETATM   24  C2  UNK     1      18.242  -0.734  35.481  1.00  0.00     0.034 A 
HETATM   25  C7  UNK     1      18.291  -0.227  34.181  1.00  0.00     0.030 A 
HETATM   26  C13 UNK     1      18.292   1.152  33.971  1.00  0.00     0.013 A 
HETATM   27  C5  UNK     1      18.246   2.024  35.058  1.00  0.00    -0.036 A 
HETATM   28  C15 UNK     1      18.197   1.518  36.357  1.00  0.00     0.013 A 
HETATM   29  C9  UNK     1      18.195   0.138  36.568  1.00  0.00     0.030 A 
BRANCH  27  30
HETATM   30  C17 UNK     1      18.247   3.461  34.837  1.00  0.00     0.012 C 
HETATM   31  C19 UNK     1      18.252   4.065  33.625  1.00  0.00     0.012 C 
BRANCH  31  32
HETATM   32  C21 UNK     1      18.233   5.522  33.400  1.00  0.00    -0.036 A 
HETATM   33  C23 UNK     1      17.118   6.122  32.816  1.00  0.00     0.011 A 
HETATM   34  C27 UNK     1      17.100   7.500  32.601  1.00  0.00     0.001 A 
HETATM   35  C31 UNK     1      18.197   8.278  32.973  1.00  0.00     0.000 A 
HETATM   36  C29 UNK     1      19.312   7.677  33.558  1.00  0.00     0.001 A 
HETATM   37  C25 UNK     1      19.330   6.299  33.772  1.00  0.00     0.011 A 
ENDBRANCH  31  32
ENDBRANCH  27  30
ENDBRANCH  22  24
ENDBRANCH   1  20
TORSDOF 8
ENDMDL
MODEL 9
REMARK VINA RESULT:      -9.2      7.704     15.727
REMARK  8 active torsions:
REMARK  status: ('A' for Active; 'I' for Inactive)
REMARK    1  A    between atoms: C1_5  and  N1_3 
REMARK       I    between atoms: C10_14  and  N1_3 
REMARK       I    between atoms: C11_15  and  N2_4 
REMARK    2  A    between atoms: C2_6  and  N2_4 
REMARK    3  A    between atoms: C10_14  and  C3_7 
REMARK    4  A    between atoms: C11_15  and  C3_7 
REMARK    5  A    between atoms: C16_20  and  C4_8 
REMARK    6  A    between atoms: C17_21  and  C5_9 
REMARK    7  A    between atoms: C18_22  and  C20_24 
REMARK    8  A    between atoms: C19_23  and  C21_25 
ROOT
HETATM    1  C3  UNK     1      22.818 -11.583  36.028  1.00  0.00     0.206 C 
ENDROOT
BRANCH   1   2
HETATM    2  C10 UNK     1      22.112 -10.341  35.509  1.00  0.00     0.231 C 
HETATM    3  O1  UNK     1      21.802 -10.235  34.326  1.00  0.00    -0.273 OA
HETATM    4  N1  UNK     1      21.925  -9.405  36.519  1.00  0.00    -0.327 N 
HETATM    5  H7  UNK     1      22.269  -9.637  37.449  1.00  0.00     0.169 HD
BRANCH   4   6
HETATM    6  C1  UNK     1      21.308  -8.136  36.414  1.00  0.00     0.034 A 
HETATM    7  C6  UNK     1      20.425  -7.875  35.367  1.00  0.00     0.030 A 
HETATM    8  C12 UNK     1      19.816  -6.624  35.262  1.00  0.00     0.013 A 
HETATM    9  C4  UNK     1      20.090  -5.635  36.207  1.00  0.00    -0.036 A 
HETATM   10  C14 UNK     1      20.973  -5.896  37.256  1.00  0.00     0.013 A 
HETATM   11  C8  UNK     1      21.581  -7.147  37.359  1.00  0.00     0.030 A 
BRANCH   9  12
HETATM   12  C16 UNK     1      19.455  -4.330  36.099  1.00  0.00     0.012 C 
HETATM   13  C18 UNK     1      19.674  -3.285  36.931  1.00  0.00     0.012 C 
BRANCH  13  14
HETATM   14  C20 UNK     1      19.045  -1.957  36.809  1.00  0.00    -0.036 A 
HETATM   15  C22 UNK     1      19.240  -1.195  35.658  1.00  0.00     0.011 A 
HETATM   16  C26 UNK     1      18.645   0.061  35.544  1.00  0.00     0.001 A 
HETATM   17  C30 UNK     1      17.855   0.555  36.581  1.00  0.00     0.000 A 
HETATM   18  C28 UNK     1      17.658  -0.208  37.732  1.00  0.00     0.001 A 
HETATM   19  C24 UNK     1      18.255  -1.464  37.847  1.00  0.00     0.011 A 
ENDBRANCH  13  14
ENDBRANCH   9  12
ENDBRANCH   4   6
ENDBRANCH   1   2
BRANCH   1  20
HETATM   20  C11 UNK     1      24.335 -11.487  36.037  1.00  0.00     0.231 C 
HETATM   21  O2  UNK     1      25.028 -12.391  35.577  1.00  0.00    -0.273 OA
HETATM   22  N2  UNK     1      24.769 -10.310  36.635  1.00  0.00    -0.327 N 
HETATM   23  H8  UNK     1      24.059  -9.673  36.991  1.00  0.00     0.169 HD
BRANCH  22  24
HETATM   24  C2  UNK     1      26.104  -9.881  36.822  1.00  0.00     0.034 A 
HETATM   25  C7  UNK     1      26.980  -9.835  35.736  1.00  0.00     0.030 A 
HETATM   26  C13 UNK     1      28.297  -9.413  35.921  1.00  0.00     0.013 A 
HETATM   27  C5  UNK     1      28.738  -9.038  37.189  1.00  0.00    -0.036 A 
HETATM   28  C15 UNK     1      27.863  -9.084  38.274  1.00  0.00     0.013 A 
HETATM   29  C9  UNK     1      26.546  -9.506  38.091  1.00  0.00     0.030 A 
BRANCH  27  30
HETATM   30  C17 UNK     1      30.110  -8.598  37.380  1.00  0.00     0.012 C 
HETATM   31  C19 UNK     1      30.739  -7.657  36.636  1.00  0.00     0.012 C 
BRANCH  31  32
HETATM   32  C21 UNK     1      32.124  -7.196  36.841  1.00  0.00    -0.036 A 
HETATM   33  C23 UNK     1      33.145  -7.669  36.016  1.00  0.00     0.011 A 
HETATM   34  C27 UNK     1      34.456  -7.234  36.209  1.00  0.00     0.001 A 
HETATM   35  C31 UNK     1      34.746  -6.325  37.228  1.00  0.00     0.000 A 
HETATM   36  C29 UNK     1      33.725  -5.852  38.052  1.00  0.00     0.001 A 
HETATM   37  C25 UNK     1      32.414  -6.288  37.858  1.00  0.00     0.011 A 
ENDBRANCH  31  32
ENDBRANCH  27  30
ENDBRANCH  22  24
ENDBRANCH   1  20
TORSDOF 8
ENDMDL
MODEL 10
REMARK VINA RESULT:      -9.0     12.674     19.487
REMARK  8 active torsions:
REMARK  status: ('A' for Active; 'I' for Inactive)
REMARK    1  A    between atoms: C1_5  and  N1_3 
REMARK       I    between atoms: C10_14  and  N1_3 
REMARK       I    between atoms: C11_15  and  N2_4 
REMARK    2  A    between atoms: C2_6  and  N2_4 
REMARK    3  A    between atoms: C10_14  and  C3_7 
REMARK    4  A    between atoms: C11_15  and  C3_7 
REMARK    5  A    between atoms: C16_20  and  C4_8 
REMARK    6  A    between atoms: C17_21  and  C5_9 
REMARK    7  A    between atoms: C18_22  and  C20_24 
REMARK    8  A    between atoms: C19_23  and  C21_25 
ROOT
HETATM    1  C3  UNK     1      32.168  -5.342  38.329  1.00  0.00     0.206 C 
ENDROOT
BRANCH   1   2
HETATM    2  C10 UNK     1      30.669  -5.399  38.088  1.00  0.00     0.231 C 
HETATM    3  O1  UNK     1      30.107  -4.562  37.388  1.00  0.00    -0.273 OA
HETATM    4  N1  UNK     1      30.086  -6.458  38.773  1.00  0.00    -0.327 N 
HETATM    5  H7  UNK     1      30.693  -7.048  39.337  1.00  0.00     0.169 HD
BRANCH   4   6
HETATM    6  C1  UNK     1      28.719  -6.825  38.789  1.00  0.00     0.034 A 
HETATM    7  C6  UNK     1      28.360  -8.171  38.865  1.00  0.00     0.030 A 
HETATM    8  C12 UNK     1      27.013  -8.534  38.880  1.00  0.00     0.013 A 
HETATM    9  C4  UNK     1      26.025  -7.550  38.822  1.00  0.00    -0.036 A 
HETATM   10  C14 UNK     1      26.385  -6.204  38.746  1.00  0.00     0.013 A 
HETATM   11  C8  UNK     1      27.732  -5.842  38.731  1.00  0.00     0.030 A 
BRANCH   9  12
HETATM   12  C16 UNK     1      24.621  -7.928  38.838  1.00  0.00     0.012 C 
HETATM   13  C18 UNK     1      23.594  -7.102  39.154  1.00  0.00     0.012 C 
BRANCH  13  14
HETATM   14  C20 UNK     1      22.170  -7.480  39.152  1.00  0.00    -0.036 A 
HETATM   15  C22 UNK     1      21.188  -6.500  39.008  1.00  0.00     0.011 A 
HETATM   16  C26 UNK     1      19.840  -6.858  39.007  1.00  0.00     0.001 A 
HETATM   17  C30 UNK     1      19.474  -8.196  39.150  1.00  0.00     0.000 A 
HETATM   18  C28 UNK     1      20.456  -9.177  39.293  1.00  0.00     0.001 A 
HETATM   19  C24 UNK     1      21.804  -8.818  39.295  1.00  0.00     0.011 A 
ENDBRANCH  13  14
ENDBRANCH   9  12
ENDBRANCH   4   6
ENDBRANCH   1   2
BRANCH   1  20
HETATM   20  C11 UNK     1      32.967  -6.399  37.586  1.00  0.00     0.231 C 
HETATM   21  O2  UNK     1      32.981  -7.566  37.969  1.00  0.00    -0.273 OA
HETATM   22  N2  UNK     1      33.649  -5.856  36.503  1.00  0.00    -0.327 N 
HETATM   23  H8  UNK     1      33.549  -4.858  36.336  1.00  0.00     0.169 HD
BRANCH  22  24
HETATM   24  C2  UNK     1      34.488  -6.534  35.587  1.00  0.00     0.034 A 
HETATM   25  C7  UNK     1      35.864  -6.299  35.597  1.00  0.00     0.030 A 
HETATM   26  C13 UNK     1      36.692  -6.966  34.694  1.00  0.00     0.013 A 
HETATM   27  C5  UNK     1      36.145  -7.867  33.781  1.00  0.00    -0.036 A 
HETATM   28  C15 UNK     1      34.770  -8.102  33.771  1.00  0.00     0.013 A 
HETATM   29  C9  UNK     1      33.942  -7.435  34.674  1.00  0.00     0.030 A 
BRANCH  27  30
HETATM   30  C17 UNK     1      37.008  -8.562  32.841  1.00  0.00     0.012 C 
HETATM   31  C19 UNK     1      37.583  -9.770  33.054  1.00  0.00     0.012 C 
BRANCH  31  32
HETATM   32  C21 UNK     1      38.442 -10.485  32.093  1.00  0.00    -0.036 A 
HETATM   33  C23 UNK     1      39.797 -10.666  32.372  1.00  0.00     0.011 A 
HETATM   34  C27 UNK     1      40.612 -11.342  31.463  1.00  0.00     0.001 A 
HETATM   35  C31 UNK     1      40.071 -11.837  30.276  1.00  0.00     0.000 A 
HETATM   36  C29 UNK     1      38.716 -11.656  29.998  1.00  0.00     0.001 A 
HETATM   37  C25 UNK     1      37.902 -10.980  30.907  1.00  0.00     0.011 A 
ENDBRANCH  31  32
ENDBRANCH  27  30
ENDBRANCH  22  24
ENDBRANCH   1  20
TORSDOF 8
ENDMDL
