MODEL 1
REMARK VINA RESULT:      -9.0      0.000      0.000
REMARK  1 active torsions:
REMARK  status: ('A' for Active; 'I' for Inactive)
REMARK    1  A    between atoms: C1_5  and  C4_8 
ROOT
HETATM    1  O1  UNK     1      15.404   6.851   9.500  1.00  0.00    -0.277 OA
HETATM    2  O2  UNK     1      13.556  10.610   9.921  1.00  0.00    -0.274 OA
HETATM    3  O3  UNK     1      15.283   4.600   9.275  1.00  0.00    -0.265 OA
HETATM    4  O4  UNK     1      11.508   9.608   9.936  1.00  0.00    -0.259 OA
HETATM    5  C1  UNK     1      12.534   6.941   9.674  1.00  0.00     0.071 C 
HETATM    6  C2  UNK     1      13.393   8.176   9.723  1.00  0.00     0.061 A 
HETATM    7  C3  UNK     1      13.338   5.715  10.123  1.00  0.00     0.126 C 
HETATM    8  C5  UNK     1      14.729   8.077   9.671  1.00  0.00     0.105 A 
HETATM    9  C7  UNK     1      14.739   5.662   9.566  1.00  0.00     0.265 C 
HETATM   10  C8  UNK     1      15.576   9.266   9.723  1.00  0.00     0.033 A 
HETATM   11  C10 UNK     1      12.728   9.494   9.867  1.00  0.00     0.298 A 
HETATM   12  C12 UNK     1      14.959  10.507   9.848  1.00  0.00     0.092 A 
HETATM   13  C16 UNK     1      16.974   9.226   9.657  1.00  0.00     0.017 A 
HETATM   14  C18 UNK     1      15.689  11.694   9.907  1.00  0.00     0.038 A 
HETATM   15  C21 UNK     1      17.719  10.407   9.715  1.00  0.00     0.001 A 
HETATM   16  C22 UNK     1      17.078  11.640   9.840  1.00  0.00     0.003 A 
ENDROOT
BRANCH   5  17
HETATM   17  C4  UNK     1      11.863   6.730   8.324  1.00  0.00    -0.038 A 
HETATM   18  C6  UNK     1      10.468   6.776   8.171  1.00  0.00    -0.019 A 
HETATM   19  C11 UNK     1       9.906   6.573   6.888  1.00  0.00    -0.025 A 
HETATM   20  C13 UNK     1       9.618   7.020   9.262  1.00  0.00     0.013 A 
HETATM   21  C15 UNK     1      10.756   6.330   5.797  1.00  0.00     0.012 A 
HETATM   22  C17 UNK     1       8.511   6.619   6.735  1.00  0.00     0.012 A 
HETATM   23  C14 UNK     1      12.140   6.288   5.967  1.00  0.00     0.001 A 
HETATM   24  C9  UNK     1      12.692   6.487   7.229  1.00  0.00     0.009 A 
HETATM   25  C20 UNK     1       7.682   6.861   7.830  1.00  0.00     0.001 A 
HETATM   26  C19 UNK     1       8.234   7.061   9.092  1.00  0.00     0.001 A 
ENDBRANCH   5  17
TORSDOF 1
ENDMDL
MODEL 2
REMARK VINA RESULT:      -9.0     13.870     16.523
REMARK  1 active torsions:
REMARK  status: ('A' for Active; 'I' for Inactive)
REMARK    1  A    between atoms: C1_5  and  C4_8 
ROOT
HETATM    1  O1  UNK     1      20.021  -2.601  16.244  1.00  0.00    -0.277 OA
HETATM    2  O2  UNK     1      22.661  -5.867  15.942  1.00  0.00    -0.274 OA
HETATM    3  O3  UNK     1      18.132  -1.520  15.619  1.00  0.00    -0.265 OA
HETATM    4  O4  UNK     1      21.358  -6.776  14.307  1.00  0.00    -0.259 OA
HETATM    5  C1  UNK     1      19.432  -4.650  14.311  1.00  0.00     0.071 C 
HETATM    6  C2  UNK     1      20.635  -4.702  15.214  1.00  0.00     0.061 A 
HETATM    7  C3  UNK     1      18.968  -3.200  14.127  1.00  0.00     0.126 C 
HETATM    8  C5  UNK     1      20.883  -3.705  16.075  1.00  0.00     0.105 A 
HETATM    9  C7  UNK     1      18.972  -2.388  15.399  1.00  0.00     0.265 C 
HETATM   10  C8  UNK     1      22.050  -3.739  16.953  1.00  0.00     0.033 A 
HETATM   11  C10 UNK     1      21.555  -5.861  15.100  1.00  0.00     0.298 A 
HETATM   12  C12 UNK     1      22.911  -4.828  16.860  1.00  0.00     0.092 A 
HETATM   13  C16 UNK     1      22.351  -2.735  17.882  1.00  0.00     0.017 A 
HETATM   14  C18 UNK     1      24.050  -4.943  17.657  1.00  0.00     0.038 A 
HETATM   15  C21 UNK     1      23.488  -2.837  18.689  1.00  0.00     0.001 A 
HETATM   16  C22 UNK     1      24.337  -3.938  18.577  1.00  0.00     0.003 A 
ENDROOT
BRANCH   5  17
HETATM   17  C4  UNK     1      18.304  -5.566  14.763  1.00  0.00    -0.038 A 
HETATM   18  C6  UNK     1      17.784  -6.572  13.931  1.00  0.00    -0.019 A 
HETATM   19  C11 UNK     1      16.735  -7.392  14.412  1.00  0.00    -0.025 A 
HETATM   20  C13 UNK     1      18.283  -6.783  12.636  1.00  0.00     0.013 A 
HETATM   21  C15 UNK     1      16.237  -7.182  15.707  1.00  0.00     0.012 A 
HETATM   22  C17 UNK     1      16.216  -8.398  13.581  1.00  0.00     0.012 A 
HETATM   23  C14 UNK     1      16.765  -6.178  16.519  1.00  0.00     0.001 A 
HETATM   24  C9  UNK     1      17.797  -5.371  16.047  1.00  0.00     0.009 A 
HETATM   25  C20 UNK     1      16.723  -8.592  12.295  1.00  0.00     0.001 A 
HETATM   26  C19 UNK     1      17.754  -7.786  11.824  1.00  0.00     0.001 A 
ENDBRANCH   5  17
TORSDOF 1
ENDMDL
MODEL 3
REMARK VINA RESULT:      -8.9     31.412     33.920
REMARK  1 active torsions:
REMARK  status: ('A' for Active; 'I' for Inactive)
REMARK    1  A    between atoms: C1_5  and  C4_8 
ROOT
HETATM    1  O1  UNK     1      30.307  -5.892  35.087  1.00  0.00    -0.277 OA
HETATM    2  O2  UNK     1      28.237  -9.268  36.517  1.00  0.00    -0.274 OA
HETATM    3  O3  UNK     1      31.419  -4.804  33.441  1.00  0.00    -0.265 OA
HETATM    4  O4  UNK     1      28.584 -10.330  34.530  1.00  0.00    -0.259 OA
HETATM    5  C1  UNK     1      30.048  -8.167  33.343  1.00  0.00     0.071 C 
HETATM    6  C2  UNK     1      29.473  -8.136  34.734  1.00  0.00     0.061 A 
HETATM    7  C3  UNK     1      31.219  -7.184  33.230  1.00  0.00     0.126 C 
HETATM    8  C5  UNK     1      29.650  -7.064  35.519  1.00  0.00     0.105 A 
HETATM    9  C7  UNK     1      30.971  -5.853  33.896  1.00  0.00     0.265 C 
HETATM   10  C8  UNK     1      29.103  -7.021  36.873  1.00  0.00     0.033 A 
HETATM   11  C10 UNK     1      28.743  -9.331  35.224  1.00  0.00     0.298 A 
HETATM   12  C12 UNK     1      28.407  -8.133  37.336  1.00  0.00     0.092 A 
HETATM   13  C16 UNK     1      29.242  -5.924  37.732  1.00  0.00     0.017 A 
HETATM   14  C18 UNK     1      27.853  -8.182  38.614  1.00  0.00     0.038 A 
HETATM   15  C21 UNK     1      28.691  -5.957  39.016  1.00  0.00     0.001 A 
HETATM   16  C22 UNK     1      27.998  -7.084  39.457  1.00  0.00     0.003 A 
ENDROOT
BRANCH   5  17
HETATM   17  C4  UNK     1      29.003  -7.950  32.258  1.00  0.00    -0.038 A 
HETATM   18  C6  UNK     1      28.961  -8.741  31.098  1.00  0.00    -0.019 A 
HETATM   19  C11 UNK     1      27.963  -8.489  30.126  1.00  0.00    -0.025 A 
HETATM   20  C13 UNK     1      29.885  -9.776  30.881  1.00  0.00     0.013 A 
HETATM   21  C15 UNK     1      27.038  -7.455  30.343  1.00  0.00     0.012 A 
HETATM   22  C17 UNK     1      27.919  -9.280  28.967  1.00  0.00     0.012 A 
HETATM   23  C14 UNK     1      27.096  -6.679  31.501  1.00  0.00     0.001 A 
HETATM   24  C9  UNK     1      28.077  -6.927  32.457  1.00  0.00     0.009 A 
HETATM   25  C20 UNK     1      28.846 -10.303  28.767  1.00  0.00     0.001 A 
HETATM   26  C19 UNK     1      29.828 -10.551  29.723  1.00  0.00     0.001 A 
ENDBRANCH   5  17
TORSDOF 1
ENDMDL
MODEL 4
REMARK VINA RESULT:      -8.7     23.851     25.327
REMARK  1 active torsions:
REMARK  status: ('A' for Active; 'I' for Inactive)
REMARK    1  A    between atoms: C1_5  and  C4_8 
ROOT
HETATM    1  O1  UNK     1      18.841   9.924  34.182  1.00  0.00    -0.277 OA
HETATM    2  O2  UNK     1      14.701   9.174  34.035  1.00  0.00    -0.274 OA
HETATM    3  O3  UNK     1      20.982   9.192  34.273  1.00  0.00    -0.265 OA
HETATM    4  O4  UNK     1      15.097   6.931  34.151  1.00  0.00    -0.259 OA
HETATM    5  C1  UNK     1      17.951   7.189  34.287  1.00  0.00     0.071 C 
HETATM    6  C2  UNK     1      17.001   8.352  34.178  1.00  0.00     0.061 A 
HETATM    7  C3  UNK     1      19.273   7.640  34.919  1.00  0.00     0.126 C 
HETATM    8  C5  UNK     1      17.465   9.610  34.166  1.00  0.00     0.105 A 
HETATM    9  C7  UNK     1      19.783   8.962  34.402  1.00  0.00     0.265 C 
HETATM   10  C8  UNK     1      16.556  10.749  34.067  1.00  0.00     0.033 A 
HETATM   11  C10 UNK     1      15.545   8.073  34.123  1.00  0.00     0.298 A 
HETATM   12  C12 UNK     1      15.189  10.495  34.004  1.00  0.00     0.092 A 
HETATM   13  C16 UNK     1      16.983  12.082  34.035  1.00  0.00     0.017 A 
HETATM   14  C18 UNK     1      14.248  11.520  33.910  1.00  0.00     0.038 A 
HETATM   15  C21 UNK     1      16.052  13.120  33.940  1.00  0.00     0.001 A 
HETATM   16  C22 UNK     1      14.687  12.841  33.878  1.00  0.00     0.003 A 
ENDROOT
BRANCH   5  17
HETATM   17  C4  UNK     1      18.159   6.460  32.967  1.00  0.00    -0.038 A 
HETATM   18  C6  UNK     1      18.220   5.059  32.893  1.00  0.00    -0.019 A 
HETATM   19  C11 UNK     1      18.414   4.442  31.634  1.00  0.00    -0.025 A 
HETATM   20  C13 UNK     1      18.090   4.257  34.038  1.00  0.00     0.013 A 
HETATM   21  C15 UNK     1      18.543   5.243  30.488  1.00  0.00     0.012 A 
HETATM   22  C17 UNK     1      18.474   3.041  31.559  1.00  0.00     0.012 A 
HETATM   23  C14 UNK     1      18.480   6.634  30.581  1.00  0.00     0.001 A 
HETATM   24  C9  UNK     1      18.289   7.241  31.819  1.00  0.00     0.009 A 
HETATM   25  C20 UNK     1      18.345   2.260  32.708  1.00  0.00     0.001 A 
HETATM   26  C19 UNK     1      18.154   2.867  33.945  1.00  0.00     0.001 A 
ENDBRANCH   5  17
TORSDOF 1
ENDMDL
MODEL 5
REMARK VINA RESULT:      -8.6      2.119      6.550
REMARK  1 active torsions:
REMARK  status: ('A' for Active; 'I' for Inactive)
REMARK    1  A    between atoms: C1_5  and  C4_8 
ROOT
HETATM    1  O1  UNK     1       9.354   6.745   7.829  1.00  0.00    -0.277 OA
HETATM    2  O2  UNK     1       9.493   9.750  10.774  1.00  0.00    -0.274 OA
HETATM    3  O3  UNK     1      10.346   5.524   6.200  1.00  0.00    -0.265 OA
HETATM    4  O4  UNK     1      11.660  10.198  10.223  1.00  0.00    -0.259 OA
HETATM    5  C1  UNK     1      11.802   8.224   8.146  1.00  0.00     0.071 C 
HETATM    6  C2  UNK     1      10.581   8.478   8.988  1.00  0.00     0.061 A 
HETATM    7  C3  UNK     1      11.404   7.587   6.810  1.00  0.00     0.126 C 
HETATM    8  C5  UNK     1       9.453   7.784   8.778  1.00  0.00     0.105 A 
HETATM    9  C7  UNK     1      10.354   6.510   6.930  1.00  0.00     0.265 C 
HETATM   10  C8  UNK     1       8.258   8.023   9.583  1.00  0.00     0.033 A 
HETATM   11  C10 UNK     1      10.645   9.537  10.025  1.00  0.00     0.298 A 
HETATM   12  C12 UNK     1       8.314   9.007  10.565  1.00  0.00     0.092 A 
HETATM   13  C16 UNK     1       7.059   7.319   9.420  1.00  0.00     0.017 A 
HETATM   14  C18 UNK     1       7.221   9.305  11.379  1.00  0.00     0.038 A 
HETATM   15  C21 UNK     1       5.955   7.605  10.229  1.00  0.00     0.001 A 
HETATM   16  C22 UNK     1       6.036   8.597  11.207  1.00  0.00     0.003 A 
ENDROOT
BRANCH   5  17
HETATM   17  C4  UNK     1      12.874   7.423   8.872  1.00  0.00    -0.038 A 
HETATM   18  C6  UNK     1      14.145   7.955   9.143  1.00  0.00    -0.019 A 
HETATM   19  C11 UNK     1      15.097   7.159   9.823  1.00  0.00    -0.025 A 
HETATM   20  C13 UNK     1      14.491   9.260   8.756  1.00  0.00     0.013 A 
HETATM   21  C15 UNK     1      14.751   5.855  10.211  1.00  0.00     0.012 A 
HETATM   22  C17 UNK     1      16.368   7.691  10.094  1.00  0.00     0.012 A 
HETATM   23  C14 UNK     1      13.484   5.342   9.933  1.00  0.00     0.001 A 
HETATM   24  C9  UNK     1      12.547   6.125   9.264  1.00  0.00     0.009 A 
HETATM   25  C20 UNK     1      16.696   8.989   9.701  1.00  0.00     0.001 A 
HETATM   26  C19 UNK     1      15.759   9.772   9.032  1.00  0.00     0.001 A 
ENDBRANCH   5  17
TORSDOF 1
ENDMDL
MODEL 6
REMARK VINA RESULT:      -8.6     31.806     34.310
REMARK  1 active torsions:
REMARK  status: ('A' for Active; 'I' for Inactive)
REMARK    1  A    between atoms: C1_5  and  C4_8 
ROOT
HETATM    1  O1  UNK     1      32.103  -4.704  35.791  1.00  0.00    -0.277 OA
HETATM    2  O2  UNK     1      28.924  -7.399  36.388  1.00  0.00    -0.274 OA
HETATM    3  O3  UNK     1      33.860  -3.955  34.573  1.00  0.00    -0.265 OA
HETATM    4  O4  UNK     1      29.507  -8.517  34.488  1.00  0.00    -0.259 OA
HETATM    5  C1  UNK     1      31.745  -6.827  33.881  1.00  0.00     0.071 C 
HETATM    6  C2  UNK     1      30.844  -6.642  35.073  1.00  0.00     0.061 A 
HETATM    7  C3  UNK     1      33.116  -6.194  34.146  1.00  0.00     0.126 C 
HETATM    8  C5  UNK     1      31.074  -5.656  35.952  1.00  0.00     0.105 A 
HETATM    9  C7  UNK     1      33.050  -4.845  34.819  1.00  0.00     0.265 C 
HETATM   10  C8  UNK     1      30.213  -5.467  37.117  1.00  0.00     0.033 A 
HETATM   11  C10 UNK     1      29.726  -7.596  35.269  1.00  0.00     0.298 A 
HETATM   12  C12 UNK     1      29.155  -6.352  37.302  1.00  0.00     0.092 A 
HETATM   13  C16 UNK     1      30.395  -4.447  38.059  1.00  0.00     0.017 A 
HETATM   14  C18 UNK     1      28.284  -6.249  38.386  1.00  0.00     0.038 A 
HETATM   15  C21 UNK     1      29.529  -4.331  39.150  1.00  0.00     0.001 A 
HETATM   16  C22 UNK     1      28.475  -5.230  39.314  1.00  0.00     0.003 A 
ENDROOT
BRANCH   5  17
HETATM   17  C4  UNK     1      31.124  -6.339  32.580  1.00  0.00    -0.038 A 
HETATM   18  C6  UNK     1      31.380  -6.968  31.351  1.00  0.00    -0.019 A 
HETATM   19  C11 UNK     1      30.770  -6.465  30.177  1.00  0.00    -0.025 A 
HETATM   20  C13 UNK     1      32.225  -8.086  31.262  1.00  0.00     0.013 A 
HETATM   21  C15 UNK     1      29.924  -5.349  30.266  1.00  0.00     0.012 A 
HETATM   22  C17 UNK     1      31.025  -7.095  28.948  1.00  0.00     0.012 A 
HETATM   23  C14 UNK     1      29.681  -4.735  31.496  1.00  0.00     0.001 A 
HETATM   24  C9  UNK     1      30.281  -5.229  32.650  1.00  0.00     0.009 A 
HETATM   25  C20 UNK     1      31.868  -8.204  28.877  1.00  0.00     0.001 A 
HETATM   26  C19 UNK     1      32.468  -8.698  30.032  1.00  0.00     0.001 A 
ENDBRANCH   5  17
TORSDOF 1
ENDMDL
MODEL 7
REMARK VINA RESULT:      -8.4     32.021     34.312
REMARK  1 active torsions:
REMARK  status: ('A' for Active; 'I' for Inactive)
REMARK    1  A    between atoms: C1_5  and  C4_8 
ROOT
HETATM    1  O1  UNK     1      30.652  -7.813  36.803  1.00  0.00    -0.277 OA
HETATM    2  O2  UNK     1      32.540  -5.114  34.182  1.00  0.00    -0.274 OA
HETATM    3  O3  UNK     1      28.880  -9.103  37.377  1.00  0.00    -0.265 OA
HETATM    4  O4  UNK     1      30.687  -5.099  32.853  1.00  0.00    -0.259 OA
HETATM    5  C1  UNK     1      29.188  -6.912  34.495  1.00  0.00     0.071 C 
HETATM    6  C2  UNK     1      30.593  -6.463  34.797  1.00  0.00     0.061 A 
HETATM    7  C3  UNK     1      28.484  -7.357  35.782  1.00  0.00     0.126 C 
HETATM    8  C5  UNK     1      31.220  -6.886  35.904  1.00  0.00     0.105 A 
HETATM    9  C7  UNK     1      29.346  -8.192  36.697  1.00  0.00     0.265 C 
HETATM   10  C8  UNK     1      32.580  -6.455  36.213  1.00  0.00     0.033 A 
HETATM   11  C10 UNK     1      31.248  -5.514  33.862  1.00  0.00     0.298 A 
HETATM   12  C12 UNK     1      33.206  -5.574  35.335  1.00  0.00     0.092 A 
HETATM   13  C16 UNK     1      33.290  -6.876  37.344  1.00  0.00     0.017 A 
HETATM   14  C18 UNK     1      34.502  -5.108  35.552  1.00  0.00     0.038 A 
HETATM   15  C21 UNK     1      34.590  -6.418  37.574  1.00  0.00     0.001 A 
HETATM   16  C22 UNK     1      35.196  -5.536  36.680  1.00  0.00     0.003 A 
ENDROOT
BRANCH   5  17
HETATM   17  C4  UNK     1      29.119  -7.969  33.403  1.00  0.00    -0.038 A 
HETATM   18  C6  UNK     1      28.336  -7.797  32.249  1.00  0.00    -0.019 A 
HETATM   19  C11 UNK     1      28.316  -8.818  31.269  1.00  0.00    -0.025 A 
HETATM   20  C13 UNK     1      27.575  -6.634  32.046  1.00  0.00     0.013 A 
HETATM   21  C15 UNK     1      29.077  -9.980  31.471  1.00  0.00     0.012 A 
HETATM   22  C17 UNK     1      27.534  -8.646  30.116  1.00  0.00     0.012 A 
HETATM   23  C14 UNK     1      29.848 -10.134  32.624  1.00  0.00     0.001 A 
HETATM   24  C9  UNK     1      29.869  -9.130  33.588  1.00  0.00     0.009 A 
HETATM   25  C20 UNK     1      26.783  -7.484  29.931  1.00  0.00     0.001 A 
HETATM   26  C19 UNK     1      26.803  -6.481  30.895  1.00  0.00     0.001 A 
ENDBRANCH   5  17
TORSDOF 1
ENDMDL
MODEL 8
REMARK VINA RESULT:      -8.4     34.409     37.102
REMARK  1 active torsions:
REMARK  status: ('A' for Active; 'I' for Inactive)
REMARK    1  A    between atoms: C1_5  and  C4_8 
ROOT
HETATM    1  O1  UNK     1      29.535  -5.514  38.027  1.00  0.00    -0.277 OA
HETATM    2  O2  UNK     1      30.109  -9.680  38.219  1.00  0.00    -0.274 OA
HETATM    3  O3  UNK     1      30.284  -3.434  37.534  1.00  0.00    -0.265 OA
HETATM    4  O4  UNK     1      32.241  -9.428  37.451  1.00  0.00    -0.259 OA
HETATM    5  C1  UNK     1      32.099  -6.569  37.256  1.00  0.00     0.071 C 
HETATM    6  C2  UNK     1      30.963  -7.442  37.718  1.00  0.00     0.061 A 
HETATM    7  C3  UNK     1      31.937  -5.149  37.810  1.00  0.00     0.126 C 
HETATM    8  C5  UNK     1      29.798  -6.898  38.098  1.00  0.00     0.105 A 
HETATM    9  C7  UNK     1      30.525  -4.620  37.742  1.00  0.00     0.265 C 
HETATM   10  C8  UNK     1      28.689  -7.732  38.554  1.00  0.00     0.033 A 
HETATM   11  C10 UNK     1      31.178  -8.909  37.776  1.00  0.00     0.298 A 
HETATM   12  C12 UNK     1      28.879  -9.110  38.601  1.00  0.00     0.092 A 
HETATM   13  C16 UNK     1      27.446  -7.222  38.947  1.00  0.00     0.017 A 
HETATM   14  C18 UNK     1      27.877  -9.982  39.025  1.00  0.00     0.038 A 
HETATM   15  C21 UNK     1      26.431  -8.084  39.374  1.00  0.00     0.001 A 
HETATM   16  C22 UNK     1      26.645  -9.462  39.413  1.00  0.00     0.003 A 
ENDROOT
BRANCH   5  17
HETATM   17  C4  UNK     1      32.290  -6.583  35.746  1.00  0.00    -0.038 A 
HETATM   18  C6  UNK     1      33.564  -6.645  35.158  1.00  0.00    -0.019 A 
HETATM   19  C11 UNK     1      33.674  -6.657  33.747  1.00  0.00    -0.025 A 
HETATM   20  C13 UNK     1      34.731  -6.699  35.939  1.00  0.00     0.013 A 
HETATM   21  C15 UNK     1      32.509  -6.605  32.966  1.00  0.00     0.012 A 
HETATM   22  C17 UNK     1      34.948  -6.720  33.159  1.00  0.00     0.012 A 
HETATM   23  C14 UNK     1      31.251  -6.542  33.568  1.00  0.00     0.001 A 
HETATM   24  C9  UNK     1      31.143  -6.531  34.955  1.00  0.00     0.009 A 
HETATM   25  C20 UNK     1      36.096  -6.771  33.950  1.00  0.00     0.001 A 
HETATM   26  C19 UNK     1      35.988  -6.760  35.337  1.00  0.00     0.001 A 
ENDBRANCH   5  17
TORSDOF 1
ENDMDL
MODEL 9
REMARK VINA RESULT:      -8.3     32.959     35.446
REMARK  1 active torsions:
REMARK  status: ('A' for Active; 'I' for Inactive)
REMARK    1  A    between atoms: C1_5  and  C4_8 
ROOT
HETATM    1  O1  UNK     1      31.572  -5.503  34.687  1.00  0.00    -0.277 OA
HETATM    2  O2  UNK     1      27.623  -6.685  33.835  1.00  0.00    -0.274 OA
HETATM    3  O3  UNK     1      33.264  -5.167  36.155  1.00  0.00    -0.265 OA
HETATM    4  O4  UNK     1      27.255  -7.075  36.051  1.00  0.00    -0.259 OA
HETATM    5  C1  UNK     1      29.888  -6.294  36.882  1.00  0.00     0.071 C 
HETATM    6  C2  UNK     1      29.417  -6.291  35.452  1.00  0.00     0.061 A 
HETATM    7  C3  UNK     1      31.049  -5.310  37.061  1.00  0.00     0.126 C 
HETATM    8  C5  UNK     1      30.231  -5.881  34.469  1.00  0.00     0.105 A 
HETATM    9  C7  UNK     1      32.068  -5.352  35.949  1.00  0.00     0.265 C 
HETATM   10  C8  UNK     1      29.786  -5.867  33.078  1.00  0.00     0.033 A 
HETATM   11  C10 UNK     1      28.024  -6.714  35.166  1.00  0.00     0.298 A 
HETATM   12  C12 UNK     1      28.484  -6.273  32.799  1.00  0.00     0.092 A 
HETATM   13  C16 UNK     1      30.596  -5.465  32.008  1.00  0.00     0.017 A 
HETATM   14  C18 UNK     1      27.974  -6.289  31.502  1.00  0.00     0.038 A 
HETATM   15  C21 UNK     1      30.099  -5.477  30.702  1.00  0.00     0.001 A 
HETATM   16  C22 UNK     1      28.790  -5.888  30.448  1.00  0.00     0.003 A 
ENDROOT
BRANCH   5  17
HETATM   17  C4  UNK     1      30.223  -7.686  37.398  1.00  0.00    -0.038 A 
HETATM   18  C6  UNK     1      29.402  -8.356  38.320  1.00  0.00    -0.019 A 
HETATM   19  C11 UNK     1      29.769  -9.650  38.760  1.00  0.00    -0.025 A 
HETATM   20  C13 UNK     1      28.223  -7.772  38.811  1.00  0.00     0.013 A 
HETATM   21  C15 UNK     1      30.947 -10.235  38.268  1.00  0.00     0.012 A 
HETATM   22  C17 UNK     1      28.947 -10.320  39.680  1.00  0.00     0.012 A 
HETATM   23  C14 UNK     1      31.752  -9.554  37.354  1.00  0.00     0.001 A 
HETATM   24  C9  UNK     1      31.390  -8.282  36.920  1.00  0.00     0.009 A 
HETATM   25  C20 UNK     1      27.780  -9.724  40.160  1.00  0.00     0.001 A 
HETATM   26  C19 UNK     1      27.419  -8.452  39.726  1.00  0.00     0.001 A 
ENDBRANCH   5  17
TORSDOF 1
ENDMDL
MODEL 10
REMARK VINA RESULT:      -8.3     31.918     34.426
REMARK  1 active torsions:
REMARK  status: ('A' for Active; 'I' for Inactive)
REMARK    1  A    between atoms: C1_5  and  C4_8 
ROOT
HETATM    1  O1  UNK     1      35.024  -6.611  31.914  1.00  0.00    -0.277 OA
HETATM    2  O2  UNK     1      32.887  -8.751  34.843  1.00  0.00    -0.274 OA
HETATM    3  O3  UNK     1      35.542  -6.200  29.748  1.00  0.00    -0.265 OA
HETATM    4  O4  UNK     1      31.930 -10.032  33.217  1.00  0.00    -0.259 OA
HETATM    5  C1  UNK     1      33.291  -8.738  31.047  1.00  0.00     0.071 C 
HETATM    6  C2  UNK     1      33.458  -8.361  32.495  1.00  0.00     0.061 A 
HETATM    7  C3  UNK     1      34.523  -8.314  30.241  1.00  0.00     0.126 C 
HETATM    8  C5  UNK     1      34.305  -7.384  32.850  1.00  0.00     0.105 A 
HETATM    9  C7  UNK     1      35.044  -6.941  30.591  1.00  0.00     0.265 C 
HETATM   10  C8  UNK     1      34.483  -7.011  34.251  1.00  0.00     0.033 A 
HETATM   11  C10 UNK     1      32.696  -9.121  33.516  1.00  0.00     0.298 A 
HETATM   12  C12 UNK     1      33.763  -7.712  35.214  1.00  0.00     0.092 A 
HETATM   13  C16 UNK     1      35.339  -5.989  34.679  1.00  0.00     0.017 A 
HETATM   14  C18 UNK     1      33.871  -7.425  36.574  1.00  0.00     0.038 A 
HETATM   15  C21 UNK     1      35.458  -5.690  36.039  1.00  0.00     0.001 A 
HETATM   16  C22 UNK     1      34.726  -6.407  36.986  1.00  0.00     0.003 A 
ENDROOT
BRANCH   5  17
HETATM   17  C4  UNK     1      31.995  -8.219  30.440  1.00  0.00    -0.038 A 
HETATM   18  C6  UNK     1      31.049  -9.080  29.859  1.00  0.00    -0.019 A 
HETATM   19  C11 UNK     1      29.863  -8.534  29.312  1.00  0.00    -0.025 A 
HETATM   20  C13 UNK     1      31.252 -10.468  29.811  1.00  0.00     0.013 A 
HETATM   21  C15 UNK     1      29.658  -7.146  29.361  1.00  0.00     0.012 A 
HETATM   22  C17 UNK     1      28.916  -9.394  28.732  1.00  0.00     0.012 A 
HETATM   23  C14 UNK     1      30.610  -6.306  29.941  1.00  0.00     0.001 A 
HETATM   24  C9  UNK     1      31.776  -6.842  30.479  1.00  0.00     0.009 A 
HETATM   25  C20 UNK     1      29.135 -10.771  28.692  1.00  0.00     0.001 A 
HETATM   26  C19 UNK     1      30.301 -11.307  29.230  1.00  0.00     0.001 A 
ENDBRANCH   5  17
TORSDOF 1
ENDMDL
