MODEL 1
REMARK VINA RESULT:      -8.2      0.000      0.000
REMARK  7 active torsions:
REMARK  status: ('A' for Active; 'I' for Inactive)
REMARK    1  A    between atoms: C7_13  and  O2_3 
REMARK    2  A    between atoms: C13_19  and  O3_4 
REMARK    3  A    between atoms: C15_21  and  O3_4 
REMARK    4  A    between atoms: C1_7  and  N1_6 
REMARK    5  A    between atoms: C3_9  and  N1_6 
REMARK    6  A    between atoms: C4_10  and  N1_6 
REMARK    7  A    between atoms: C1_7  and  C2_8 
ROOT
HETATM    1  O1  UNK     1      18.086   2.877  33.608  1.00  0.00    -0.318 OA
HETATM    2  O4  UNK     1      18.864   3.754  29.696  1.00  0.00    -0.284 OA
HETATM    3  C2  UNK     1      18.586   0.593  33.268  1.00  0.00     0.038 A 
HETATM    4  C5  UNK     1      18.475   1.881  32.745  1.00  0.00     0.100 A 
HETATM    5  C6  UNK     1      18.756   2.116  31.398  1.00  0.00     0.051 A 
HETATM    6  C7  UNK     1      18.978  -0.460  32.439  1.00  0.00     0.076 A 
HETATM    7  C10 UNK     1      19.148   1.064  30.566  1.00  0.00     0.021 A 
HETATM    8  C11 UNK     1      19.259  -0.224  31.092  1.00  0.00     0.038 A 
HETATM    9  C12 UNK     1      18.631   3.486  30.866  1.00  0.00     0.220 A 
HETATM   10  C13 UNK     1      18.208   4.520  31.838  1.00  0.00     0.149 A 
HETATM   11  C14 UNK     1      17.973   4.148  33.100  1.00  0.00     0.184 A 
ENDROOT
BRANCH  10  12
HETATM   12  O3  UNK     1      18.069   5.822  31.422  1.00  0.00    -0.303 OA
BRANCH  12  13
HETATM   13  C15 UNK     1      18.426   6.800  32.309  1.00  0.00     0.093 A 
HETATM   14  C16 UNK     1      17.540   7.813  32.666  1.00  0.00     0.044 A 
HETATM   15 Br1  UNK     1      15.790   7.893  31.942  1.00  0.00    -0.048 Br
HETATM   16  C18 UNK     1      17.937   8.794  33.575  1.00  0.00     0.022 A 
HETATM   17  C20 UNK     1      19.220   8.759  34.123  1.00  0.00     0.002 A 
HETATM   18  C19 UNK     1      20.104   7.743  33.764  1.00  0.00     0.003 A 
HETATM   19  C17 UNK     1      19.707   6.761  32.855  1.00  0.00     0.039 A 
ENDBRANCH  12  13
ENDBRANCH  10  12
BRANCH   3  20
HETATM   20  C1  UNK     1      18.288   0.331  34.710  1.00  0.00     0.316 C 
BRANCH  20  21
HETATM   21  N1  UNK     1      17.142  -0.520  34.882  1.00  0.00     0.092 N 
BRANCH  21  22
HETATM   22  C3  UNK     1      15.909   0.268  35.030  1.00  0.00     0.268 C 
HETATM   23  C8  UNK     1      15.682   0.665  36.480  1.00  0.00     0.037 C 
ENDBRANCH  21  22
BRANCH  21  24
HETATM   24  C4  UNK     1      17.303  -1.404  36.046  1.00  0.00     0.268 C 
HETATM   25  C9  UNK     1      18.765  -1.539  36.434  1.00  0.00     0.037 C 
ENDBRANCH  21  24
ENDBRANCH  20  21
ENDBRANCH   3  20
BRANCH   6  26
HETATM   26  O2  UNK     1      19.094  -1.726  32.928  1.00  0.00    -0.360 OA
HETATM   27  H16 UNK     1      19.919  -2.121  32.597  1.00  0.00     0.217 HD
ENDBRANCH   6  26
TORSDOF 7
ENDMDL
MODEL 2
REMARK VINA RESULT:      -7.8      1.625      2.431
REMARK  7 active torsions:
REMARK  status: ('A' for Active; 'I' for Inactive)
REMARK    1  A    between atoms: C7_13  and  O2_3 
REMARK    2  A    between atoms: C13_19  and  O3_4 
REMARK    3  A    between atoms: C15_21  and  O3_4 
REMARK    4  A    between atoms: C1_7  and  N1_6 
REMARK    5  A    between atoms: C3_9  and  N1_6 
REMARK    6  A    between atoms: C4_10  and  N1_6 
REMARK    7  A    between atoms: C1_7  and  C2_8 
ROOT
HETATM    1  O1  UNK     1      17.964   3.710  33.431  1.00  0.00    -0.318 OA
HETATM    2  O4  UNK     1      19.320   5.039  29.816  1.00  0.00    -0.284 OA
HETATM    3  C2  UNK     1      18.205   1.454  32.770  1.00  0.00     0.038 A 
HETATM    4  C5  UNK     1      18.325   2.808  32.459  1.00  0.00     0.100 A 
HETATM    5  C6  UNK     1      18.795   3.199  31.203  1.00  0.00     0.051 A 
HETATM    6  C7  UNK     1      18.557   0.492  31.822  1.00  0.00     0.076 A 
HETATM    7  C10 UNK     1      19.148   2.238  30.253  1.00  0.00     0.021 A 
HETATM    8  C11 UNK     1      19.028   0.883  30.567  1.00  0.00     0.038 A 
HETATM    9  C12 UNK     1      18.913   4.637  30.896  1.00  0.00     0.220 A 
HETATM   10  C13 UNK     1      18.510   5.564  31.978  1.00  0.00     0.149 A 
HETATM   11  C14 UNK     1      18.077   5.046  33.131  1.00  0.00     0.184 A 
ENDROOT
BRANCH  10  12
HETATM   12  O3  UNK     1      18.591   6.920  31.771  1.00  0.00    -0.303 OA
BRANCH  12  13
HETATM   13  C15 UNK     1      17.600   7.692  32.312  1.00  0.00     0.093 A 
HETATM   14  C16 UNK     1      17.814   8.441  33.466  1.00  0.00     0.044 A 
HETATM   15 Br1  UNK     1      19.491   8.434  34.349  1.00  0.00    -0.048 Br
HETATM   16  C18 UNK     1      16.781   9.218  33.990  1.00  0.00     0.022 A 
HETATM   17  C20 UNK     1      15.536   9.242  33.360  1.00  0.00     0.002 A 
HETATM   18  C19 UNK     1      15.325   8.490  32.205  1.00  0.00     0.003 A 
HETATM   19  C17 UNK     1      16.359   7.713  31.679  1.00  0.00     0.039 A 
ENDBRANCH  12  13
ENDBRANCH  10  12
BRANCH   3  20
HETATM   20  C1  UNK     1      17.702   1.025  34.112  1.00  0.00     0.316 C 
BRANCH  20  21
HETATM   21  N1  UNK     1      18.771   0.635  34.993  1.00  0.00     0.092 N 
BRANCH  21  22
HETATM   22  C3  UNK     1      18.472  -0.639  35.662  1.00  0.00     0.268 C 
HETATM   23  C8  UNK     1      19.551  -1.673  35.382  1.00  0.00     0.037 C 
ENDBRANCH  21  22
BRANCH  21  24
HETATM   24  C4  UNK     1      19.035   1.671  36.002  1.00  0.00     0.268 C 
HETATM   25  C9  UNK     1      17.953   1.688  37.068  1.00  0.00     0.037 C 
ENDBRANCH  21  24
ENDBRANCH  20  21
ENDBRANCH   3  20
BRANCH   6  26
HETATM   26  O2  UNK     1      18.449  -0.837  32.104  1.00  0.00    -0.360 OA
HETATM   27  H16 UNK     1      17.630  -1.181  31.708  1.00  0.00     0.217 HD
ENDBRANCH   6  26
TORSDOF 7
ENDMDL
MODEL 3
REMARK VINA RESULT:      -7.8     23.808     26.291
REMARK  7 active torsions:
REMARK  status: ('A' for Active; 'I' for Inactive)
REMARK    1  A    between atoms: C7_13  and  O2_3 
REMARK    2  A    between atoms: C13_19  and  O3_4 
REMARK    3  A    between atoms: C15_21  and  O3_4 
REMARK    4  A    between atoms: C1_7  and  N1_6 
REMARK    5  A    between atoms: C3_9  and  N1_6 
REMARK    6  A    between atoms: C4_10  and  N1_6 
REMARK    7  A    between atoms: C1_7  and  C2_8 
ROOT
HETATM    1  O1  UNK     1      13.644   9.568   9.310  1.00  0.00    -0.318 OA
HETATM    2  O4  UNK     1      13.599   5.578  10.178  1.00  0.00    -0.284 OA
HETATM    3  C2  UNK     1      15.977   9.691   9.667  1.00  0.00     0.038 A 
HETATM    4  C5  UNK     1      14.812   8.925   9.643  1.00  0.00     0.100 A 
HETATM    5  C6  UNK     1      14.863   7.563   9.951  1.00  0.00     0.051 A 
HETATM    6  C7  UNK     1      17.193   9.091   9.999  1.00  0.00     0.076 A 
HETATM    7  C10 UNK     1      16.079   6.962  10.283  1.00  0.00     0.021 A 
HETATM    8  C11 UNK     1      17.243   7.730  10.305  1.00  0.00     0.038 A 
HETATM    9  C12 UNK     1      13.617   6.773   9.920  1.00  0.00     0.220 A 
HETATM   10  C13 UNK     1      12.390   7.516   9.556  1.00  0.00     0.149 A 
HETATM   11  C14 UNK     1      12.492   8.821   9.286  1.00  0.00     0.184 A 
ENDROOT
BRANCH  10  12
HETATM   12  O3  UNK     1      11.188   6.851   9.504  1.00  0.00    -0.303 OA
BRANCH  12  13
HETATM   13  C15 UNK     1      10.652   6.632   8.265  1.00  0.00     0.093 A 
HETATM   14  C16 UNK     1       9.285   6.757   8.035  1.00  0.00     0.044 A 
HETATM   15 Br1  UNK     1       8.091   7.238   9.426  1.00  0.00    -0.048 Br
HETATM   16  C18 UNK     1       8.772   6.526   6.758  1.00  0.00     0.022 A 
HETATM   17  C20 UNK     1       9.628   6.170   5.716  1.00  0.00     0.002 A 
HETATM   18  C19 UNK     1      10.997   6.046   5.950  1.00  0.00     0.003 A 
HETATM   19  C17 UNK     1      11.511   6.277   7.227  1.00  0.00     0.039 A 
ENDBRANCH  12  13
ENDBRANCH  10  12
BRANCH   3  20
HETATM   20  C1  UNK     1      15.933  11.149   9.339  1.00  0.00     0.316 C 
BRANCH  20  21
HETATM   21  N1  UNK     1      16.447  11.426   8.024  1.00  0.00     0.092 N 
BRANCH  21  22
HETATM   22  C3  UNK     1      17.563  12.382   8.078  1.00  0.00     0.268 C 
HETATM   23  C8  UNK     1      18.746  11.893   7.258  1.00  0.00     0.037 C 
ENDBRANCH  21  22
BRANCH  21  24
HETATM   24  C4  UNK     1      15.396  11.947   7.138  1.00  0.00     0.268 C 
HETATM   25  C9  UNK     1      15.328  13.463   7.199  1.00  0.00     0.037 C 
ENDBRANCH  21  24
ENDBRANCH  20  21
ENDBRANCH   3  20
BRANCH   6  26
HETATM   26  O2  UNK     1      18.344   9.819  10.027  1.00  0.00    -0.360 OA
HETATM   27  H16 UNK     1      18.154  10.727   9.733  1.00  0.00     0.217 HD
ENDBRANCH   6  26
TORSDOF 7
ENDMDL
MODEL 4
REMARK VINA RESULT:      -7.7     23.610     25.845
REMARK  7 active torsions:
REMARK  status: ('A' for Active; 'I' for Inactive)
REMARK    1  A    between atoms: C7_13  and  O2_3 
REMARK    2  A    between atoms: C13_19  and  O3_4 
REMARK    3  A    between atoms: C15_21  and  O3_4 
REMARK    4  A    between atoms: C1_7  and  N1_6 
REMARK    5  A    between atoms: C3_9  and  N1_6 
REMARK    6  A    between atoms: C4_10  and  N1_6 
REMARK    7  A    between atoms: C1_7  and  C2_8 
ROOT
HETATM    1  O1  UNK     1      10.354   8.306   9.455  1.00  0.00    -0.318 OA
HETATM    2  O4  UNK     1       7.417   6.289   7.459  1.00  0.00    -0.284 OA
HETATM    3  C2  UNK     1      12.010   7.502   7.972  1.00  0.00     0.038 A 
HETATM    4  C5  UNK     1      10.670   7.544   8.355  1.00  0.00     0.100 A 
HETATM    5  C6  UNK     1       9.712   6.831   7.631  1.00  0.00     0.051 A 
HETATM    6  C7  UNK     1      12.390   6.744   6.863  1.00  0.00     0.076 A 
HETATM    7  C10 UNK     1      10.090   6.073   6.520  1.00  0.00     0.021 A 
HETATM    8  C11 UNK     1      11.432   6.033   6.139  1.00  0.00     0.038 A 
HETATM    9  C12 UNK     1       8.300   6.890   8.055  1.00  0.00     0.220 A 
HETATM   10  C13 UNK     1       8.017   7.724   9.244  1.00  0.00     0.149 A 
HETATM   11  C14 UNK     1       9.036   8.351   9.839  1.00  0.00     0.184 A 
ENDROOT
BRANCH  10  12
HETATM   12  O3  UNK     1       6.726   7.831   9.703  1.00  0.00    -0.303 OA
BRANCH  12  13
HETATM   13  C15 UNK     1       6.428   7.198  10.878  1.00  0.00     0.093 A 
HETATM   14  C16 UNK     1       6.191   7.915  12.047  1.00  0.00     0.044 A 
HETATM   15 Br1  UNK     1       6.267   9.809  12.075  1.00  0.00    -0.048 Br
HETATM   16  C18 UNK     1       5.890   7.237  13.229  1.00  0.00     0.022 A 
HETATM   17  C20 UNK     1       5.828   5.843  13.237  1.00  0.00     0.002 A 
HETATM   18  C19 UNK     1       6.066   5.128  12.064  1.00  0.00     0.003 A 
HETATM   19  C17 UNK     1       6.367   5.806  10.882  1.00  0.00     0.039 A 
ENDBRANCH  12  13
ENDBRANCH  10  12
BRANCH   3  20
HETATM   20  C1  UNK     1      13.043   8.262   8.741  1.00  0.00     0.316 C 
BRANCH  20  21
HETATM   21  N1  UNK     1      13.407   7.598   9.965  1.00  0.00     0.092 N 
BRANCH  21  22
HETATM   22  C3  UNK     1      13.576   8.560  11.064  1.00  0.00     0.268 C 
HETATM   23  C8  UNK     1      15.043   8.731  11.423  1.00  0.00     0.037 C 
ENDBRANCH  21  22
BRANCH  21  24
HETATM   24  C4  UNK     1      14.641   6.816   9.801  1.00  0.00     0.268 C 
HETATM   25  C9  UNK     1      14.362   5.326   9.883  1.00  0.00     0.037 C 
ENDBRANCH  21  24
ENDBRANCH  20  21
ENDBRANCH   3  20
BRANCH   6  26
HETATM   26  O2  UNK     1      13.693   6.690   6.470  1.00  0.00    -0.360 OA
HETATM   27  H16 UNK     1      13.799   7.199   5.648  1.00  0.00     0.217 HD
ENDBRANCH   6  26
TORSDOF 7
ENDMDL
MODEL 5
REMARK VINA RESULT:      -7.6     23.877     25.842
REMARK  7 active torsions:
REMARK  status: ('A' for Active; 'I' for Inactive)
REMARK    1  A    between atoms: C7_13  and  O2_3 
REMARK    2  A    between atoms: C13_19  and  O3_4 
REMARK    3  A    between atoms: C15_21  and  O3_4 
REMARK    4  A    between atoms: C1_7  and  N1_6 
REMARK    5  A    between atoms: C3_9  and  N1_6 
REMARK    6  A    between atoms: C4_10  and  N1_6 
REMARK    7  A    between atoms: C1_7  and  C2_8 
ROOT
HETATM    1  O1  UNK     1      10.447   4.836   9.608  1.00  0.00    -0.318 OA
HETATM    2  O4  UNK     1       7.295   6.292   7.459  1.00  0.00    -0.284 OA
HETATM    3  C2  UNK     1      11.995   5.636   8.012  1.00  0.00     0.038 A 
HETATM    4  C5  UNK     1      10.670   5.496   8.423  1.00  0.00     0.100 A 
HETATM    5  C6  UNK     1       9.636   6.017   7.643  1.00  0.00     0.051 A 
HETATM    6  C7  UNK     1      12.282   6.297   6.816  1.00  0.00     0.076 A 
HETATM    7  C10 UNK     1       9.921   6.679   6.447  1.00  0.00     0.021 A 
HETATM    8  C11 UNK     1      11.248   6.818   6.037  1.00  0.00     0.038 A 
HETATM    9  C12 UNK     1       8.242   5.856   8.098  1.00  0.00     0.220 A 
HETATM   10  C13 UNK     1       8.059   5.137   9.379  1.00  0.00     0.149 A 
HETATM   11  C14 UNK     1       9.144   4.693  10.019  1.00  0.00     0.184 A 
ENDROOT
BRANCH  10  12
HETATM   12  O3  UNK     1       6.790   4.947   9.873  1.00  0.00    -0.303 OA
BRANCH  12  13
HETATM   13  C15 UNK     1       6.440   5.667  10.982  1.00  0.00     0.093 A 
HETATM   14  C16 UNK     1       5.858   5.054  12.088  1.00  0.00     0.044 A 
HETATM   15 Br1  UNK     1       5.520   3.190  12.119  1.00  0.00    -0.048 Br
HETATM   16  C18 UNK     1       5.514   5.819  13.203  1.00  0.00     0.022 A 
HETATM   17  C20 UNK     1       5.753   7.194  13.207  1.00  0.00     0.002 A 
HETATM   18  C19 UNK     1       6.336   7.803  12.098  1.00  0.00     0.003 A 
HETATM   19  C17 UNK     1       6.681   7.039  10.982  1.00  0.00     0.039 A 
ENDBRANCH  12  13
ENDBRANCH  10  12
BRANCH   3  20
HETATM   20  C1  UNK     1      13.109   5.082   8.841  1.00  0.00     0.316 C 
BRANCH  20  21
HETATM   21  N1  UNK     1      13.996   6.111   9.315  1.00  0.00     0.092 N 
BRANCH  21  22
HETATM   22  C3  UNK     1      15.106   5.541  10.094  1.00  0.00     0.268 C 
HETATM   23  C8  UNK     1      16.406   6.279   9.816  1.00  0.00     0.037 C 
ENDBRANCH  21  22
BRANCH  21  24
HETATM   24  C4  UNK     1      13.278   7.099  10.134  1.00  0.00     0.268 C 
HETATM   25  C9  UNK     1      13.474   8.505   9.594  1.00  0.00     0.037 C 
ENDBRANCH  21  24
ENDBRANCH  20  21
ENDBRANCH   3  20
BRANCH   6  26
HETATM   26  O2  UNK     1      13.569   6.447   6.395  1.00  0.00    -0.360 OA
HETATM   27  H16 UNK     1      14.130   6.673   7.157  1.00  0.00     0.217 HD
ENDBRANCH   6  26
TORSDOF 7
ENDMDL
MODEL 6
REMARK VINA RESULT:      -7.5      5.220      9.784
REMARK  7 active torsions:
REMARK  status: ('A' for Active; 'I' for Inactive)
REMARK    1  A    between atoms: C7_13  and  O2_3 
REMARK    2  A    between atoms: C13_19  and  O3_4 
REMARK    3  A    between atoms: C15_21  and  O3_4 
REMARK    4  A    between atoms: C1_7  and  N1_6 
REMARK    5  A    between atoms: C3_9  and  N1_6 
REMARK    6  A    between atoms: C4_10  and  N1_6 
REMARK    7  A    between atoms: C1_7  and  C2_8 
ROOT
HETATM    1  O1  UNK     1      19.800  -2.460  33.880  1.00  0.00    -0.318 OA
HETATM    2  O4  UNK     1      19.598  -2.223  37.951  1.00  0.00    -0.284 OA
HETATM    3  C2  UNK     1      18.565  -0.460  33.633  1.00  0.00     0.038 A 
HETATM    4  C5  UNK     1      19.142  -1.410  34.475  1.00  0.00     0.100 A 
HETATM    5  C6  UNK     1      19.038  -1.273  35.861  1.00  0.00     0.051 A 
HETATM    6  C7  UNK     1      17.884   0.628  34.181  1.00  0.00     0.076 A 
HETATM    7  C10 UNK     1      18.356  -0.184  36.411  1.00  0.00     0.021 A 
HETATM    8  C11 UNK     1      17.781   0.765  35.566  1.00  0.00     0.038 A 
HETATM    9  C12 UNK     1      19.655  -2.291  36.732  1.00  0.00     0.220 A 
HETATM   10  C13 UNK     1      20.350  -3.399  36.039  1.00  0.00     0.149 A 
HETATM   11  C14 UNK     1      20.369  -3.401  34.703  1.00  0.00     0.184 A 
ENDROOT
BRANCH  10  12
HETATM   12  O3  UNK     1      20.952  -4.388  36.779  1.00  0.00    -0.303 OA
BRANCH  12  13
HETATM   13  C15 UNK     1      20.183  -5.468  37.117  1.00  0.00     0.093 A 
HETATM   14  C16 UNK     1      20.645  -6.438  38.001  1.00  0.00     0.044 A 
HETATM   15 Br1  UNK     1      22.365  -6.315  38.787  1.00  0.00    -0.048 Br
HETATM   16  C18 UNK     1      19.834  -7.526  38.324  1.00  0.00     0.022 A 
HETATM   17  C20 UNK     1      18.563  -7.641  37.759  1.00  0.00     0.002 A 
HETATM   18  C19 UNK     1      18.103  -6.667  36.874  1.00  0.00     0.003 A 
HETATM   19  C17 UNK     1      18.914  -5.578  36.552  1.00  0.00     0.039 A 
ENDBRANCH  12  13
ENDBRANCH  10  12
BRANCH   3  20
HETATM   20  C1  UNK     1      18.672  -0.598  32.148  1.00  0.00     0.316 C 
BRANCH  20  21
HETATM   21  N1  UNK     1      19.731   0.209  31.601  1.00  0.00     0.092 N 
BRANCH  21  22
HETATM   22  C3  UNK     1      19.197   1.313  30.790  1.00  0.00     0.268 C 
HETATM   23  C8  UNK     1      19.211   0.964  29.311  1.00  0.00     0.037 C 
ENDBRANCH  21  22
BRANCH  21  24
HETATM   24  C4  UNK     1      20.652  -0.599  30.788  1.00  0.00     0.268 C 
HETATM   25  C9  UNK     1      20.200  -2.047  30.721  1.00  0.00     0.037 C 
ENDBRANCH  21  24
ENDBRANCH  20  21
ENDBRANCH   3  20
BRANCH   6  26
HETATM   26  O2  UNK     1      17.314   1.570  33.378  1.00  0.00    -0.360 OA
HETATM   27  H16 UNK     1      17.799   1.605  32.535  1.00  0.00     0.217 HD
ENDBRANCH   6  26
TORSDOF 7
ENDMDL
MODEL 7
REMARK VINA RESULT:      -7.5      1.839      2.629
REMARK  7 active torsions:
REMARK  status: ('A' for Active; 'I' for Inactive)
REMARK    1  A    between atoms: C7_13  and  O2_3 
REMARK    2  A    between atoms: C13_19  and  O3_4 
REMARK    3  A    between atoms: C15_21  and  O3_4 
REMARK    4  A    between atoms: C1_7  and  N1_6 
REMARK    5  A    between atoms: C3_9  and  N1_6 
REMARK    6  A    between atoms: C4_10  and  N1_6 
REMARK    7  A    between atoms: C1_7  and  C2_8 
ROOT
HETATM    1  O1  UNK     1      18.699   1.022  32.645  1.00  0.00    -0.318 OA
HETATM    2  O4  UNK     1      18.652   2.997  29.072  1.00  0.00    -0.284 OA
HETATM    3  C2  UNK     1      19.608  -0.915  31.642  1.00  0.00     0.038 A 
HETATM    4  C5  UNK     1      19.149   0.395  31.508  1.00  0.00     0.100 A 
HETATM    5  C6  UNK     1      19.158   1.016  30.257  1.00  0.00     0.051 A 
HETATM    6  C7  UNK     1      20.077  -1.602  30.521  1.00  0.00     0.076 A 
HETATM    7  C10 UNK     1      19.627   0.330  29.134  1.00  0.00     0.021 A 
HETATM    8  C11 UNK     1      20.087  -0.981  29.271  1.00  0.00     0.038 A 
HETATM    9  C12 UNK     1      18.667   2.402  30.139  1.00  0.00     0.220 A 
HETATM   10  C13 UNK     1      18.194   3.028  31.394  1.00  0.00     0.149 A 
HETATM   11  C14 UNK     1      18.243   2.312  32.521  1.00  0.00     0.184 A 
ENDROOT
BRANCH  10  12
HETATM   12  O3  UNK     1      17.721   4.319  31.369  1.00  0.00    -0.303 OA
BRANCH  12  13
HETATM   13  C15 UNK     1      18.290   5.207  32.240  1.00  0.00     0.093 A 
HETATM   14  C16 UNK     1      19.390   5.977  31.872  1.00  0.00     0.044 A 
HETATM   15 Br1  UNK     1      20.157   5.839  30.145  1.00  0.00    -0.048 Br
HETATM   16  C18 UNK     1      19.945   6.874  32.785  1.00  0.00     0.022 A 
HETATM   17  C20 UNK     1      19.400   6.996  34.063  1.00  0.00     0.002 A 
HETATM   18  C19 UNK     1      18.299   6.223  34.428  1.00  0.00     0.003 A 
HETATM   19  C17 UNK     1      17.742   5.326  33.515  1.00  0.00     0.039 A 
ENDBRANCH  12  13
ENDBRANCH  10  12
BRANCH   3  20
HETATM   20  C1  UNK     1      19.603  -1.588  32.977  1.00  0.00     0.316 C 
BRANCH  20  21
HETATM   21  N1  UNK     1      18.738  -0.924  33.917  1.00  0.00     0.092 N 
BRANCH  21  22
HETATM   22  C3  UNK     1      19.202  -1.118  35.299  1.00  0.00     0.268 C 
HETATM   23  C8  UNK     1      20.053  -2.372  35.421  1.00  0.00     0.037 C 
ENDBRANCH  21  22
BRANCH  21  24
HETATM   24  C4  UNK     1      17.351  -1.396  33.792  1.00  0.00     0.268 C 
HETATM   25  C9  UNK     1      16.446  -0.710  34.800  1.00  0.00     0.037 C 
ENDBRANCH  21  24
ENDBRANCH  20  21
ENDBRANCH   3  20
BRANCH   6  26
HETATM   26  O2  UNK     1      20.532  -2.882  30.628  1.00  0.00    -0.360 OA
HETATM   27  H16 UNK     1      21.119  -2.947  31.402  1.00  0.00     0.217 HD
ENDBRANCH   6  26
TORSDOF 7
ENDMDL
MODEL 8
REMARK VINA RESULT:      -7.4      1.778      3.515
REMARK  7 active torsions:
REMARK  status: ('A' for Active; 'I' for Inactive)
REMARK    1  A    between atoms: C7_13  and  O2_3 
REMARK    2  A    between atoms: C13_19  and  O3_4 
REMARK    3  A    between atoms: C15_21  and  O3_4 
REMARK    4  A    between atoms: C1_7  and  N1_6 
REMARK    5  A    between atoms: C3_9  and  N1_6 
REMARK    6  A    between atoms: C4_10  and  N1_6 
REMARK    7  A    between atoms: C1_7  and  C2_8 
ROOT
HETATM    1  O1  UNK     1      18.535   1.297  31.534  1.00  0.00    -0.318 OA
HETATM    2  O4  UNK     1      17.979   4.319  34.224  1.00  0.00    -0.284 OA
HETATM    3  C2  UNK     1      18.610  -0.317  33.258  1.00  0.00     0.038 A 
HETATM    4  C5  UNK     1      18.475   1.018  32.878  1.00  0.00     0.100 A 
HETATM    5  C6  UNK     1      18.287   2.006  33.848  1.00  0.00     0.051 A 
HETATM    6  C7  UNK     1      18.557  -0.661  34.610  1.00  0.00     0.076 A 
HETATM    7  C10 UNK     1      18.233   1.663  35.201  1.00  0.00     0.021 A 
HETATM    8  C11 UNK     1      18.368   0.327  35.578  1.00  0.00     0.038 A 
HETATM    9  C12 UNK     1      18.147   3.411  33.422  1.00  0.00     0.220 A 
HETATM   10  C13 UNK     1      18.220   3.656  31.964  1.00  0.00     0.149 A 
HETATM   11  C14 UNK     1      18.404   2.610  31.153  1.00  0.00     0.184 A 
ENDROOT
BRANCH  10  12
HETATM   12  O3  UNK     1      18.098   4.939  31.487  1.00  0.00    -0.303 OA
BRANCH  12  13
HETATM   13  C15 UNK     1      18.713   5.930  32.202  1.00  0.00     0.093 A 
HETATM   14  C16 UNK     1      17.983   6.962  32.784  1.00  0.00     0.044 A 
HETATM   15 Br1  UNK     1      16.097   7.051  32.619  1.00  0.00    -0.048 Br
HETATM   16  C18 UNK     1      18.643   7.956  33.507  1.00  0.00     0.022 A 
HETATM   17  C20 UNK     1      20.031   7.915  33.644  1.00  0.00     0.002 A 
HETATM   18  C19 UNK     1      20.758   6.879  33.060  1.00  0.00     0.003 A 
HETATM   19  C17 UNK     1      20.099   5.884  32.337  1.00  0.00     0.039 A 
ENDBRANCH  12  13
ENDBRANCH  10  12
BRANCH   3  20
HETATM   20  C1  UNK     1      18.811  -1.382  32.228  1.00  0.00     0.316 C 
BRANCH  20  21
HETATM   21  N1  UNK     1      20.183  -1.477  31.806  1.00  0.00     0.092 N 
BRANCH  21  22
HETATM   22  C3  UNK     1      20.280  -1.763  30.366  1.00  0.00     0.268 C 
HETATM   23  C8  UNK     1      20.710  -0.529  29.590  1.00  0.00     0.037 C 
ENDBRANCH  21  22
BRANCH  21  24
HETATM   24  C4  UNK     1      20.904  -2.512  32.562  1.00  0.00     0.268 C 
HETATM   25  C9  UNK     1      21.254  -3.695  31.676  1.00  0.00     0.037 C 
ENDBRANCH  21  24
ENDBRANCH  20  21
ENDBRANCH   3  20
BRANCH   6  26
HETATM   26  O2  UNK     1      18.685  -1.959  35.004  1.00  0.00    -0.360 OA
HETATM   27  H16 UNK     1      18.528  -2.541  34.240  1.00  0.00     0.217 HD
ENDBRANCH   6  26
TORSDOF 7
ENDMDL
MODEL 9
REMARK VINA RESULT:      -7.4      3.007      6.863
REMARK  7 active torsions:
REMARK  status: ('A' for Active; 'I' for Inactive)
REMARK    1  A    between atoms: C7_13  and  O2_3 
REMARK    2  A    between atoms: C13_19  and  O3_4 
REMARK    3  A    between atoms: C15_21  and  O3_4 
REMARK    4  A    between atoms: C1_7  and  N1_6 
REMARK    5  A    between atoms: C3_9  and  N1_6 
REMARK    6  A    between atoms: C4_10  and  N1_6 
REMARK    7  A    between atoms: C1_7  and  C2_8 
ROOT
HETATM    1  O1  UNK     1      18.227   3.601  33.405  1.00  0.00    -0.318 OA
HETATM    2  O4  UNK     1      18.706   0.306  31.041  1.00  0.00    -0.284 OA
HETATM    3  C2  UNK     1      18.457   5.050  31.552  1.00  0.00     0.038 A 
HETATM    4  C5  UNK     1      18.428   3.749  32.053  1.00  0.00     0.100 A 
HETATM    5  C6  UNK     1      18.598   2.663  31.192  1.00  0.00     0.051 A 
HETATM    6  C7  UNK     1      18.658   5.261  30.186  1.00  0.00     0.076 A 
HETATM    7  C10 UNK     1      18.799   2.872  29.826  1.00  0.00     0.021 A 
HETATM    8  C11 UNK     1      18.827   4.175  29.326  1.00  0.00     0.038 A 
HETATM    9  C12 UNK     1      18.564   1.295  31.745  1.00  0.00     0.220 A 
HETATM   10  C13 UNK     1      18.346   1.194  33.206  1.00  0.00     0.149 A 
HETATM   11  C14 UNK     1      18.199   2.323  33.906  1.00  0.00     0.184 A 
ENDROOT
BRANCH  10  12
HETATM   12  O3  UNK     1      18.300  -0.045  33.799  1.00  0.00    -0.303 OA
BRANCH  12  13
HETATM   13  C15 UNK     1      17.906  -0.094  35.107  1.00  0.00     0.093 A 
HETATM   14  C16 UNK     1      18.585  -0.873  36.039  1.00  0.00     0.044 A 
HETATM   15 Br1  UNK     1      20.094  -1.908  35.547  1.00  0.00    -0.048 Br
HETATM   16  C18 UNK     1      18.155  -0.900  37.366  1.00  0.00     0.022 A 
HETATM   17  C20 UNK     1      17.046  -0.147  37.756  1.00  0.00     0.002 A 
HETATM   18  C19 UNK     1      16.369   0.633  36.820  1.00  0.00     0.003 A 
HETATM   19  C17 UNK     1      16.799   0.660  35.492  1.00  0.00     0.039 A 
ENDBRANCH  12  13
ENDBRANCH  10  12
BRANCH   3  20
HETATM   20  C1  UNK     1      18.276   6.219  32.466  1.00  0.00     0.316 C 
BRANCH  20  21
HETATM   21  N1  UNK     1      16.903   6.394  32.858  1.00  0.00     0.092 N 
BRANCH  21  22
HETATM   22  C3  UNK     1      16.220   7.369  31.994  1.00  0.00     0.268 C 
HETATM   23  C8  UNK     1      14.718   7.136  31.984  1.00  0.00     0.037 C 
ENDBRANCH  21  22
BRANCH  21  24
HETATM   24  C4  UNK     1      16.798   6.822  34.261  1.00  0.00     0.268 C 
HETATM   25  C9  UNK     1      17.990   7.673  34.665  1.00  0.00     0.037 C 
ENDBRANCH  21  24
ENDBRANCH  20  21
ENDBRANCH   3  20
BRANCH   6  26
HETATM   26  O2  UNK     1      18.689   6.523  29.674  1.00  0.00    -0.360 OA
HETATM   27  H16 UNK     1      19.614   6.779  29.515  1.00  0.00     0.217 HD
ENDBRANCH   6  26
TORSDOF 7
ENDMDL
MODEL 10
REMARK VINA RESULT:      -7.3     24.488     25.955
REMARK  7 active torsions:
REMARK  status: ('A' for Active; 'I' for Inactive)
REMARK    1  A    between atoms: C7_13  and  O2_3 
REMARK    2  A    between atoms: C13_19  and  O3_4 
REMARK    3  A    between atoms: C15_21  and  O3_4 
REMARK    4  A    between atoms: C1_7  and  N1_6 
REMARK    5  A    between atoms: C3_9  and  N1_6 
REMARK    6  A    between atoms: C4_10  and  N1_6 
REMARK    7  A    between atoms: C1_7  and  C2_8 
ROOT
HETATM    1  O1  UNK     1      11.171   7.617   9.685  1.00  0.00    -0.318 OA
HETATM    2  O4  UNK     1      13.591   6.717   6.522  1.00  0.00    -0.284 OA
HETATM    3  C2  UNK     1       9.227   7.259   8.389  1.00  0.00     0.038 A 
HETATM    4  C5  UNK     1      10.619   7.278   8.473  1.00  0.00     0.100 A 
HETATM    5  C6  UNK     1      11.392   6.960   7.354  1.00  0.00     0.051 A 
HETATM    6  C7  UNK     1       8.610   6.921   7.183  1.00  0.00     0.076 A 
HETATM    7  C10 UNK     1      10.777   6.621   6.146  1.00  0.00     0.021 A 
HETATM    8  C11 UNK     1       9.384   6.602   6.065  1.00  0.00     0.038 A 
HETATM    9  C12 UNK     1      12.863   6.987   7.466  1.00  0.00     0.220 A 
HETATM   10  C13 UNK     1      13.403   7.360   8.792  1.00  0.00     0.149 A 
HETATM   11  C14 UNK     1      12.541   7.640   9.774  1.00  0.00     0.184 A 
ENDROOT
BRANCH  10  12
HETATM   12  O3  UNK     1      14.764   7.408   8.979  1.00  0.00    -0.303 OA
BRANCH  12  13
HETATM   13  C15 UNK     1      15.340   8.647   9.041  1.00  0.00     0.093 A 
HETATM   14  C16 UNK     1      16.522   8.861   9.744  1.00  0.00     0.044 A 
HETATM   15 Br1  UNK     1      17.399   7.449  10.653  1.00  0.00    -0.048 Br
HETATM   16  C18 UNK     1      17.082  10.139   9.786  1.00  0.00     0.022 A 
HETATM   17  C20 UNK     1      16.457  11.197   9.125  1.00  0.00     0.002 A 
HETATM   18  C19 UNK     1      15.274  10.978   8.422  1.00  0.00     0.003 A 
HETATM   19  C17 UNK     1      14.713   9.701   8.379  1.00  0.00     0.039 A 
ENDBRANCH  12  13
ENDBRANCH  10  12
BRANCH   3  20
HETATM   20  C1  UNK     1       8.391   7.597   9.582  1.00  0.00     0.316 C 
BRANCH  20  21
HETATM   21  N1  UNK     1       7.460   6.550   9.908  1.00  0.00     0.092 N 
BRANCH  21  22
HETATM   22  C3  UNK     1       6.585   6.941  11.023  1.00  0.00     0.268 C 
HETATM   23  C8  UNK     1       5.609   8.027  10.600  1.00  0.00     0.037 C 
ENDBRANCH  21  22
BRANCH  21  24
HETATM   24  C4  UNK     1       8.158   5.301  10.245  1.00  0.00     0.268 C 
HETATM   25  C9  UNK     1       7.379   4.089   9.765  1.00  0.00     0.037 C 
ENDBRANCH  21  24
ENDBRANCH  20  21
ENDBRANCH   3  20
BRANCH   6  26
HETATM   26  O2  UNK     1       7.252   6.894   7.078  1.00  0.00    -0.360 OA
HETATM   27  H16 UNK     1       6.962   5.977   6.936  1.00  0.00     0.217 HD
ENDBRANCH   6  26
TORSDOF 7
ENDMDL
