MODEL 1
REMARK VINA RESULT:      -8.6      0.000      0.000
REMARK  7 active torsions:
REMARK  status: ('A' for Active; 'I' for Inactive)
REMARK    1  A    between atoms: C16_23  and  O3_3 
REMARK    2  A    between atoms: C23_30  and  O3_3 
REMARK    3  A    between atoms: C5_12  and  N1_5 
REMARK    4  A    between atoms: C6_13  and  N2_6 
REMARK    5  A    between atoms: C15_22  and  N3_7 
REMARK       I    between atoms: C8_15  and  N3_7 
REMARK    6  A    between atoms: C5_12  and  C7_14 
REMARK    7  A    between atoms: C6_13  and  C8_15 
ROOT
HETATM    1  N1  UNK     1      18.659   2.952  30.987  1.00  0.00     0.096 N 
HETATM    2  N2  UNK     1      18.526   5.737  31.749  1.00  0.00     0.100 N 
HETATM    3  C1  UNK     1      17.818   3.398  32.105  1.00  0.00     0.303 C 
HETATM    4  C2  UNK     1      18.799   4.022  29.992  1.00  0.00     0.303 C 
HETATM    5  C3  UNK     1      18.388   4.668  32.746  1.00  0.00     0.303 C 
HETATM    6  C4  UNK     1      19.369   5.293  30.632  1.00  0.00     0.303 C 
ENDROOT
BRANCH   1   7
HETATM    7  C5  UNK     1      18.112   1.743  30.376  1.00  0.00     0.312 C 
BRANCH   7   8
HETATM    8  C7  UNK     1      19.106   0.633  30.338  1.00  0.00    -0.011 A 
HETATM    9  C10 UNK     1      19.855   0.411  29.249  1.00  0.00     0.092 A 
HETATM   10  C13 UNK     1      20.848  -0.672  29.165  1.00  0.00     0.288 A 
HETATM   11  O1  UNK     1      20.987  -1.479  30.284  1.00  0.00    -0.275 OA
HETATM   12  O4  UNK     1      21.517  -0.845  28.152  1.00  0.00    -0.260 OA
HETATM   13  C11 UNK     1      20.213  -1.271  31.443  1.00  0.00     0.090 A 
HETATM   14  C9  UNK     1      19.274  -0.240  31.508  1.00  0.00     0.009 A 
HETATM   15  C14 UNK     1      20.436  -2.145  32.508  1.00  0.00     0.041 A 
HETATM   16  C12 UNK     1      18.544  -0.101  32.696  1.00  0.00     0.051 A 
HETATM   17  C16 UNK     1      18.756  -0.969  33.773  1.00  0.00     0.069 A 
HETATM   18  C18 UNK     1      19.701  -1.990  33.679  1.00  0.00     0.039 A 
BRANCH  17  19
HETATM   19  O3  UNK     1      18.035  -0.817  34.918  1.00  0.00    -0.351 OA
BRANCH  19  20
HETATM   20  C23 UNK     1      17.341   0.418  35.088  1.00  0.00     0.171 C 
HETATM   21  C25 UNK     1      15.865   0.134  35.265  1.00  0.00     0.034 C 
ENDBRANCH  19  20
ENDBRANCH  17  19
ENDBRANCH   7   8
ENDBRANCH   1   7
BRANCH   2  22
HETATM   22  C6  UNK     1      19.072   6.947  32.361  1.00  0.00     0.375 C 
BRANCH  22  23
HETATM   23  C8  UNK     1      17.941   7.931  32.637  1.00  0.00     0.252 C 
HETATM   24  O2  UNK     1      17.167   8.247  31.730  1.00  0.00    -0.271 OA
HETATM   25  N3  UNK     1      17.893   8.449  33.953  1.00  0.00    -0.321 N 
HETATM   26  C17 UNK     1      18.845   8.033  34.993  1.00  0.00     0.159 C 
BRANCH  25  27
HETATM   27  C15 UNK     1      16.962   9.500  34.311  1.00  0.00     0.036 A 
HETATM   28  C19 UNK     1      17.330  10.838  34.164  1.00  0.00     0.029 A 
HETATM   29  C21 UNK     1      16.433  11.850  34.508  1.00  0.00     0.002 A 
HETATM   30  C24 UNK     1      15.170  11.524  35.000  1.00  0.00     0.000 A 
HETATM   31  C22 UNK     1      14.802  10.187  35.148  1.00  0.00     0.002 A 
HETATM   32  C20 UNK     1      15.698   9.175  34.804  1.00  0.00     0.029 A 
ENDBRANCH  25  27
ENDBRANCH  22  23
ENDBRANCH   2  22
TORSDOF 7
ENDMDL
MODEL 2
REMARK VINA RESULT:      -8.5     13.639     17.450
REMARK  7 active torsions:
REMARK  status: ('A' for Active; 'I' for Inactive)
REMARK    1  A    between atoms: C16_23  and  O3_3 
REMARK    2  A    between atoms: C23_30  and  O3_3 
REMARK    3  A    between atoms: C5_12  and  N1_5 
REMARK    4  A    between atoms: C6_13  and  N2_6 
REMARK    5  A    between atoms: C15_22  and  N3_7 
REMARK       I    between atoms: C8_15  and  N3_7 
REMARK    6  A    between atoms: C5_12  and  C7_14 
REMARK    7  A    between atoms: C6_13  and  C8_15 
ROOT
HETATM    1  N1  UNK     1      26.777  -9.311  37.594  1.00  0.00     0.096 N 
HETATM    2  N2  UNK     1      29.593  -8.930  38.127  1.00  0.00     0.100 N 
HETATM    3  C1  UNK     1      27.323  -9.449  38.951  1.00  0.00     0.303 C 
HETATM    4  C2  UNK     1      27.579  -8.361  36.813  1.00  0.00     0.303 C 
HETATM    5  C3  UNK     1      28.792  -9.881  38.907  1.00  0.00     0.303 C 
HETATM    6  C4  UNK     1      29.049  -8.793  36.770  1.00  0.00     0.303 C 
ENDROOT
BRANCH   1   7
HETATM    7  C5  UNK     1      25.377  -8.897  37.638  1.00  0.00     0.312 C 
BRANCH   7   8
HETATM    8  C7  UNK     1      24.498  -9.801  36.844  1.00  0.00    -0.011 A 
HETATM    9  C10 UNK     1      24.962 -10.957  36.347  1.00  0.00     0.092 A 
HETATM   10  C13 UNK     1      24.131 -11.881  35.558  1.00  0.00     0.288 A 
HETATM   11  O1  UNK     1      22.815 -11.506  35.339  1.00  0.00    -0.275 OA
HETATM   12  O4  UNK     1      24.590 -12.931  35.118  1.00  0.00    -0.260 OA
HETATM   13  C11 UNK     1      22.300 -10.297  35.849  1.00  0.00     0.090 A 
HETATM   14  C9  UNK     1      23.099  -9.430  36.595  1.00  0.00     0.009 A 
HETATM   15  C14 UNK     1      20.960 -10.021  35.565  1.00  0.00     0.041 A 
HETATM   16  C12 UNK     1      22.511  -8.247  37.064  1.00  0.00     0.051 A 
HETATM   17  C16 UNK     1      21.170  -7.956  36.789  1.00  0.00     0.069 A 
HETATM   18  C18 UNK     1      20.395  -8.842  36.040  1.00  0.00     0.039 A 
BRANCH  17  19
HETATM   19  O3  UNK     1      20.618  -6.801  37.254  1.00  0.00    -0.351 OA
BRANCH  19  20
HETATM   20  C23 UNK     1      20.846  -6.479  38.625  1.00  0.00     0.171 C 
HETATM   21  C25 UNK     1      20.006  -7.392  39.492  1.00  0.00     0.034 C 
ENDBRANCH  19  20
ENDBRANCH  17  19
ENDBRANCH   7   8
ENDBRANCH   1   7
BRANCH   2  22
HETATM   22  C6  UNK     1      30.994  -9.343  38.086  1.00  0.00     0.375 C 
BRANCH  22  23
HETATM   23  C8  UNK     1      31.874  -8.131  37.807  1.00  0.00     0.252 C 
HETATM   24  O2  UNK     1      31.914  -7.202  38.617  1.00  0.00    -0.271 OA
HETATM   25  N3  UNK     1      32.572  -8.156  36.577  1.00  0.00    -0.321 N 
HETATM   26  C17 UNK     1      32.484  -9.294  35.650  1.00  0.00     0.159 C 
BRANCH  25  27
HETATM   27  C15 UNK     1      33.328  -7.007  36.120  1.00  0.00     0.036 A 
HETATM   28  C19 UNK     1      34.667  -6.863  36.484  1.00  0.00     0.029 A 
HETATM   29  C21 UNK     1      35.394  -5.758  36.044  1.00  0.00     0.002 A 
HETATM   30  C24 UNK     1      34.783  -4.796  35.240  1.00  0.00     0.000 A 
HETATM   31  C22 UNK     1      33.444  -4.939  34.877  1.00  0.00     0.002 A 
HETATM   32  C20 UNK     1      32.717  -6.044  35.316  1.00  0.00     0.029 A 
ENDBRANCH  25  27
ENDBRANCH  22  23
ENDBRANCH   2  22
TORSDOF 7
ENDMDL
MODEL 3
REMARK VINA RESULT:      -8.5     10.355     15.801
REMARK  7 active torsions:
REMARK  status: ('A' for Active; 'I' for Inactive)
REMARK    1  A    between atoms: C16_23  and  O3_3 
REMARK    2  A    between atoms: C23_30  and  O3_3 
REMARK    3  A    between atoms: C5_12  and  N1_5 
REMARK    4  A    between atoms: C6_13  and  N2_6 
REMARK    5  A    between atoms: C15_22  and  N3_7 
REMARK       I    between atoms: C8_15  and  N3_7 
REMARK    6  A    between atoms: C5_12  and  C7_14 
REMARK    7  A    between atoms: C6_13  and  C8_15 
ROOT
HETATM    1  N1  UNK     1      23.801  -9.325  37.195  1.00  0.00     0.096 N 
HETATM    2  N2  UNK     1      26.263  -8.352  38.356  1.00  0.00     0.100 N 
HETATM    3  C1  UNK     1      23.844  -8.064  37.945  1.00  0.00     0.303 C 
HETATM    4  C2  UNK     1      25.100  -9.591  36.563  1.00  0.00     0.303 C 
HETATM    5  C3  UNK     1      24.965  -8.088  38.990  1.00  0.00     0.303 C 
HETATM    6  C4  UNK     1      26.221  -9.614  37.607  1.00  0.00     0.303 C 
ENDROOT
BRANCH   1   7
HETATM    7  C5  UNK     1      22.734  -9.300  36.197  1.00  0.00     0.312 C 
BRANCH   7   8
HETATM    8  C7  UNK     1      21.382  -9.404  36.817  1.00  0.00    -0.011 A 
HETATM    9  C10 UNK     1      20.976 -10.538  37.406  1.00  0.00     0.092 A 
HETATM   10  C13 UNK     1      19.651 -10.687  38.030  1.00  0.00     0.288 A 
HETATM   11  O1  UNK     1      18.814  -9.583  37.989  1.00  0.00    -0.275 OA
HETATM   12  O4  UNK     1      19.313 -11.740  38.560  1.00  0.00    -0.260 OA
HETATM   13  C11 UNK     1      19.213  -8.378  37.376  1.00  0.00     0.090 A 
HETATM   14  C9  UNK     1      20.472  -8.251  36.787  1.00  0.00     0.009 A 
HETATM   15  C14 UNK     1      18.287  -7.333  37.392  1.00  0.00     0.041 A 
HETATM   16  C12 UNK     1      20.792  -7.021  36.198  1.00  0.00     0.051 A 
HETATM   17  C16 UNK     1      19.875  -5.963  36.206  1.00  0.00     0.069 A 
HETATM   18  C18 UNK     1      18.624  -6.119  36.802  1.00  0.00     0.039 A 
BRANCH  17  19
HETATM   19  O3  UNK     1      20.206  -4.776  35.628  1.00  0.00    -0.351 OA
BRANCH  19  20
HETATM   20  C23 UNK     1      19.839  -3.588  36.327  1.00  0.00     0.171 C 
HETATM   21  C25 UNK     1      20.473  -2.396  35.643  1.00  0.00     0.034 C 
ENDBRANCH  19  20
ENDBRANCH  17  19
ENDBRANCH   7   8
ENDBRANCH   1   7
BRANCH   2  22
HETATM   22  C6  UNK     1      27.331  -8.375  39.354  1.00  0.00     0.375 C 
BRANCH  22  23
HETATM   23  C8  UNK     1      28.293  -7.223  39.095  1.00  0.00     0.252 C 
HETATM   24  O2  UNK     1      28.003  -6.084  39.471  1.00  0.00    -0.271 OA
HETATM   25  N3  UNK     1      29.470  -7.560  38.386  1.00  0.00    -0.321 N 
HETATM   26  C17 UNK     1      29.762  -8.938  37.964  1.00  0.00     0.159 C 
BRANCH  25  27
HETATM   27  C15 UNK     1      30.399  -6.539  37.947  1.00  0.00     0.036 A 
HETATM   28  C19 UNK     1      31.501  -6.210  38.738  1.00  0.00     0.029 A 
HETATM   29  C21 UNK     1      32.395  -5.228  38.315  1.00  0.00     0.002 A 
HETATM   30  C24 UNK     1      32.189  -4.573  37.101  1.00  0.00     0.000 A 
HETATM   31  C22 UNK     1      31.087  -4.900  36.310  1.00  0.00     0.002 A 
HETATM   32  C20 UNK     1      30.193  -5.883  36.733  1.00  0.00     0.029 A 
ENDBRANCH  25  27
ENDBRANCH  22  23
ENDBRANCH   2  22
TORSDOF 7
ENDMDL
MODEL 4
REMARK VINA RESULT:      -8.3      7.135     13.979
REMARK  7 active torsions:
REMARK  status: ('A' for Active; 'I' for Inactive)
REMARK    1  A    between atoms: C16_23  and  O3_3 
REMARK    2  A    between atoms: C23_30  and  O3_3 
REMARK    3  A    between atoms: C5_12  and  N1_5 
REMARK    4  A    between atoms: C6_13  and  N2_6 
REMARK    5  A    between atoms: C15_22  and  N3_7 
REMARK       I    between atoms: C8_15  and  N3_7 
REMARK    6  A    between atoms: C5_12  and  C7_14 
REMARK    7  A    between atoms: C6_13  and  C8_15 
ROOT
HETATM    1  N1  UNK     1      20.169  -4.229  37.099  1.00  0.00     0.096 N 
HETATM    2  N2  UNK     1      20.249  -7.109  36.860  1.00  0.00     0.100 N 
HETATM    3  C1  UNK     1      21.251  -5.015  37.706  1.00  0.00     0.303 C 
HETATM    4  C2  UNK     1      19.646  -4.910  35.908  1.00  0.00     0.303 C 
HETATM    5  C3  UNK     1      20.770  -6.428  38.052  1.00  0.00     0.303 C 
HETATM    6  C4  UNK     1      19.166  -6.324  36.254  1.00  0.00     0.303 C 
ENDROOT
BRANCH   1   7
HETATM    7  C5  UNK     1      20.630  -2.882  36.767  1.00  0.00     0.312 C 
BRANCH   7   8
HETATM    8  C7  UNK     1      19.512  -1.997  36.331  1.00  0.00    -0.011 A 
HETATM    9  C10 UNK     1      18.646  -1.488  37.219  1.00  0.00     0.092 A 
HETATM   10  C13 UNK     1      17.528  -0.611  36.836  1.00  0.00     0.288 A 
HETATM   11  O1  UNK     1      17.397  -0.320  35.487  1.00  0.00    -0.275 OA
HETATM   12  O4  UNK     1      16.754  -0.163  37.675  1.00  0.00    -0.260 OA
HETATM   13  C11 UNK     1      18.292  -0.841  34.531  1.00  0.00     0.090 A 
HETATM   14  C9  UNK     1      19.347  -1.673  34.908  1.00  0.00     0.009 A 
HETATM   15  C14 UNK     1      18.063  -0.483  33.201  1.00  0.00     0.041 A 
HETATM   16  C12 UNK     1      20.191  -2.150  33.897  1.00  0.00     0.051 A 
HETATM   17  C16 UNK     1      19.975  -1.800  32.559  1.00  0.00     0.069 A 
HETATM   18  C18 UNK     1      18.912  -0.968  32.211  1.00  0.00     0.039 A 
BRANCH  17  19
HETATM   19  O3  UNK     1      20.807  -2.276  31.592  1.00  0.00    -0.351 OA
BRANCH  19  20
HETATM   20  C23 UNK     1      20.288  -2.343  30.264  1.00  0.00     0.171 C 
HETATM   21  C25 UNK     1      20.838  -1.184  29.461  1.00  0.00     0.034 C 
ENDBRANCH  19  20
ENDBRANCH  17  19
ENDBRANCH   7   8
ENDBRANCH   1   7
BRANCH   2  22
HETATM   22  C6  UNK     1      19.790  -8.456  37.192  1.00  0.00     0.375 C 
BRANCH  22  23
HETATM   23  C8  UNK     1      20.992  -9.383  37.327  1.00  0.00     0.252 C 
HETATM   24  O2  UNK     1      21.258  -9.889  38.421  1.00  0.00    -0.271 OA
HETATM   25  N3  UNK     1      21.754  -9.567  36.150  1.00  0.00    -0.321 N 
HETATM   26  C17 UNK     1      21.387  -8.936  34.873  1.00  0.00     0.159 C 
BRANCH  25  27
HETATM   27  C15 UNK     1      23.002 -10.303  36.172  1.00  0.00     0.036 A 
HETATM   28  C19 UNK     1      24.173  -9.681  36.606  1.00  0.00     0.029 A 
HETATM   29  C21 UNK     1      25.373 -10.390  36.627  1.00  0.00     0.002 A 
HETATM   30  C24 UNK     1      25.404 -11.722  36.214  1.00  0.00     0.000 A 
HETATM   31  C22 UNK     1      24.234 -12.344  35.779  1.00  0.00     0.002 A 
HETATM   32  C20 UNK     1      23.033 -11.635  35.758  1.00  0.00     0.029 A 
ENDBRANCH  25  27
ENDBRANCH  22  23
ENDBRANCH   2  22
TORSDOF 7
ENDMDL
MODEL 5
REMARK VINA RESULT:      -8.2     12.915     15.965
REMARK  7 active torsions:
REMARK  status: ('A' for Active; 'I' for Inactive)
REMARK    1  A    between atoms: C16_23  and  O3_3 
REMARK    2  A    between atoms: C23_30  and  O3_3 
REMARK    3  A    between atoms: C5_12  and  N1_5 
REMARK    4  A    between atoms: C6_13  and  N2_6 
REMARK    5  A    between atoms: C15_22  and  N3_7 
REMARK       I    between atoms: C8_15  and  N3_7 
REMARK    6  A    between atoms: C5_12  and  C7_14 
REMARK    7  A    between atoms: C6_13  and  C8_15 
ROOT
HETATM    1  N1  UNK     1      25.452  -8.020  38.603  1.00  0.00     0.096 N 
HETATM    2  N2  UNK     1      28.304  -7.579  38.771  1.00  0.00     0.100 N 
HETATM    3  C1  UNK     1      26.361  -9.075  39.069  1.00  0.00     0.303 C 
HETATM    4  C2  UNK     1      26.001  -6.695  38.916  1.00  0.00     0.303 C 
HETATM    5  C3  UNK     1      27.756  -8.904  38.456  1.00  0.00     0.303 C 
HETATM    6  C4  UNK     1      27.396  -6.524  38.305  1.00  0.00     0.303 C 
ENDROOT
BRANCH   1   7
HETATM    7  C5  UNK     1      24.124  -8.184  39.190  1.00  0.00     0.312 C 
BRANCH   7   8
HETATM    8  C7  UNK     1      23.043  -7.722  38.273  1.00  0.00    -0.011 A 
HETATM    9  C10 UNK     1      22.414  -6.556  38.477  1.00  0.00     0.092 A 
HETATM   10  C13 UNK     1      21.342  -6.059  37.600  1.00  0.00     0.288 A 
HETATM   11  O1  UNK     1      20.994  -6.860  36.524  1.00  0.00    -0.275 OA
HETATM   12  O4  UNK     1      20.788  -4.986  37.817  1.00  0.00    -0.260 OA
HETATM   13  C11 UNK     1      21.637  -8.092  36.285  1.00  0.00     0.090 A 
HETATM   14  C9  UNK     1      22.652  -8.551  37.126  1.00  0.00     0.009 A 
HETATM   15  C14 UNK     1      21.204  -8.817  35.172  1.00  0.00     0.041 A 
HETATM   16  C12 UNK     1      23.240  -9.786  36.820  1.00  0.00     0.051 A 
HETATM   17  C16 UNK     1      22.817 -10.524  35.708  1.00  0.00     0.069 A 
HETATM   18  C18 UNK     1      21.801 -10.040  34.886  1.00  0.00     0.039 A 
BRANCH  17  19
HETATM   19  O3  UNK     1      23.402 -11.722  35.429  1.00  0.00    -0.351 OA
BRANCH  19  20
HETATM   20  C23 UNK     1      24.704 -11.950  35.967  1.00  0.00     0.171 C 
HETATM   21  C25 UNK     1      24.788 -13.377  36.465  1.00  0.00     0.034 C 
ENDBRANCH  19  20
ENDBRANCH  17  19
ENDBRANCH   7   8
ENDBRANCH   1   7
BRANCH   2  22
HETATM   22  C6  UNK     1      29.633  -7.416  38.186  1.00  0.00     0.375 C 
BRANCH  22  23
HETATM   23  C8  UNK     1      29.532  -6.570  36.923  1.00  0.00     0.252 C 
HETATM   24  O2  UNK     1      29.384  -5.349  37.011  1.00  0.00    -0.271 OA
HETATM   25  N3  UNK     1      29.584  -7.288  35.705  1.00  0.00    -0.321 N 
HETATM   26  C17 UNK     1      29.763  -8.747  35.662  1.00  0.00     0.159 C 
BRANCH  25  27
HETATM   27  C15 UNK     1      29.354  -6.628  34.435  1.00  0.00     0.036 A 
HETATM   28  C19 UNK     1      28.064  -6.563  33.906  1.00  0.00     0.029 A 
HETATM   29  C21 UNK     1      27.843  -5.927  32.685  1.00  0.00     0.002 A 
HETATM   30  C24 UNK     1      28.911  -5.357  31.992  1.00  0.00     0.000 A 
HETATM   31  C22 UNK     1      30.200  -5.423  32.520  1.00  0.00     0.002 A 
HETATM   32  C20 UNK     1      30.421  -6.058  33.741  1.00  0.00     0.029 A 
ENDBRANCH  25  27
ENDBRANCH  22  23
ENDBRANCH   2  22
TORSDOF 7
ENDMDL
MODEL 6
REMARK VINA RESULT:      -8.1      5.299     11.736
REMARK  7 active torsions:
REMARK  status: ('A' for Active; 'I' for Inactive)
REMARK    1  A    between atoms: C16_23  and  O3_3 
REMARK    2  A    between atoms: C23_30  and  O3_3 
REMARK    3  A    between atoms: C5_12  and  N1_5 
REMARK    4  A    between atoms: C6_13  and  N2_6 
REMARK    5  A    between atoms: C15_22  and  N3_7 
REMARK       I    between atoms: C8_15  and  N3_7 
REMARK    6  A    between atoms: C5_12  and  C7_14 
REMARK    7  A    between atoms: C6_13  and  C8_15 
ROOT
HETATM    1  N1  UNK     1      18.991  -1.061  35.179  1.00  0.00     0.096 N 
HETATM    2  N2  UNK     1      19.653  -3.560  36.473  1.00  0.00     0.100 N 
HETATM    3  C1  UNK     1      19.582  -2.176  34.428  1.00  0.00     0.303 C 
HETATM    4  C2  UNK     1      18.203  -1.566  36.310  1.00  0.00     0.303 C 
HETATM    5  C3  UNK     1      20.442  -3.055  35.342  1.00  0.00     0.303 C 
HETATM    6  C4  UNK     1      19.062  -2.446  37.225  1.00  0.00     0.303 C 
ENDROOT
BRANCH   1   7
HETATM    7  C5  UNK     1      18.169  -0.225  34.306  1.00  0.00     0.312 C 
BRANCH   7   8
HETATM    8  C7  UNK     1      18.698  -0.177  32.913  1.00  0.00    -0.011 A 
HETATM    9  C10 UNK     1      19.211  -1.269  32.329  1.00  0.00     0.092 A 
HETATM   10  C13 UNK     1      19.746  -1.269  30.957  1.00  0.00     0.288 A 
HETATM   11  O1  UNK     1      19.699  -0.066  30.270  1.00  0.00    -0.275 OA
HETATM   12  O4  UNK     1      20.208  -2.287  30.454  1.00  0.00    -0.260 OA
HETATM   13  C11 UNK     1      19.167   1.099  30.859  1.00  0.00     0.090 A 
HETATM   14  C9  UNK     1      18.664   1.084  32.161  1.00  0.00     0.009 A 
HETATM   15  C14 UNK     1      19.172   2.254  30.073  1.00  0.00     0.041 A 
HETATM   16  C12 UNK     1      18.153   2.284  32.673  1.00  0.00     0.051 A 
HETATM   17  C16 UNK     1      18.152   3.450  31.899  1.00  0.00     0.069 A 
HETATM   18  C18 UNK     1      18.661   3.435  30.601  1.00  0.00     0.039 A 
BRANCH  17  19
HETATM   19  O3  UNK     1      17.651   4.606  32.416  1.00  0.00    -0.351 OA
BRANCH  19  20
HETATM   20  C23 UNK     1      18.264   5.104  33.605  1.00  0.00     0.171 C 
HETATM   21  C25 UNK     1      19.394   6.035  33.224  1.00  0.00     0.034 C 
ENDBRANCH  19  20
ENDBRANCH  17  19
ENDBRANCH   7   8
ENDBRANCH   1   7
BRANCH   2  22
HETATM   22  C6  UNK     1      20.474  -4.398  37.344  1.00  0.00     0.375 C 
BRANCH  22  23
HETATM   23  C8  UNK     1      20.117  -5.863  37.125  1.00  0.00     0.252 C 
HETATM   24  O2  UNK     1      19.152  -6.161  36.416  1.00  0.00    -0.271 OA
HETATM   25  N3  UNK     1      20.933  -6.796  37.806  1.00  0.00    -0.321 N 
HETATM   26  C17 UNK     1      22.072  -6.380  38.638  1.00  0.00     0.159 C 
BRANCH  25  27
HETATM   27  C15 UNK     1      20.617  -8.211  37.803  1.00  0.00     0.036 A 
HETATM   28  C19 UNK     1      21.236  -9.062  36.887  1.00  0.00     0.029 A 
HETATM   29  C21 UNK     1      20.933 -10.423  36.885  1.00  0.00     0.002 A 
HETATM   30  C24 UNK     1      20.010 -10.933  37.797  1.00  0.00     0.000 A 
HETATM   31  C22 UNK     1      19.390 -10.082  38.711  1.00  0.00     0.002 A 
HETATM   32  C20 UNK     1      19.693  -8.722  38.714  1.00  0.00     0.029 A 
ENDBRANCH  25  27
ENDBRANCH  22  23
ENDBRANCH   2  22
TORSDOF 7
ENDMDL
MODEL 7
REMARK VINA RESULT:      -8.0     13.346     17.122
REMARK  7 active torsions:
REMARK  status: ('A' for Active; 'I' for Inactive)
REMARK    1  A    between atoms: C16_23  and  O3_3 
REMARK    2  A    between atoms: C23_30  and  O3_3 
REMARK    3  A    between atoms: C5_12  and  N1_5 
REMARK    4  A    between atoms: C6_13  and  N2_6 
REMARK    5  A    between atoms: C15_22  and  N3_7 
REMARK       I    between atoms: C8_15  and  N3_7 
REMARK    6  A    between atoms: C5_12  and  C7_14 
REMARK    7  A    between atoms: C6_13  and  C8_15 
ROOT
HETATM    1  N1  UNK     1      29.546  -8.754  37.559  1.00  0.00     0.096 N 
HETATM    2  N2  UNK     1      26.659  -8.805  37.420  1.00  0.00     0.100 N 
HETATM    3  C1  UNK     1      28.812  -7.886  36.630  1.00  0.00     0.303 C 
HETATM    4  C2  UNK     1      28.731  -9.042  38.745  1.00  0.00     0.303 C 
HETATM    5  C3  UNK     1      27.474  -8.519  36.233  1.00  0.00     0.303 C 
HETATM    6  C4  UNK     1      27.393  -9.674  38.348  1.00  0.00     0.303 C 
ENDROOT
BRANCH   1   7
HETATM    7  C5  UNK     1      30.821  -8.148  37.938  1.00  0.00     0.312 C 
BRANCH   7   8
HETATM    8  C7  UNK     1      30.761  -6.659  37.923  1.00  0.00    -0.011 A 
HETATM    9  C10 UNK     1      30.008  -5.986  38.804  1.00  0.00     0.092 A 
HETATM   10  C13 UNK     1      29.918  -4.517  38.826  1.00  0.00     0.288 A 
HETATM   11  O1  UNK     1      30.661  -3.832  37.877  1.00  0.00    -0.275 OA
HETATM   12  O4  UNK     1      29.217  -3.935  39.647  1.00  0.00    -0.260 OA
HETATM   13  C11 UNK     1      31.461  -4.512  36.937  1.00  0.00     0.090 A 
HETATM   14  C9  UNK     1      31.536  -5.906  36.928  1.00  0.00     0.009 A 
HETATM   15  C14 UNK     1      32.165  -3.720  36.028  1.00  0.00     0.041 A 
HETATM   16  C12 UNK     1      32.354  -6.505  35.960  1.00  0.00     0.051 A 
HETATM   17  C16 UNK     1      33.066  -5.725  35.041  1.00  0.00     0.069 A 
HETATM   18  C18 UNK     1      32.971  -4.334  35.075  1.00  0.00     0.039 A 
BRANCH  17  19
HETATM   19  O3  UNK     1      33.855  -6.328  34.109  1.00  0.00    -0.351 OA
BRANCH  19  20
HETATM   20  C23 UNK     1      35.218  -5.911  34.045  1.00  0.00     0.171 C 
HETATM   21  C25 UNK     1      36.029  -6.727  35.027  1.00  0.00     0.034 C 
ENDBRANCH  19  20
ENDBRANCH  17  19
ENDBRANCH   7   8
ENDBRANCH   1   7
BRANCH   2  22
HETATM   22  C6  UNK     1      25.384  -9.409  37.040  1.00  0.00     0.375 C 
BRANCH  22  23
HETATM   23  C8  UNK     1      24.239  -8.573  37.597  1.00  0.00     0.252 C 
HETATM   24  O2  UNK     1      24.472  -7.680  38.416  1.00  0.00    -0.271 OA
HETATM   25  N3  UNK     1      22.949  -8.926  37.138  1.00  0.00    -0.321 N 
HETATM   26  C17 UNK     1      22.733 -10.001  36.159  1.00  0.00     0.159 C 
BRANCH  25  27
HETATM   27  C15 UNK     1      21.760  -8.311  37.695  1.00  0.00     0.036 A 
HETATM   28  C19 UNK     1      21.147  -8.869  38.818  1.00  0.00     0.029 A 
HETATM   29  C21 UNK     1      20.004  -8.277  39.355  1.00  0.00     0.002 A 
HETATM   30  C24 UNK     1      19.474  -7.128  38.769  1.00  0.00     0.000 A 
HETATM   31  C22 UNK     1      20.086  -6.571  37.647  1.00  0.00     0.002 A 
HETATM   32  C20 UNK     1      21.228  -7.162  37.110  1.00  0.00     0.029 A 
ENDBRANCH  25  27
ENDBRANCH  22  23
ENDBRANCH   2  22
TORSDOF 7
ENDMDL
MODEL 8
REMARK VINA RESULT:      -7.9     22.926     25.281
REMARK  7 active torsions:
REMARK  status: ('A' for Active; 'I' for Inactive)
REMARK    1  A    between atoms: C16_23  and  O3_3 
REMARK    2  A    between atoms: C23_30  and  O3_3 
REMARK    3  A    between atoms: C5_12  and  N1_5 
REMARK    4  A    between atoms: C6_13  and  N2_6 
REMARK    5  A    between atoms: C15_22  and  N3_7 
REMARK       I    between atoms: C8_15  and  N3_7 
REMARK    6  A    between atoms: C5_12  and  C7_14 
REMARK    7  A    between atoms: C6_13  and  C8_15 
ROOT
HETATM    1  N1  UNK     1      11.901   7.049   7.298  1.00  0.00     0.096 N 
HETATM    2  N2  UNK     1       9.395   5.904   8.172  1.00  0.00     0.100 N 
HETATM    3  C1  UNK     1      11.644   6.769   8.717  1.00  0.00     0.303 C 
HETATM    4  C2  UNK     1      11.151   6.118   6.447  1.00  0.00     0.303 C 
HETATM    5  C3  UNK     1      10.144   6.837   9.023  1.00  0.00     0.303 C 
HETATM    6  C4  UNK     1       9.651   6.184   6.754  1.00  0.00     0.303 C 
ENDROOT
BRANCH   1   7
HETATM    7  C5  UNK     1      13.332   6.982   7.007  1.00  0.00     0.312 C 
BRANCH   7   8
HETATM    8  C7  UNK     1      14.138   6.671   8.221  1.00  0.00    -0.011 A 
HETATM    9  C10 UNK     1      14.343   5.405   8.611  1.00  0.00     0.092 A 
HETATM   10  C13 UNK     1      15.132   5.050   9.802  1.00  0.00     0.288 A 
HETATM   11  O1  UNK     1      15.672   6.100  10.529  1.00  0.00    -0.275 OA
HETATM   12  O4  UNK     1      15.299   3.880  10.129  1.00  0.00    -0.260 OA
HETATM   13  C11 UNK     1      15.472   7.441  10.144  1.00  0.00     0.090 A 
HETATM   14  C9  UNK     1      14.721   7.763   9.012  1.00  0.00     0.009 A 
HETATM   15  C14 UNK     1      16.061   8.416  10.951  1.00  0.00     0.041 A 
HETATM   16  C12 UNK     1      14.569   9.120   8.699  1.00  0.00     0.051 A 
HETATM   17  C16 UNK     1      15.153  10.110   9.498  1.00  0.00     0.069 A 
HETATM   18  C18 UNK     1      15.898   9.758  10.623  1.00  0.00     0.039 A 
BRANCH  17  19
HETATM   19  O3  UNK     1      14.992  11.423   9.175  1.00  0.00    -0.351 OA
BRANCH  19  20
HETATM   20  C23 UNK     1      15.440  11.834   7.884  1.00  0.00     0.171 C 
HETATM   21  C25 UNK     1      16.953  11.841   7.866  1.00  0.00     0.034 C 
ENDBRANCH  19  20
ENDBRANCH  17  19
ENDBRANCH   7   8
ENDBRANCH   1   7
BRANCH   2  22
HETATM   22  C6  UNK     1       7.965   5.970   8.465  1.00  0.00     0.375 C 
BRANCH  22  23
HETATM   23  C8  UNK     1       7.622   4.963   9.556  1.00  0.00     0.252 C 
HETATM   24  O2  UNK     1       8.185   3.865   9.577  1.00  0.00    -0.271 OA
HETATM   25  N3  UNK     1       6.622   5.372  10.469  1.00  0.00    -0.321 N 
HETATM   26  C17 UNK     1       5.987   6.695  10.393  1.00  0.00     0.159 C 
BRANCH  25  27
HETATM   27  C15 UNK     1       6.098   4.459  11.465  1.00  0.00     0.036 A 
HETATM   28  C19 UNK     1       5.593   3.217  11.076  1.00  0.00     0.029 A 
HETATM   29  C21 UNK     1       5.089   2.339  12.035  1.00  0.00     0.002 A 
HETATM   30  C24 UNK     1       5.088   2.701  13.381  1.00  0.00     0.000 A 
HETATM   31  C22 UNK     1       5.591   3.942  13.770  1.00  0.00     0.002 A 
HETATM   32  C20 UNK     1       6.096   4.821  12.812  1.00  0.00     0.029 A 
ENDBRANCH  25  27
ENDBRANCH  22  23
ENDBRANCH   2  22
TORSDOF 7
ENDMDL
MODEL 9
REMARK VINA RESULT:      -7.9      5.530      8.883
REMARK  7 active torsions:
REMARK  status: ('A' for Active; 'I' for Inactive)
REMARK    1  A    between atoms: C16_23  and  O3_3 
REMARK    2  A    between atoms: C23_30  and  O3_3 
REMARK    3  A    between atoms: C5_12  and  N1_5 
REMARK    4  A    between atoms: C6_13  and  N2_6 
REMARK    5  A    between atoms: C15_22  and  N3_7 
REMARK       I    between atoms: C8_15  and  N3_7 
REMARK    6  A    between atoms: C5_12  and  C7_14 
REMARK    7  A    between atoms: C6_13  and  C8_15 
ROOT
HETATM    1  N1  UNK     1      19.200  -3.208  36.529  1.00  0.00     0.096 N 
HETATM    2  N2  UNK     1      18.255  -0.476  36.530  1.00  0.00     0.100 N 
HETATM    3  C1  UNK     1      19.475  -2.305  35.404  1.00  0.00     0.303 C 
HETATM    4  C2  UNK     1      19.070  -2.447  37.777  1.00  0.00     0.303 C 
HETATM    5  C3  UNK     1      18.383  -1.237  35.281  1.00  0.00     0.303 C 
HETATM    6  C4  UNK     1      17.979  -1.379  37.655  1.00  0.00     0.303 C 
ENDROOT
BRANCH   1   7
HETATM    7  C5  UNK     1      20.244  -4.224  36.646  1.00  0.00     0.312 C 
BRANCH   7   8
HETATM    8  C7  UNK     1      19.685  -5.606  36.651  1.00  0.00    -0.011 A 
HETATM    9  C10 UNK     1      18.605  -5.919  35.922  1.00  0.00     0.092 A 
HETATM   10  C13 UNK     1      18.018  -7.269  35.897  1.00  0.00     0.288 A 
HETATM   11  O1  UNK     1      18.638  -8.234  36.675  1.00  0.00    -0.275 OA
HETATM   12  O4  UNK     1      17.028  -7.520  35.217  1.00  0.00    -0.260 OA
HETATM   13  C11 UNK     1      19.774  -7.934  37.453  1.00  0.00     0.090 A 
HETATM   14  C9  UNK     1      20.320  -6.649  37.468  1.00  0.00     0.009 A 
HETATM   15  C14 UNK     1      20.315  -8.983  38.199  1.00  0.00     0.041 A 
HETATM   16  C12 UNK     1      21.449  -6.433  38.269  1.00  0.00     0.051 A 
HETATM   17  C16 UNK     1      22.003  -7.474  39.023  1.00  0.00     0.069 A 
HETATM   18  C18 UNK     1      21.437  -8.748  38.988  1.00  0.00     0.039 A 
BRANCH  17  19
HETATM   19  O3  UNK     1      23.101  -7.242  39.794  1.00  0.00    -0.351 OA
BRANCH  19  20
HETATM   20  C23 UNK     1      24.296  -6.848  39.121  1.00  0.00     0.171 C 
HETATM   21  C25 UNK     1      25.081  -8.087  38.746  1.00  0.00     0.034 C 
ENDBRANCH  19  20
ENDBRANCH  17  19
ENDBRANCH   7   8
ENDBRANCH   1   7
BRANCH   2  22
HETATM   22  C6  UNK     1      17.213   0.541  36.412  1.00  0.00     0.375 C 
BRANCH  22  23
HETATM   23  C8  UNK     1      17.155   1.045  34.976  1.00  0.00     0.252 C 
HETATM   24  O2  UNK     1      16.290   0.614  34.208  1.00  0.00    -0.271 OA
HETATM   25  N3  UNK     1      18.158   1.976  34.616  1.00  0.00    -0.321 N 
HETATM   26  C17 UNK     1      19.163   2.453  35.576  1.00  0.00     0.159 C 
BRANCH  25  27
HETATM   27  C15 UNK     1      18.308   2.424  33.246  1.00  0.00     0.036 A 
HETATM   28  C19 UNK     1      18.655   1.513  32.248  1.00  0.00     0.029 A 
HETATM   29  C21 UNK     1      18.799   1.944  30.929  1.00  0.00     0.002 A 
HETATM   30  C24 UNK     1      18.597   3.287  30.609  1.00  0.00     0.000 A 
HETATM   31  C22 UNK     1      18.252   4.197  31.607  1.00  0.00     0.002 A 
HETATM   32  C20 UNK     1      18.107   3.766  32.925  1.00  0.00     0.029 A 
ENDBRANCH  25  27
ENDBRANCH  22  23
ENDBRANCH   2  22
TORSDOF 7
ENDMDL
MODEL 10
REMARK VINA RESULT:      -7.8      3.292     11.431
REMARK  7 active torsions:
REMARK  status: ('A' for Active; 'I' for Inactive)
REMARK    1  A    between atoms: C16_23  and  O3_3 
REMARK    2  A    between atoms: C23_30  and  O3_3 
REMARK    3  A    between atoms: C5_12  and  N1_5 
REMARK    4  A    between atoms: C6_13  and  N2_6 
REMARK    5  A    between atoms: C15_22  and  N3_7 
REMARK       I    between atoms: C8_15  and  N3_7 
REMARK    6  A    between atoms: C5_12  and  C7_14 
REMARK    7  A    between atoms: C6_13  and  C8_15 
ROOT
HETATM    1  N1  UNK     1      15.964   8.419  33.093  1.00  0.00     0.096 N 
HETATM    2  N2  UNK     1      17.350   5.895  32.845  1.00  0.00     0.100 N 
HETATM    3  C1  UNK     1      16.167   7.786  31.784  1.00  0.00     0.303 C 
HETATM    4  C2  UNK     1      15.890   7.402  34.149  1.00  0.00     0.303 C 
HETATM    5  C3  UNK     1      17.426   6.912  31.789  1.00  0.00     0.303 C 
HETATM    6  C4  UNK     1      17.149   6.527  34.154  1.00  0.00     0.303 C 
ENDROOT
BRANCH   1   7
HETATM    7  C5  UNK     1      14.762   9.250  33.087  1.00  0.00     0.312 C 
BRANCH   7   8
HETATM    8  C7  UNK     1      15.032  10.634  33.569  1.00  0.00    -0.011 A 
HETATM    9  C10 UNK     1      16.254  10.996  33.986  1.00  0.00     0.092 A 
HETATM   10  C13 UNK     1      16.568  12.350  34.470  1.00  0.00     0.288 A 
HETATM   11  O1  UNK     1      15.528  13.266  34.481  1.00  0.00    -0.275 OA
HETATM   12  O4  UNK     1      17.698  12.646  34.844  1.00  0.00    -0.260 OA
HETATM   13  C11 UNK     1      14.232  12.914  34.051  1.00  0.00     0.090 A 
HETATM   14  C9  UNK     1      13.949  11.625  33.594  1.00  0.00     0.009 A 
HETATM   15  C14 UNK     1      13.262  13.916  34.107  1.00  0.00     0.041 A 
HETATM   16  C12 UNK     1      12.636  11.356  33.185  1.00  0.00     0.051 A 
HETATM   17  C16 UNK     1      11.652  12.350  33.235  1.00  0.00     0.069 A 
HETATM   18  C18 UNK     1      11.964  13.629  33.696  1.00  0.00     0.039 A 
BRANCH  17  19
HETATM   19  O3  UNK     1      10.382  12.067  32.833  1.00  0.00    -0.351 OA
BRANCH  19  20
HETATM   20  C23 UNK     1       9.405  13.094  32.996  1.00  0.00     0.171 C 
HETATM   21  C25 UNK     1       8.076  12.599  32.468  1.00  0.00     0.034 C 
ENDBRANCH  19  20
ENDBRANCH  17  19
ENDBRANCH   7   8
ENDBRANCH   1   7
BRANCH   2  22
HETATM   22  C6  UNK     1      18.551   5.063  32.849  1.00  0.00     0.375 C 
BRANCH  22  23
HETATM   23  C8  UNK     1      18.290   3.788  32.056  1.00  0.00     0.252 C 
HETATM   24  O2  UNK     1      17.652   2.865  32.568  1.00  0.00    -0.271 OA
HETATM   25  N3  UNK     1      18.854   3.753  30.759  1.00  0.00    -0.321 N 
HETATM   26  C17 UNK     1      19.606   4.887  30.201  1.00  0.00     0.159 C 
BRANCH  25  27
HETATM   27  C15 UNK     1      18.807   2.549  29.953  1.00  0.00     0.036 A 
HETATM   28  C19 UNK     1      19.679   1.494  30.224  1.00  0.00     0.029 A 
HETATM   29  C21 UNK     1      19.634   0.335  29.450  1.00  0.00     0.002 A 
HETATM   30  C24 UNK     1      18.718   0.231  28.404  1.00  0.00     0.000 A 
HETATM   31  C22 UNK     1      17.847   1.286  28.132  1.00  0.00     0.002 A 
HETATM   32  C20 UNK     1      17.892   2.445  28.906  1.00  0.00     0.029 A 
ENDBRANCH  25  27
ENDBRANCH  22  23
ENDBRANCH   2  22
TORSDOF 7
ENDMDL
