MODEL 1
REMARK VINA RESULT:      -9.1      0.000      0.000
REMARK  6 active torsions:
REMARK  status: ('A' for Active; 'I' for Inactive)
REMARK    1  A    between atoms: C1_7  and  O1_4 
REMARK    2  A    between atoms: C4_10  and  O1_4 
REMARK    3  A    between atoms: C3_9  and  O2_5 
REMARK    4  A    between atoms: C2_8  and  C9_15 
REMARK    5  A    between atoms: C4_10  and  C6_12 
REMARK    6  A    between atoms: C10_16  and  C11_17 
ROOT
HETATM    1  N1  UNK     1      17.907   2.632  33.791  1.00  0.00    -0.191 NA
HETATM    2  C9  UNK     1      18.455   4.566  30.989  1.00  0.00     0.036 C 
HETATM    3  C10 UNK     1      18.425   3.247  31.318  1.00  0.00     0.055 C 
HETATM    4  C23 UNK     1      18.137   2.916  32.689  1.00  0.00     0.100 C 
ENDROOT
BRANCH   3   5
HETATM    5  C11 UNK     1      18.656   2.169  30.368  1.00  0.00    -0.015 A 
HETATM    6  C16 UNK     1      19.568   1.159  30.669  1.00  0.00     0.016 A 
HETATM    7  C19 UNK     1      19.791   0.126  29.757  1.00  0.00     0.043 A 
HETATM    8  C21 UNK     1      19.100   0.104  28.546  1.00  0.00     0.116 A 
HETATM    9  C20 UNK     1      18.187   1.115  28.245  1.00  0.00     0.043 A 
HETATM   10  F1  UNK     1      19.314  -0.887  27.670  1.00  0.00    -0.206 F 
HETATM   11  C17 UNK     1      17.964   2.148  29.156  1.00  0.00     0.016 A 
ENDBRANCH   3   5
BRANCH   2  12
HETATM   12  C2  UNK     1      18.221   5.685  31.912  1.00  0.00    -0.015 A 
HETATM   13  C5  UNK     1      16.902   5.972  32.239  1.00  0.00     0.052 A 
HETATM   14  C3  UNK     1      16.621   7.024  33.111  1.00  0.00     0.102 A 
HETATM   15  C1  UNK     1      17.662   7.780  33.650  1.00  0.00     0.103 A 
HETATM   16  C7  UNK     1      18.984   7.484  33.316  1.00  0.00     0.059 A 
HETATM   17  C8  UNK     1      19.264   6.432  32.444  1.00  0.00     0.024 A 
HETATM   18 Br1  UNK     1      21.086   6.083  32.030  1.00  0.00    -0.050 Br
BRANCH  14  19
HETATM   19  O2  UNK     1      15.326   7.303  33.431  1.00  0.00    -0.353 OA
HETATM   20  C22 UNK     1      14.384   7.317  32.360  1.00  0.00     0.210 C 
ENDBRANCH  14  19
BRANCH  15  21
HETATM   21  O1  UNK     1      17.401   8.809  34.503  1.00  0.00    -0.344 OA
BRANCH  21  22
HETATM   22  C4  UNK     1      17.293  10.112  33.934  1.00  0.00     0.214 C 
BRANCH  22  23
HETATM   23  C6  UNK     1      16.265  10.895  34.694  1.00  0.00    -0.034 A 
HETATM   24  C12 UNK     1      15.061  10.294  35.043  1.00  0.00     0.011 A 
HETATM   25  C14 UNK     1      14.104  11.023  35.750  1.00  0.00     0.019 A 
HETATM   26  C18 UNK     1      14.358  12.349  36.105  1.00  0.00     0.011 A 
HETATM   27 Br2  UNK     1      13.061  13.336  37.061  1.00  0.00    -0.051 Br
HETATM   28  C15 UNK     1      15.569  12.945  35.752  1.00  0.00     0.019 A 
HETATM   29  C13 UNK     1      16.525  12.216  35.045  1.00  0.00     0.011 A 
ENDBRANCH  22  23
ENDBRANCH  21  22
ENDBRANCH  15  21
ENDBRANCH   2  12
TORSDOF 6
ENDMDL
MODEL 2
REMARK VINA RESULT:      -9.0      1.167      1.830
REMARK  6 active torsions:
REMARK  status: ('A' for Active; 'I' for Inactive)
REMARK    1  A    between atoms: C1_7  and  O1_4 
REMARK    2  A    between atoms: C4_10  and  O1_4 
REMARK    3  A    between atoms: C3_9  and  O2_5 
REMARK    4  A    between atoms: C2_8  and  C9_15 
REMARK    5  A    between atoms: C4_10  and  C6_12 
REMARK    6  A    between atoms: C10_16  and  C11_17 
ROOT
HETATM    1  N1  UNK     1      17.965   2.677  33.680  1.00  0.00    -0.191 NA
HETATM    2  C9  UNK     1      18.621   4.570  30.873  1.00  0.00     0.036 C 
HETATM    3  C10 UNK     1      18.520   3.255  31.206  1.00  0.00     0.055 C 
HETATM    4  C23 UNK     1      18.212   2.945  32.577  1.00  0.00     0.100 C 
ENDROOT
BRANCH   3   5
HETATM    5  C11 UNK     1      18.695   2.164  30.260  1.00  0.00    -0.015 A 
HETATM    6  C16 UNK     1      17.933   2.124  29.093  1.00  0.00     0.016 A 
HETATM    7  C19 UNK     1      18.100   1.077  28.186  1.00  0.00     0.043 A 
HETATM    8  C21 UNK     1      19.030   0.070  28.446  1.00  0.00     0.116 A 
HETATM    9  C20 UNK     1      19.793   0.110  29.614  1.00  0.00     0.043 A 
HETATM   10  F1  UNK     1      19.190  -0.935  27.576  1.00  0.00    -0.206 F 
HETATM   11  C17 UNK     1      19.626   1.157  30.521  1.00  0.00     0.016 A 
ENDBRANCH   3   5
BRANCH   2  12
HETATM   12  C2  UNK     1      18.445   5.702  31.792  1.00  0.00    -0.015 A 
HETATM   13  C5  UNK     1      17.143   6.058  32.118  1.00  0.00     0.052 A 
HETATM   14  C3  UNK     1      16.917   7.127  32.986  1.00  0.00     0.102 A 
HETATM   15  C1  UNK     1      17.996   7.829  33.523  1.00  0.00     0.103 A 
HETATM   16  C7  UNK     1      19.301   7.465  33.189  1.00  0.00     0.059 A 
HETATM   17  C8  UNK     1      19.525   6.397  32.321  1.00  0.00     0.024 A 
HETATM   18 Br1  UNK     1      21.327   5.952  31.909  1.00  0.00    -0.050 Br
BRANCH  14  19
HETATM   19  O2  UNK     1      15.638   7.473  33.305  1.00  0.00    -0.353 OA
HETATM   20  C22 UNK     1      14.669   7.401  32.261  1.00  0.00     0.210 C 
ENDBRANCH  14  19
BRANCH  15  21
HETATM   21  O1  UNK     1      17.788   8.874  34.372  1.00  0.00    -0.344 OA
BRANCH  21  22
HETATM   22  C4  UNK     1      18.575  10.045  34.165  1.00  0.00     0.214 C 
BRANCH  22  23
HETATM   23  C6  UNK     1      17.668  11.235  34.067  1.00  0.00    -0.034 A 
HETATM   24  C12 UNK     1      18.212  12.503  33.894  1.00  0.00     0.011 A 
HETATM   25  C14 UNK     1      17.369  13.610  33.804  1.00  0.00     0.019 A 
HETATM   26  C18 UNK     1      15.986  13.443  33.888  1.00  0.00     0.011 A 
HETATM   27 Br2  UNK     1      14.844  14.943  33.768  1.00  0.00    -0.051 Br
HETATM   28  C15 UNK     1      15.447  12.168  34.061  1.00  0.00     0.019 A 
HETATM   29  C13 UNK     1      16.291  11.061  34.151  1.00  0.00     0.011 A 
ENDBRANCH  22  23
ENDBRANCH  21  22
ENDBRANCH  15  21
ENDBRANCH   2  12
TORSDOF 6
ENDMDL
MODEL 3
REMARK VINA RESULT:      -8.5      7.849     10.558
REMARK  6 active torsions:
REMARK  status: ('A' for Active; 'I' for Inactive)
REMARK    1  A    between atoms: C1_7  and  O1_4 
REMARK    2  A    between atoms: C4_10  and  O1_4 
REMARK    3  A    between atoms: C3_9  and  O2_5 
REMARK    4  A    between atoms: C2_8  and  C9_15 
REMARK    5  A    between atoms: C4_10  and  C6_12 
REMARK    6  A    between atoms: C10_16  and  C11_17 
ROOT
HETATM    1  N1  UNK     1      17.620  -5.367  36.380  1.00  0.00    -0.191 NA
HETATM    2  C9  UNK     1      20.527  -3.577  36.871  1.00  0.00     0.036 C 
HETATM    3  C10 UNK     1      19.999  -4.774  37.244  1.00  0.00     0.055 C 
HETATM    4  C23 UNK     1      18.682  -5.093  36.761  1.00  0.00     0.100 C 
ENDROOT
BRANCH   3   5
HETATM    5  C11 UNK     1      20.692  -5.737  38.087  1.00  0.00    -0.015 A 
HETATM    6  C16 UNK     1      19.985  -6.786  38.673  1.00  0.00     0.016 A 
HETATM    7  C19 UNK     1      20.649  -7.708  39.482  1.00  0.00     0.043 A 
HETATM    8  C21 UNK     1      22.021  -7.582  39.703  1.00  0.00     0.116 A 
HETATM    9  C20 UNK     1      22.728  -6.533  39.117  1.00  0.00     0.043 A 
HETATM   10  F1  UNK     1      22.658  -8.468  40.481  1.00  0.00    -0.206 F 
HETATM   11  C17 UNK     1      22.064  -5.610  38.308  1.00  0.00     0.016 A 
ENDBRANCH   3   5
BRANCH   2  12
HETATM   12  C2  UNK     1      19.867  -2.579  36.018  1.00  0.00    -0.015 A 
HETATM   13  C5  UNK     1      20.193  -2.584  34.668  1.00  0.00     0.052 A 
HETATM   14  C3  UNK     1      19.597  -1.659  33.811  1.00  0.00     0.102 A 
HETATM   15  C1  UNK     1      18.678  -0.736  34.311  1.00  0.00     0.103 A 
HETATM   16  C7  UNK     1      18.357  -0.739  35.669  1.00  0.00     0.059 A 
HETATM   17  C8  UNK     1      18.954  -1.664  36.525  1.00  0.00     0.024 A 
HETATM   18 Br1  UNK     1      18.471  -1.613  38.363  1.00  0.00    -0.050 Br
BRANCH  14  19
HETATM   19  O2  UNK     1      19.918  -1.667  32.487  1.00  0.00    -0.353 OA
HETATM   20  C22 UNK     1      20.956  -2.556  32.077  1.00  0.00     0.210 C 
ENDBRANCH  14  19
BRANCH  15  21
HETATM   21  O1  UNK     1      18.090   0.172  33.485  1.00  0.00    -0.344 OA
BRANCH  21  22
HETATM   22  C4  UNK     1      17.751   1.438  34.048  1.00  0.00     0.214 C 
BRANCH  22  23
HETATM   23  C6  UNK     1      18.099   2.519  33.068  1.00  0.00    -0.034 A 
HETATM   24  C12 UNK     1      18.182   3.838  33.500  1.00  0.00     0.011 A 
HETATM   25  C14 UNK     1      18.505   4.844  32.590  1.00  0.00     0.019 A 
HETATM   26  C18 UNK     1      18.742   4.525  31.252  1.00  0.00     0.011 A 
HETATM   27 Br2  UNK     1      19.178   5.888  30.019  1.00  0.00    -0.051 Br
HETATM   28  C15 UNK     1      18.658   3.199  30.827  1.00  0.00     0.019 A 
HETATM   29  C13 UNK     1      18.335   2.193  31.737  1.00  0.00     0.011 A 
ENDBRANCH  22  23
ENDBRANCH  21  22
ENDBRANCH  15  21
ENDBRANCH   2  12
TORSDOF 6
ENDMDL
MODEL 4
REMARK VINA RESULT:      -8.5     18.489     20.490
REMARK  6 active torsions:
REMARK  status: ('A' for Active; 'I' for Inactive)
REMARK    1  A    between atoms: C1_7  and  O1_4 
REMARK    2  A    between atoms: C4_10  and  O1_4 
REMARK    3  A    between atoms: C3_9  and  O2_5 
REMARK    4  A    between atoms: C2_8  and  C9_15 
REMARK    5  A    between atoms: C4_10  and  C6_12 
REMARK    6  A    between atoms: C10_16  and  C11_17 
ROOT
HETATM    1  N1  UNK     1      27.339 -10.370  39.720  1.00  0.00    -0.191 NA
HETATM    2  C9  UNK     1      27.423  -8.750  36.677  1.00  0.00     0.036 C 
HETATM    3  C10 UNK     1      26.617  -9.624  37.337  1.00  0.00     0.055 C 
HETATM    4  C23 UNK     1      27.025 -10.031  38.655  1.00  0.00     0.100 C 
ENDROOT
BRANCH   3   5
HETATM    5  C11 UNK     1      25.377 -10.154  36.789  1.00  0.00    -0.015 A 
HETATM    6  C16 UNK     1      25.342 -11.448  36.270  1.00  0.00     0.016 A 
HETATM    7  C19 UNK     1      24.154 -11.956  35.744  1.00  0.00     0.043 A 
HETATM    8  C21 UNK     1      23.001 -11.170  35.738  1.00  0.00     0.116 A 
HETATM    9  C20 UNK     1      23.037  -9.875  36.257  1.00  0.00     0.043 A 
HETATM   10  F1  UNK     1      21.861 -11.657  35.231  1.00  0.00    -0.206 F 
HETATM   11  C17 UNK     1      24.225  -9.367  36.783  1.00  0.00     0.016 A 
ENDBRANCH   3   5
BRANCH   2  12
HETATM   12  C2  UNK     1      28.677  -8.185  37.194  1.00  0.00    -0.015 A 
HETATM   13  C5  UNK     1      29.856  -8.830  36.842  1.00  0.00     0.052 A 
HETATM   14  C3  UNK     1      31.076  -8.337  37.305  1.00  0.00     0.102 A 
HETATM   15  C1  UNK     1      31.108  -7.202  38.116  1.00  0.00     0.103 A 
HETATM   16  C7  UNK     1      29.918  -6.561  38.464  1.00  0.00     0.059 A 
HETATM   17  C8  UNK     1      28.699  -7.055  38.001  1.00  0.00     0.024 A 
HETATM   18 Br1  UNK     1      27.117  -6.134  38.513  1.00  0.00    -0.050 Br
BRANCH  14  19
HETATM   19  O2  UNK     1      32.231  -8.971  36.958  1.00  0.00    -0.353 OA
HETATM   20  C22 UNK     1      32.503  -9.102  35.564  1.00  0.00     0.210 C 
ENDBRANCH  14  19
BRANCH  15  21
HETATM   21  O1  UNK     1      32.293  -6.712  38.574  1.00  0.00    -0.344 OA
BRANCH  21  22
HETATM   22  C4  UNK     1      32.716  -5.452  38.057  1.00  0.00     0.214 C 
BRANCH  22  23
HETATM   23  C6  UNK     1      33.455  -5.673  36.771  1.00  0.00    -0.034 A 
HETATM   24  C12 UNK     1      34.710  -6.271  36.793  1.00  0.00     0.011 A 
HETATM   25  C14 UNK     1      35.399  -6.476  35.597  1.00  0.00     0.019 A 
HETATM   26  C18 UNK     1      34.828  -6.082  34.386  1.00  0.00     0.011 A 
HETATM   27 Br2  UNK     1      35.762  -6.358  32.767  1.00  0.00    -0.051 Br
HETATM   28  C15 UNK     1      33.568  -5.483  34.373  1.00  0.00     0.019 A 
HETATM   29  C13 UNK     1      32.880  -5.278  35.569  1.00  0.00     0.011 A 
ENDBRANCH  22  23
ENDBRANCH  21  22
ENDBRANCH  15  21
ENDBRANCH   2  12
TORSDOF 6
ENDMDL
MODEL 5
REMARK VINA RESULT:      -8.5      6.345      8.134
REMARK  6 active torsions:
REMARK  status: ('A' for Active; 'I' for Inactive)
REMARK    1  A    between atoms: C1_7  and  O1_4 
REMARK    2  A    between atoms: C4_10  and  O1_4 
REMARK    3  A    between atoms: C3_9  and  O2_5 
REMARK    4  A    between atoms: C2_8  and  C9_15 
REMARK    5  A    between atoms: C4_10  and  C6_12 
REMARK    6  A    between atoms: C10_16  and  C11_17 
ROOT
HETATM    1  N1  UNK     1      21.876  -1.697  35.355  1.00  0.00    -0.191 NA
HETATM    2  C9  UNK     1      18.515  -2.213  35.929  1.00  0.00     0.036 C 
HETATM    3  C10 UNK     1      19.691  -2.863  36.144  1.00  0.00     0.055 C 
HETATM    4  C23 UNK     1      20.895  -2.209  35.704  1.00  0.00     0.100 C 
ENDROOT
BRANCH   3   5
HETATM    5  C11 UNK     1      19.791  -4.160  36.795  1.00  0.00    -0.015 A 
HETATM    6  C16 UNK     1      20.849  -4.424  37.664  1.00  0.00     0.016 A 
HETATM    7  C19 UNK     1      20.946  -5.668  38.287  1.00  0.00     0.043 A 
HETATM    8  C21 UNK     1      19.984  -6.649  38.041  1.00  0.00     0.116 A 
HETATM    9  C20 UNK     1      18.926  -6.385  37.171  1.00  0.00     0.043 A 
HETATM   10  F1  UNK     1      20.078  -7.844  38.639  1.00  0.00    -0.206 F 
HETATM   11  C17 UNK     1      18.829  -5.140  36.548  1.00  0.00     0.016 A 
ENDBRANCH   3   5
BRANCH   2  12
HETATM   12  C2  UNK     1      18.368  -0.901  35.284  1.00  0.00    -0.015 A 
HETATM   13  C5  UNK     1      18.579  -0.842  33.912  1.00  0.00     0.052 A 
HETATM   14  C3  UNK     1      18.453   0.378  33.247  1.00  0.00     0.102 A 
HETATM   15  C1  UNK     1      18.116   1.529  33.960  1.00  0.00     0.103 A 
HETATM   16  C7  UNK     1      17.907   1.460  35.338  1.00  0.00     0.059 A 
HETATM   17  C8  UNK     1      18.033   0.240  36.001  1.00  0.00     0.024 A 
HETATM   18 Br1  UNK     1      17.734   0.215  37.878  1.00  0.00    -0.050 Br
BRANCH  14  19
HETATM   19  O2  UNK     1      18.659   0.434  31.902  1.00  0.00    -0.353 OA
HETATM   20  C22 UNK     1      19.624  -0.465  31.357  1.00  0.00     0.210 C 
ENDBRANCH  14  19
BRANCH  15  21
HETATM   21  O1  UNK     1      17.990   2.726  33.322  1.00  0.00    -0.344 OA
BRANCH  21  22
HETATM   22  C4  UNK     1      18.647   3.847  33.910  1.00  0.00     0.214 C 
BRANCH  22  23
HETATM   23  C6  UNK     1      17.889   5.095  33.568  1.00  0.00    -0.034 A 
HETATM   24  C12 UNK     1      17.603   6.021  34.565  1.00  0.00     0.011 A 
HETATM   25  C14 UNK     1      16.897   7.181  34.247  1.00  0.00     0.019 A 
HETATM   26  C18 UNK     1      16.482   7.409  32.935  1.00  0.00     0.011 A 
HETATM   27 Br2  UNK     1      15.524   8.980  32.506  1.00  0.00    -0.051 Br
HETATM   28  C15 UNK     1      16.774   6.476  31.940  1.00  0.00     0.019 A 
HETATM   29  C13 UNK     1      17.480   5.316  32.257  1.00  0.00     0.011 A 
ENDBRANCH  22  23
ENDBRANCH  21  22
ENDBRANCH  15  21
ENDBRANCH   2  12
TORSDOF 6
ENDMDL
MODEL 6
REMARK VINA RESULT:      -8.0     17.984     20.270
REMARK  6 active torsions:
REMARK  status: ('A' for Active; 'I' for Inactive)
REMARK    1  A    between atoms: C1_7  and  O1_4 
REMARK    2  A    between atoms: C4_10  and  O1_4 
REMARK    3  A    between atoms: C3_9  and  O2_5 
REMARK    4  A    between atoms: C2_8  and  C9_15 
REMARK    5  A    between atoms: C4_10  and  C6_12 
REMARK    6  A    between atoms: C10_16  and  C11_17 
ROOT
HETATM    1  N1  UNK     1      27.544 -10.337  39.533  1.00  0.00    -0.191 NA
HETATM    2  C9  UNK     1      27.415  -8.682  36.510  1.00  0.00     0.036 C 
HETATM    3  C10 UNK     1      26.665  -9.578  37.207  1.00  0.00     0.055 C 
HETATM    4  C23 UNK     1      27.160  -9.992  38.493  1.00  0.00     0.100 C 
ENDROOT
BRANCH   3   5
HETATM    5  C11 UNK     1      25.404 -10.124  36.728  1.00  0.00    -0.015 A 
HETATM    6  C16 UNK     1      24.246  -9.351  36.779  1.00  0.00     0.016 A 
HETATM    7  C19 UNK     1      23.036  -9.874  36.322  1.00  0.00     0.043 A 
HETATM    8  C21 UNK     1      22.986 -11.172  35.811  1.00  0.00     0.116 A 
HETATM    9  C20 UNK     1      24.146 -11.946  35.760  1.00  0.00     0.043 A 
HETATM   10  F1  UNK     1      21.825 -11.675  35.372  1.00  0.00    -0.206 F 
HETATM   11  C17 UNK     1      25.355 -11.422  36.218  1.00  0.00     0.016 A 
ENDBRANCH   3   5
BRANCH   2  12
HETATM   12  C2  UNK     1      28.688  -8.100  36.958  1.00  0.00    -0.015 A 
HETATM   13  C5  UNK     1      28.621  -7.033  37.844  1.00  0.00     0.052 A 
HETATM   14  C3  UNK     1      29.798  -6.441  38.302  1.00  0.00     0.102 A 
HETATM   15  C1  UNK     1      31.034  -6.922  37.869  1.00  0.00     0.103 A 
HETATM   16  C7  UNK     1      31.091  -7.995  36.977  1.00  0.00     0.059 A 
HETATM   17  C8  UNK     1      29.913  -8.585  36.521  1.00  0.00     0.024 A 
HETATM   18 Br1  UNK     1      30.063 -10.042  35.309  1.00  0.00    -0.050 Br
BRANCH  14  19
HETATM   19  O2  UNK     1      29.730  -5.395  39.172  1.00  0.00    -0.353 OA
HETATM   20  C22 UNK     1      28.944  -4.273  38.774  1.00  0.00     0.210 C 
ENDBRANCH  14  19
BRANCH  15  21
HETATM   21  O1  UNK     1      32.191  -6.353  38.308  1.00  0.00    -0.344 OA
BRANCH  21  22
HETATM   22  C4  UNK     1      32.630  -5.174  37.637  1.00  0.00     0.214 C 
BRANCH  22  23
HETATM   23  C6  UNK     1      33.497  -5.565  36.477  1.00  0.00    -0.034 A 
HETATM   24  C12 UNK     1      33.045  -5.355  35.179  1.00  0.00     0.011 A 
HETATM   25  C14 UNK     1      33.850  -5.719  34.100  1.00  0.00     0.019 A 
HETATM   26  C18 UNK     1      35.103  -6.290  34.325  1.00  0.00     0.011 A 
HETATM   27 Br2  UNK     1      36.193  -6.784  32.863  1.00  0.00    -0.051 Br
HETATM   28  C15 UNK     1      35.551  -6.496  35.630  1.00  0.00     0.019 A 
HETATM   29  C13 UNK     1      34.745  -6.132  36.709  1.00  0.00     0.011 A 
ENDBRANCH  22  23
ENDBRANCH  21  22
ENDBRANCH  15  21
ENDBRANCH   2  12
TORSDOF 6
ENDMDL
MODEL 7
REMARK VINA RESULT:      -8.0      7.341     12.096
REMARK  6 active torsions:
REMARK  status: ('A' for Active; 'I' for Inactive)
REMARK    1  A    between atoms: C1_7  and  O1_4 
REMARK    2  A    between atoms: C4_10  and  O1_4 
REMARK    3  A    between atoms: C3_9  and  O2_5 
REMARK    4  A    between atoms: C2_8  and  C9_15 
REMARK    5  A    between atoms: C4_10  and  C6_12 
REMARK    6  A    between atoms: C10_16  and  C11_17 
ROOT
HETATM    1  N1  UNK     1      20.125   2.734  36.436  1.00  0.00    -0.191 NA
HETATM    2  C9  UNK     1      17.957   1.394  34.113  1.00  0.00     0.036 C 
HETATM    3  C10 UNK     1      18.509   2.603  34.403  1.00  0.00     0.055 C 
HETATM    4  C23 UNK     1      19.402   2.665  35.530  1.00  0.00     0.100 C 
ENDROOT
BRANCH   3   5
HETATM    5  C11 UNK     1      18.254   3.814  33.639  1.00  0.00    -0.015 A 
HETATM    6  C16 UNK     1      18.055   5.026  34.300  1.00  0.00     0.016 A 
HETATM    7  C19 UNK     1      17.810   6.187  33.567  1.00  0.00     0.043 A 
HETATM    8  C21 UNK     1      17.764   6.137  32.173  1.00  0.00     0.116 A 
HETATM    9  C20 UNK     1      17.964   4.925  31.513  1.00  0.00     0.043 A 
HETATM   10  F1  UNK     1      17.528   7.252  31.470  1.00  0.00    -0.206 F 
HETATM   11  C17 UNK     1      18.209   3.763  32.245  1.00  0.00     0.016 A 
ENDBRANCH   3   5
BRANCH   2  12
HETATM   12  C2  UNK     1      18.191   0.146  34.852  1.00  0.00    -0.015 A 
HETATM   13  C5  UNK     1      19.112  -0.745  34.316  1.00  0.00     0.052 A 
HETATM   14  C3  UNK     1      19.373  -1.947  34.975  1.00  0.00     0.102 A 
HETATM   15  C1  UNK     1      18.712  -2.246  36.166  1.00  0.00     0.103 A 
HETATM   16  C7  UNK     1      17.789  -1.345  36.698  1.00  0.00     0.059 A 
HETATM   17  C8  UNK     1      17.528  -0.144  36.037  1.00  0.00     0.024 A 
HETATM   18 Br1  UNK     1      16.259   1.039  36.815  1.00  0.00    -0.050 Br
BRANCH  14  19
HETATM   19  O2  UNK     1      20.277  -2.818  34.447  1.00  0.00    -0.353 OA
HETATM   20  C22 UNK     1      20.687  -2.590  33.100  1.00  0.00     0.210 C 
ENDBRANCH  14  19
BRANCH  15  21
HETATM   21  O1  UNK     1      18.959  -3.415  36.820  1.00  0.00    -0.344 OA
BRANCH  21  22
HETATM   22  C4  UNK     1      20.244  -3.565  37.420  1.00  0.00     0.214 C 
BRANCH  22  23
HETATM   23  C6  UNK     1      20.693  -4.987  37.269  1.00  0.00    -0.034 A 
HETATM   24  C12 UNK     1      20.192  -5.761  36.228  1.00  0.00     0.011 A 
HETATM   25  C14 UNK     1      20.609  -7.084  36.088  1.00  0.00     0.019 A 
HETATM   26  C18 UNK     1      21.525  -7.627  36.990  1.00  0.00     0.011 A 
HETATM   27 Br2  UNK     1      22.088  -9.421  36.800  1.00  0.00    -0.051 Br
HETATM   28  C15 UNK     1      22.024  -6.845  38.031  1.00  0.00     0.019 A 
HETATM   29  C13 UNK     1      21.608  -5.521  38.171  1.00  0.00     0.011 A 
ENDBRANCH  22  23
ENDBRANCH  21  22
ENDBRANCH  15  21
ENDBRANCH   2  12
TORSDOF 6
ENDMDL
MODEL 8
REMARK VINA RESULT:      -8.0     17.653     19.532
REMARK  6 active torsions:
REMARK  status: ('A' for Active; 'I' for Inactive)
REMARK    1  A    between atoms: C1_7  and  O1_4 
REMARK    2  A    between atoms: C4_10  and  O1_4 
REMARK    3  A    between atoms: C3_9  and  O2_5 
REMARK    4  A    between atoms: C2_8  and  C9_15 
REMARK    5  A    between atoms: C4_10  and  C6_12 
REMARK    6  A    between atoms: C10_16  and  C11_17 
ROOT
HETATM    1  N1  UNK     1      29.561  -6.374  34.840  1.00  0.00    -0.191 NA
HETATM    2  C9  UNK     1      30.917  -7.501  37.804  1.00  0.00     0.036 C 
HETATM    3  C10 UNK     1      31.354  -7.047  36.599  1.00  0.00     0.055 C 
HETATM    4  C23 UNK     1      30.355  -6.677  35.633  1.00  0.00     0.100 C 
ENDROOT
BRANCH   3   5
HETATM    5  C11 UNK     1      32.759  -6.910  36.247  1.00  0.00    -0.015 A 
HETATM    6  C16 UNK     1      33.291  -7.661  35.199  1.00  0.00     0.016 A 
HETATM    7  C19 UNK     1      34.638  -7.530  34.862  1.00  0.00     0.043 A 
HETATM    8  C21 UNK     1      35.453  -6.647  35.571  1.00  0.00     0.116 A 
HETATM    9  C20 UNK     1      34.921  -5.896  36.619  1.00  0.00     0.043 A 
HETATM   10  F1  UNK     1      36.747  -6.523  35.248  1.00  0.00    -0.206 F 
HETATM   11  C17 UNK     1      33.573  -6.026  36.957  1.00  0.00     0.016 A 
ENDBRANCH   3   5
BRANCH   2  12
HETATM   12  C2  UNK     1      29.511  -7.649  38.205  1.00  0.00    -0.015 A 
HETATM   13  C5  UNK     1      28.924  -8.894  38.014  1.00  0.00     0.052 A 
HETATM   14  C3  UNK     1      27.592  -9.091  38.376  1.00  0.00     0.102 A 
HETATM   15  C1  UNK     1      26.856  -8.041  38.926  1.00  0.00     0.103 A 
HETATM   16  C7  UNK     1      27.454  -6.794  39.114  1.00  0.00     0.059 A 
HETATM   17  C8  UNK     1      28.786  -6.598  38.751  1.00  0.00     0.024 A 
HETATM   18 Br1  UNK     1      29.538  -4.875  39.034  1.00  0.00    -0.050 Br
BRANCH  14  19
HETATM   19  O2  UNK     1      27.019 -10.313  38.189  1.00  0.00    -0.353 OA
HETATM   20  C22 UNK     1      26.344 -10.528  36.951  1.00  0.00     0.210 C 
ENDBRANCH  14  19
BRANCH  15  21
HETATM   21  O1  UNK     1      25.554  -8.221  39.284  1.00  0.00    -0.344 OA
BRANCH  21  22
HETATM   22  C4  UNK     1      24.596  -7.332  38.713  1.00  0.00     0.214 C 
BRANCH  22  23
HETATM   23  C6  UNK     1      23.303  -8.066  38.518  1.00  0.00    -0.034 A 
HETATM   24  C12 UNK     1      23.041  -8.688  37.303  1.00  0.00     0.011 A 
HETATM   25  C14 UNK     1      21.838  -9.370  37.121  1.00  0.00     0.019 A 
HETATM   26  C18 UNK     1      20.903  -9.425  38.155  1.00  0.00     0.011 A 
HETATM   27 Br2  UNK     1      19.273 -10.347  37.907  1.00  0.00    -0.051 Br
HETATM   28  C15 UNK     1      21.173  -8.798  39.372  1.00  0.00     0.019 A 
HETATM   29  C13 UNK     1      22.376  -8.117  39.554  1.00  0.00     0.011 A 
ENDBRANCH  22  23
ENDBRANCH  21  22
ENDBRANCH  15  21
ENDBRANCH   2  12
TORSDOF 6
ENDMDL
MODEL 9
REMARK VINA RESULT:      -7.9      1.920      2.209
REMARK  6 active torsions:
REMARK  status: ('A' for Active; 'I' for Inactive)
REMARK    1  A    between atoms: C1_7  and  O1_4 
REMARK    2  A    between atoms: C4_10  and  O1_4 
REMARK    3  A    between atoms: C3_9  and  O2_5 
REMARK    4  A    between atoms: C2_8  and  C9_15 
REMARK    5  A    between atoms: C4_10  and  C6_12 
REMARK    6  A    between atoms: C10_16  and  C11_17 
ROOT
HETATM    1  N1  UNK     1      19.374   5.694  29.371  1.00  0.00    -0.191 NA
HETATM    2  C9  UNK     1      17.873   4.362  32.176  1.00  0.00     0.036 C 
HETATM    3  C10 UNK     1      18.559   3.920  31.088  1.00  0.00     0.055 C 
HETATM    4  C23 UNK     1      19.006   4.909  30.144  1.00  0.00     0.100 C 
ENDROOT
BRANCH   3   5
HETATM    5  C11 UNK     1      18.868   2.520  30.840  1.00  0.00    -0.015 A 
HETATM    6  C16 UNK     1      18.991   1.633  31.908  1.00  0.00     0.016 A 
HETATM    7  C19 UNK     1      19.288   0.291  31.670  1.00  0.00     0.043 A 
HETATM    8  C21 UNK     1      19.460  -0.165  30.363  1.00  0.00     0.116 A 
HETATM    9  C20 UNK     1      19.336   0.722  29.294  1.00  0.00     0.043 A 
HETATM   10  F1  UNK     1      19.746  -1.454  30.135  1.00  0.00    -0.206 F 
HETATM   11  C17 UNK     1      19.039   2.065  29.531  1.00  0.00     0.016 A 
ENDBRANCH   3   5
BRANCH   2  12
HETATM   12  C2  UNK     1      17.546   5.764  32.470  1.00  0.00    -0.015 A 
HETATM   13  C5  UNK     1      16.314   6.234  32.030  1.00  0.00     0.052 A 
HETATM   14  C3  UNK     1      15.952   7.557  32.281  1.00  0.00     0.102 A 
HETATM   15  C1  UNK     1      16.823   8.400  32.971  1.00  0.00     0.103 A 
HETATM   16  C7  UNK     1      18.059   7.919  33.407  1.00  0.00     0.059 A 
HETATM   17  C8  UNK     1      18.420   6.596  33.156  1.00  0.00     0.024 A 
HETATM   18 Br1  UNK     1      20.116   6.006  33.779  1.00  0.00    -0.050 Br
BRANCH  14  19
HETATM   19  O2  UNK     1      14.743   8.015  31.850  1.00  0.00    -0.353 OA
HETATM   20  C22 UNK     1      13.583   7.377  32.381  1.00  0.00     0.210 C 
ENDBRANCH  14  19
BRANCH  15  21
HETATM   21  O1  UNK     1      16.481   9.694  33.222  1.00  0.00    -0.344 OA
BRANCH  21  22
HETATM   22  C4  UNK     1      15.942   9.984  34.510  1.00  0.00     0.214 C 
BRANCH  22  23
HETATM   23  C6  UNK     1      14.686  10.786  34.347  1.00  0.00    -0.034 A 
HETATM   24  C12 UNK     1      14.154  10.980  33.077  1.00  0.00     0.011 A 
HETATM   25  C14 UNK     1      12.985  11.727  32.925  1.00  0.00     0.019 A 
HETATM   26  C18 UNK     1      12.355  12.274  34.043  1.00  0.00     0.011 A 
HETATM   27 Br2  UNK     1      10.774  13.287  33.835  1.00  0.00    -0.051 Br
HETATM   28  C15 UNK     1      12.895  12.074  35.313  1.00  0.00     0.019 A 
HETATM   29  C13 UNK     1      14.063  11.328  35.466  1.00  0.00     0.011 A 
ENDBRANCH  22  23
ENDBRANCH  21  22
ENDBRANCH  15  21
ENDBRANCH   2  12
TORSDOF 6
ENDMDL
MODEL 10
REMARK VINA RESULT:      -7.9      1.762      2.140
REMARK  6 active torsions:
REMARK  status: ('A' for Active; 'I' for Inactive)
REMARK    1  A    between atoms: C1_7  and  O1_4 
REMARK    2  A    between atoms: C4_10  and  O1_4 
REMARK    3  A    between atoms: C3_9  and  O2_5 
REMARK    4  A    between atoms: C2_8  and  C9_15 
REMARK    5  A    between atoms: C4_10  and  C6_12 
REMARK    6  A    between atoms: C10_16  and  C11_17 
ROOT
HETATM    1  N1  UNK     1      19.555   6.107  29.704  1.00  0.00    -0.191 NA
HETATM    2  C9  UNK     1      17.847   4.241  32.048  1.00  0.00     0.036 C 
HETATM    3  C10 UNK     1      18.547   4.031  30.901  1.00  0.00     0.055 C 
HETATM    4  C23 UNK     1      19.101   5.186  30.246  1.00  0.00     0.100 C 
ENDROOT
BRANCH   3   5
HETATM    5  C11 UNK     1      18.767   2.717  30.316  1.00  0.00    -0.015 A 
HETATM    6  C16 UNK     1      18.271   2.427  29.046  1.00  0.00     0.016 A 
HETATM    7  C19 UNK     1      18.482   1.167  28.486  1.00  0.00     0.043 A 
HETATM    8  C21 UNK     1      19.190   0.197  29.196  1.00  0.00     0.116 A 
HETATM    9  C20 UNK     1      19.687   0.487  30.467  1.00  0.00     0.043 A 
HETATM   10  F1  UNK     1      19.392  -1.013  28.658  1.00  0.00    -0.206 F 
HETATM   11  C17 UNK     1      19.476   1.748  31.027  1.00  0.00     0.016 A 
ENDBRANCH   3   5
BRANCH   2  12
HETATM   12  C2  UNK     1      17.605   5.548  32.676  1.00  0.00    -0.015 A 
HETATM   13  C5  UNK     1      16.449   6.224  32.309  1.00  0.00     0.052 A 
HETATM   14  C3  UNK     1      16.170   7.469  32.874  1.00  0.00     0.102 A 
HETATM   15  C1  UNK     1      17.049   8.026  33.802  1.00  0.00     0.103 A 
HETATM   16  C7  UNK     1      18.208   7.339  34.165  1.00  0.00     0.059 A 
HETATM   17  C8  UNK     1      18.487   6.095  33.599  1.00  0.00     0.024 A 
HETATM   18 Br1  UNK     1      20.082   5.213  34.137  1.00  0.00    -0.050 Br
BRANCH  14  19
HETATM   19  O2  UNK     1      15.035   8.130  32.512  1.00  0.00    -0.353 OA
HETATM   20  C22 UNK     1      13.882   7.336  32.240  1.00  0.00     0.210 C 
ENDBRANCH  14  19
BRANCH  15  21
HETATM   21  O1  UNK     1      16.788   9.241  34.361  1.00  0.00    -0.344 OA
BRANCH  21  22
HETATM   22  C4  UNK     1      17.725  10.286  34.111  1.00  0.00     0.214 C 
BRANCH  22  23
HETATM   23  C6  UNK     1      17.001  11.598  34.085  1.00  0.00    -0.034 A 
HETATM   24  C12 UNK     1      15.611  11.617  34.050  1.00  0.00     0.011 A 
HETATM   25  C14 UNK     1      14.937  12.838  34.024  1.00  0.00     0.019 A 
HETATM   26  C18 UNK     1      15.656  14.033  34.035  1.00  0.00     0.011 A 
HETATM   27 Br2  UNK     1      14.742  15.686  34.000  1.00  0.00    -0.051 Br
HETATM   28  C15 UNK     1      17.050  14.006  34.072  1.00  0.00     0.019 A 
HETATM   29  C13 UNK     1      17.724  12.786  34.097  1.00  0.00     0.011 A 
ENDBRANCH  22  23
ENDBRANCH  21  22
ENDBRANCH  15  21
ENDBRANCH   2  12
TORSDOF 6
ENDMDL
