MODEL 1
REMARK VINA RESULT:      -7.8      0.000      0.000
REMARK  2 active torsions:
REMARK  status: ('A' for Active; 'I' for Inactive)
REMARK    1  A    between atoms: C1_7  and  N2_6 
REMARK    2  A    between atoms: C3_9  and  C7_13 
ROOT
HETATM    1  O1  UNK     1      14.084   6.828  10.674  1.00  0.00    -0.261 OA
HETATM    2  O2  UNK     1      13.818   9.980   8.730  1.00  0.00    -0.335 OA
HETATM    3  N1  UNK     1      15.417   6.225  10.731  1.00  0.00    -0.197 NA
HETATM    4  C1  UNK     1      14.245   8.220  10.403  1.00  0.00     0.255 C 
HETATM    5  C2  UNK     1      15.738   8.496  10.372  1.00  0.00     0.103 C 
HETATM    6  C3  UNK     1      13.533   8.621   9.103  1.00  0.00     0.226 C 
HETATM    7  C4  UNK     1      16.275   7.134   9.971  1.00  0.00     0.135 C 
HETATM    8  C5  UNK     1      16.122   9.599   9.426  1.00  0.00    -0.014 A 
HETATM    9  C6  UNK     1      15.153  10.281   8.679  1.00  0.00     0.076 A 
HETATM   10  C8  UNK     1      17.463   9.993   9.313  1.00  0.00     0.010 A 
HETATM   11  C9  UNK     1      15.283   4.936  10.063  1.00  0.00     0.143 C 
HETATM   12  C10 UNK     1      15.514  11.351   7.858  1.00  0.00     0.037 A 
HETATM   13  C13 UNK     1      17.826  11.049   8.477  1.00  0.00     0.001 A 
HETATM   14  C14 UNK     1      16.851  11.730   7.752  1.00  0.00     0.003 A 
ENDROOT
BRANCH   6  15
HETATM   15  C7  UNK     1      12.026   8.412   9.130  1.00  0.00    -0.024 A 
HETATM   16  C11 UNK     1      11.190   9.443   9.551  1.00  0.00     0.010 A 
HETATM   17  C15 UNK     1       9.809   9.250   9.574  1.00  0.00     0.007 A 
HETATM   18  C17 UNK     1       9.268   8.027   9.178  1.00  0.00    -0.062 A 
HETATM   19  C16 UNK     1      10.108   6.996   8.757  1.00  0.00     0.007 A 
HETATM   20  C18 UNK     1       7.790   7.821   9.204  1.00  0.00     0.048 C 
HETATM   21  C12 UNK     1      11.490   7.189   8.734  1.00  0.00     0.010 A 
ENDBRANCH   6  15
BRANCH   4  22
HETATM   22  N2  UNK     1      13.654   8.932  11.558  1.00  0.00    -0.112 N 
HETATM   23  O3  UNK     1      12.614   8.464  12.045  1.00  0.00    -0.534 OA
HETATM   24  O4  UNK     1      14.250   9.938  11.969  1.00  0.00    -0.534 OA
ENDBRANCH   4  22
TORSDOF 2
ENDMDL
MODEL 2
REMARK VINA RESULT:      -7.8     32.411     35.136
REMARK  2 active torsions:
REMARK  status: ('A' for Active; 'I' for Inactive)
REMARK    1  A    between atoms: C1_7  and  N2_6 
REMARK    2  A    between atoms: C3_9  and  C7_13 
ROOT
HETATM    1  O1  UNK     1      31.601  -8.301  35.798  1.00  0.00    -0.261 OA
HETATM    2  O2  UNK     1      27.973  -7.630  36.211  1.00  0.00    -0.335 OA
HETATM    3  N1  UNK     1      32.306  -8.754  36.998  1.00  0.00    -0.197 NA
HETATM    4  C1  UNK     1      30.218  -8.617  35.958  1.00  0.00     0.255 C 
HETATM    5  C2  UNK     1      30.083  -9.363  37.273  1.00  0.00     0.103 C 
HETATM    6  C3  UNK     1      29.346  -7.354  35.892  1.00  0.00     0.226 C 
HETATM    7  C4  UNK     1      31.278  -8.822  38.037  1.00  0.00     0.135 C 
HETATM    8  C5  UNK     1      28.768  -9.127  37.962  1.00  0.00    -0.014 A 
HETATM    9  C6  UNK     1      27.794  -8.297  37.394  1.00  0.00     0.076 A 
HETATM   10  C8  UNK     1      28.482  -9.776  39.172  1.00  0.00     0.010 A 
HETATM   11  C9  UNK     1      33.283  -7.711  37.284  1.00  0.00     0.143 C 
HETATM   12  C10 UNK     1      26.549  -8.142  38.009  1.00  0.00     0.037 A 
HETATM   13  C13 UNK     1      27.245  -9.605  39.795  1.00  0.00     0.001 A 
HETATM   14  C14 UNK     1      26.278  -8.791  39.211  1.00  0.00     0.003 A 
ENDROOT
BRANCH   6  15
HETATM   15  C7  UNK     1      29.417  -6.619  34.561  1.00  0.00    -0.024 A 
HETATM   16  C11 UNK     1      30.614  -6.036  34.154  1.00  0.00     0.010 A 
HETATM   17  C15 UNK     1      30.678  -5.364  32.933  1.00  0.00     0.007 A 
HETATM   18  C17 UNK     1      29.544  -5.275  32.125  1.00  0.00    -0.062 A 
HETATM   19  C16 UNK     1      28.347  -5.861  32.536  1.00  0.00     0.007 A 
HETATM   20  C18 UNK     1      29.613  -4.556  30.820  1.00  0.00     0.048 C 
HETATM   21  C12 UNK     1      28.283  -6.533  33.757  1.00  0.00     0.010 A 
ENDBRANCH   6  15
BRANCH   4  22
HETATM   22  N2  UNK     1      29.879  -9.538  34.851  1.00  0.00    -0.112 N 
HETATM   23  O3  UNK     1      28.763 -10.078  34.879  1.00  0.00    -0.534 OA
HETATM   24  O4  UNK     1      30.729  -9.693  33.963  1.00  0.00    -0.534 OA
ENDBRANCH   4  22
TORSDOF 2
ENDMDL
MODEL 3
REMARK VINA RESULT:      -7.6      1.654      6.125
REMARK  2 active torsions:
REMARK  status: ('A' for Active; 'I' for Inactive)
REMARK    1  A    between atoms: C1_7  and  N2_6 
REMARK    2  A    between atoms: C3_9  and  C7_13 
ROOT
HETATM    1  O1  UNK     1      12.245  10.409  10.605  1.00  0.00    -0.261 OA
HETATM    2  O2  UNK     1      13.434   8.055   7.993  1.00  0.00    -0.335 OA
HETATM    3  N1  UNK     1      10.804  10.667  10.623  1.00  0.00    -0.197 NA
HETATM    4  C1  UNK     1      12.455   9.145   9.975  1.00  0.00     0.255 C 
HETATM    5  C2  UNK     1      11.084   8.571   9.665  1.00  0.00     0.103 C 
HETATM    6  C3  UNK     1      13.344   9.285   8.730  1.00  0.00     0.226 C 
HETATM    7  C4  UNK     1      10.259   9.840   9.546  1.00  0.00     0.135 C 
HETATM    8  C5  UNK     1      11.060   7.717   8.429  1.00  0.00    -0.014 A 
HETATM    9  C6  UNK     1      12.222   7.496   7.680  1.00  0.00     0.076 A 
HETATM   10  C8  UNK     1       9.871   7.088   8.032  1.00  0.00     0.010 A 
HETATM   11  C9  UNK     1      10.666  12.088  10.324  1.00  0.00     0.143 C 
HETATM   12  C10 UNK     1      12.202   6.643   6.574  1.00  0.00     0.037 A 
HETATM   13  C13 UNK     1       9.847   6.252   6.916  1.00  0.00     0.001 A 
HETATM   14  C14 UNK     1      11.014   6.027   6.189  1.00  0.00     0.003 A 
ENDROOT
BRANCH   6  15
HETATM   15  C7  UNK     1      14.745   9.802   9.021  1.00  0.00    -0.024 A 
HETATM   16  C11 UNK     1      15.757   8.907   9.359  1.00  0.00     0.010 A 
HETATM   17  C15 UNK     1      17.042   9.381   9.625  1.00  0.00     0.007 A 
HETATM   18  C17 UNK     1      17.310  10.749   9.553  1.00  0.00    -0.062 A 
HETATM   19  C16 UNK     1      16.293  11.641   9.214  1.00  0.00     0.007 A 
HETATM   20  C18 UNK     1      18.683  11.255   9.838  1.00  0.00     0.048 C 
HETATM   21  C12 UNK     1      15.009  11.167   8.948  1.00  0.00     0.010 A 
ENDBRANCH   6  15
BRANCH   4  22
HETATM   22  N2  UNK     1      13.112   8.289  10.986  1.00  0.00    -0.112 N 
HETATM   23  O3  UNK     1      13.601   8.849  11.979  1.00  0.00    -0.534 OA
HETATM   24  O4  UNK     1      13.113   7.067  10.779  1.00  0.00    -0.534 OA
ENDBRANCH   4  22
TORSDOF 2
ENDMDL
MODEL 4
REMARK VINA RESULT:      -7.5     30.842     33.952
REMARK  2 active torsions:
REMARK  status: ('A' for Active; 'I' for Inactive)
REMARK    1  A    between atoms: C1_7  and  N2_6 
REMARK    2  A    between atoms: C3_9  and  C7_13 
ROOT
HETATM    1  O1  UNK     1      33.484 -10.449  30.070  1.00  0.00    -0.261 OA
HETATM    2  O2  UNK     1      31.386  -7.941  31.827  1.00  0.00    -0.335 OA
HETATM    3  N1  UNK     1      32.758 -11.522  29.388  1.00  0.00    -0.197 NA
HETATM    4  C1  UNK     1      32.600  -9.335  30.197  1.00  0.00     0.255 C 
HETATM    5  C2  UNK     1      31.307  -9.714  29.496  1.00  0.00     0.103 C 
HETATM    6  C3  UNK     1      32.394  -8.952  31.670  1.00  0.00     0.226 C 
HETATM    7  C4  UNK     1      31.344 -11.226  29.618  1.00  0.00     0.135 C 
HETATM    8  C5  UNK     1      30.088  -9.088  30.113  1.00  0.00    -0.014 A 
HETATM    9  C6  UNK     1      30.194  -8.236  31.219  1.00  0.00     0.076 A 
HETATM   10  C8  UNK     1      28.822  -9.315  29.554  1.00  0.00     0.010 A 
HETATM   11  C9  UNK     1      33.162 -12.748  30.067  1.00  0.00     0.143 C 
HETATM   12  C10 UNK     1      29.062  -7.604  31.739  1.00  0.00     0.037 A 
HETATM   13  C13 UNK     1      27.689  -8.699  30.086  1.00  0.00     0.001 A 
HETATM   14  C14 UNK     1      27.809  -7.841  31.176  1.00  0.00     0.003 A 
ENDROOT
BRANCH   6  15
HETATM   15  C7  UNK     1      33.666  -8.511  32.380  1.00  0.00    -0.024 A 
HETATM   16  C11 UNK     1      34.606  -9.460  32.772  1.00  0.00     0.010 A 
HETATM   17  C15 UNK     1      35.772  -9.055  33.422  1.00  0.00     0.007 A 
HETATM   18  C17 UNK     1      35.993  -7.702  33.679  1.00  0.00    -0.062 A 
HETATM   19  C16 UNK     1      35.049  -6.754  33.285  1.00  0.00     0.007 A 
HETATM   20  C18 UNK     1      37.239  -7.269  34.375  1.00  0.00     0.048 C 
HETATM   21  C12 UNK     1      33.883  -7.159  32.635  1.00  0.00     0.010 A 
ENDBRANCH   6  15
BRANCH   4  22
HETATM   22  N2  UNK     1      33.235  -8.223  29.456  1.00  0.00    -0.112 N 
HETATM   23  O3  UNK     1      34.418  -8.366  29.116  1.00  0.00    -0.534 OA
HETATM   24  O4  UNK     1      32.533  -7.231  29.212  1.00  0.00    -0.534 OA
ENDBRANCH   4  22
TORSDOF 2
ENDMDL
MODEL 5
REMARK VINA RESULT:      -7.5     31.773     34.222
REMARK  2 active torsions:
REMARK  status: ('A' for Active; 'I' for Inactive)
REMARK    1  A    between atoms: C1_7  and  N2_6 
REMARK    2  A    between atoms: C3_9  and  C7_13 
ROOT
HETATM    1  O1  UNK     1      30.264  -9.192  35.263  1.00  0.00    -0.261 OA
HETATM    2  O2  UNK     1      31.590  -5.915  34.128  1.00  0.00    -0.335 OA
HETATM    3  N1  UNK     1      31.202 -10.037  36.002  1.00  0.00    -0.197 NA
HETATM    4  C1  UNK     1      30.702  -7.839  35.388  1.00  0.00     0.255 C 
HETATM    5  C2  UNK     1      31.912  -7.848  36.306  1.00  0.00     0.103 C 
HETATM    6  C3  UNK     1      30.995  -7.219  34.014  1.00  0.00     0.226 C 
HETATM    7  C4  UNK     1      32.436  -9.255  36.079  1.00  0.00     0.135 C 
HETATM    8  C5  UNK     1      32.912  -6.773  35.986  1.00  0.00    -0.014 A 
HETATM    9  C6  UNK     1      32.692  -5.869  34.940  1.00  0.00     0.076 A 
HETATM   10  C8  UNK     1      34.067  -6.633  36.770  1.00  0.00     0.010 A 
HETATM   11  C9  UNK     1      31.377 -11.227  35.177  1.00  0.00     0.143 C 
HETATM   12  C10 UNK     1      33.594  -4.830  34.699  1.00  0.00     0.037 A 
HETATM   13  C13 UNK     1      34.978  -5.607  36.516  1.00  0.00     0.001 A 
HETATM   14  C14 UNK     1      34.739  -4.704  35.482  1.00  0.00     0.003 A 
ENDROOT
BRANCH   6  15
HETATM   15  C7  UNK     1      29.784  -7.142  33.096  1.00  0.00    -0.024 A 
HETATM   16  C11 UNK     1      29.102  -5.937  32.949  1.00  0.00     0.010 A 
HETATM   17  C15 UNK     1      27.992  -5.867  32.106  1.00  0.00     0.007 A 
HETATM   18  C17 UNK     1      27.568  -7.001  31.415  1.00  0.00    -0.062 A 
HETATM   19  C16 UNK     1      28.254  -8.206  31.565  1.00  0.00     0.007 A 
HETATM   20  C18 UNK     1      26.381  -6.926  30.515  1.00  0.00     0.048 C 
HETATM   21  C12 UNK     1      29.364  -8.277  32.407  1.00  0.00     0.010 A 
ENDBRANCH   6  15
BRANCH   4  22
HETATM   22  N2  UNK     1      29.601  -7.113  36.059  1.00  0.00    -0.112 N 
HETATM   23  O3  UNK     1      28.485  -7.652  36.070  1.00  0.00    -0.534 OA
HETATM   24  O4  UNK     1      29.877  -6.022  36.580  1.00  0.00    -0.534 OA
ENDBRANCH   4  22
TORSDOF 2
ENDMDL
MODEL 6
REMARK VINA RESULT:      -7.4     29.830     32.788
REMARK  2 active torsions:
REMARK  status: ('A' for Active; 'I' for Inactive)
REMARK    1  A    between atoms: C1_7  and  N2_6 
REMARK    2  A    between atoms: C3_9  and  C7_13 
ROOT
HETATM    1  O1  UNK     1      31.910  -8.394  29.054  1.00  0.00    -0.261 OA
HETATM    2  O2  UNK     1      30.238 -10.378  31.709  1.00  0.00    -0.335 OA
HETATM    3  N1  UNK     1      33.371  -8.468  29.028  1.00  0.00    -0.197 NA
HETATM    4  C1  UNK     1      31.424  -9.568  29.706  1.00  0.00     0.255 C 
HETATM    5  C2  UNK     1      32.633 -10.431  30.022  1.00  0.00     0.103 C 
HETATM    6  C3  UNK     1      30.598  -9.212  30.951  1.00  0.00     0.226 C 
HETATM    7  C4  UNK     1      33.723  -9.379  30.118  1.00  0.00     0.135 C 
HETATM    8  C5  UNK     1      32.472 -11.249  31.273  1.00  0.00    -0.014 A 
HETATM    9  C6  UNK     1      31.295 -11.190  32.028  1.00  0.00     0.076 A 
HETATM   10  C8  UNK     1      33.491 -12.123  31.676  1.00  0.00     0.010 A 
HETATM   11  C9  UNK     1      33.828  -7.110  29.302  1.00  0.00     0.143 C 
HETATM   12  C10 UNK     1      31.129 -12.008  33.149  1.00  0.00     0.037 A 
HETATM   13  C13 UNK     1      33.333 -12.926  32.807  1.00  0.00     0.001 A 
HETATM   14  C14 UNK     1      32.151 -12.870  33.541  1.00  0.00     0.003 A 
ENDROOT
BRANCH   6  15
HETATM   15  C7  UNK     1      29.347  -8.397  30.655  1.00  0.00    -0.024 A 
HETATM   16  C11 UNK     1      29.433  -7.012  30.541  1.00  0.00     0.010 A 
HETATM   17  C15 UNK     1      28.287  -6.266  30.269  1.00  0.00     0.007 A 
HETATM   18  C17 UNK     1      27.058  -6.908  30.112  1.00  0.00    -0.062 A 
HETATM   19  C16 UNK     1      26.976  -8.295  30.226  1.00  0.00     0.007 A 
HETATM   20  C18 UNK     1      25.832  -6.109  29.821  1.00  0.00     0.048 C 
HETATM   21  C12 UNK     1      28.122  -9.041  30.498  1.00  0.00     0.010 A 
ENDBRANCH   6  15
BRANCH   4  22
HETATM   22  N2  UNK     1      30.585 -10.270  28.711  1.00  0.00    -0.112 N 
HETATM   23  O3  UNK     1      30.418  -9.719  27.613  1.00  0.00    -0.534 OA
HETATM   24  O4  UNK     1      30.120 -11.371  29.039  1.00  0.00    -0.534 OA
ENDBRANCH   4  22
TORSDOF 2
ENDMDL
MODEL 7
REMARK VINA RESULT:      -7.4     35.074     35.942
REMARK  2 active torsions:
REMARK  status: ('A' for Active; 'I' for Inactive)
REMARK    1  A    between atoms: C1_7  and  N2_6 
REMARK    2  A    between atoms: C3_9  and  C7_13 
ROOT
HETATM    1  O1  UNK     1      31.162  -9.698  36.001  1.00  0.00    -0.261 OA
HETATM    2  O2  UNK     1      31.080  -6.040  36.631  1.00  0.00    -0.335 OA
HETATM    3  N1  UNK     1      32.139 -10.152  35.011  1.00  0.00    -0.197 NA
HETATM    4  C1  UNK     1      31.612  -8.445  36.516  1.00  0.00     0.255 C 
HETATM    5  C2  UNK     1      32.957  -8.159  35.873  1.00  0.00     0.103 C 
HETATM    6  C3  UNK     1      30.578  -7.336  36.266  1.00  0.00     0.226 C 
HETATM    7  C4  UNK     1      32.829  -8.938  34.576  1.00  0.00     0.135 C 
HETATM    8  C5  UNK     1      33.224  -6.693  35.673  1.00  0.00    -0.014 A 
HETATM    9  C6  UNK     1      32.291  -5.728  36.071  1.00  0.00     0.076 A 
HETATM   10  C8  UNK     1      34.442  -6.270  35.122  1.00  0.00     0.010 A 
HETATM   11  C9  UNK     1      31.349 -10.730  33.930  1.00  0.00     0.143 C 
HETATM   12  C10 UNK     1      32.581  -4.367  35.946  1.00  0.00     0.037 A 
HETATM   13  C13 UNK     1      34.723  -4.910  34.978  1.00  0.00     0.001 A 
HETATM   14  C14 UNK     1      33.793  -3.960  35.393  1.00  0.00     0.003 A 
ENDROOT
BRANCH   6  15
HETATM   15  C7  UNK     1      29.239  -7.569  36.950  1.00  0.00    -0.024 A 
HETATM   16  C11 UNK     1      28.982  -6.985  38.188  1.00  0.00     0.010 A 
HETATM   17  C15 UNK     1      27.754  -7.198  38.814  1.00  0.00     0.007 A 
HETATM   18  C17 UNK     1      26.787  -7.996  38.201  1.00  0.00    -0.062 A 
HETATM   19  C16 UNK     1      27.048  -8.579  36.961  1.00  0.00     0.007 A 
HETATM   20  C18 UNK     1      25.475  -8.224  38.871  1.00  0.00     0.048 C 
HETATM   21  C12 UNK     1      28.277  -8.366  36.335  1.00  0.00     0.010 A 
ENDBRANCH   6  15
BRANCH   4  22
HETATM   22  N2  UNK     1      31.812  -8.648  37.968  1.00  0.00    -0.112 N 
HETATM   23  O3  UNK     1      31.298  -9.654  38.480  1.00  0.00    -0.534 OA
HETATM   24  O4  UNK     1      32.494  -7.806  38.569  1.00  0.00    -0.534 OA
ENDBRANCH   4  22
TORSDOF 2
ENDMDL
MODEL 8
REMARK VINA RESULT:      -7.4     34.990     36.248
REMARK  2 active torsions:
REMARK  status: ('A' for Active; 'I' for Inactive)
REMARK    1  A    between atoms: C1_7  and  N2_6 
REMARK    2  A    between atoms: C3_9  and  C7_13 
ROOT
HETATM    1  O1  UNK     1      31.039  -5.887  38.131  1.00  0.00    -0.261 OA
HETATM    2  O2  UNK     1      29.942  -8.508  35.742  1.00  0.00    -0.335 OA
HETATM    3  N1  UNK     1      30.009  -5.380  39.038  1.00  0.00    -0.197 NA
HETATM    4  C1  UNK     1      30.643  -7.191  37.704  1.00  0.00     0.255 C 
HETATM    5  C2  UNK     1      29.358  -7.526  38.440  1.00  0.00     0.103 C 
HETATM    6  C3  UNK     1      30.495  -7.255  36.176  1.00  0.00     0.226 C 
HETATM    7  C4  UNK     1      28.803  -6.137  38.701  1.00  0.00     0.135 C 
HETATM    8  C5  UNK     1      28.431  -8.408  37.651  1.00  0.00    -0.014 A 
HETATM    9  C6  UNK     1      28.775  -8.856  36.370  1.00  0.00     0.076 A 
HETATM   10  C8  UNK     1      27.218  -8.833  38.213  1.00  0.00     0.010 A 
HETATM   11  C9  UNK     1      29.862  -3.969  38.700  1.00  0.00     0.143 C 
HETATM   12  C10 UNK     1      27.937  -9.733  35.676  1.00  0.00     0.037 A 
HETATM   13  C13 UNK     1      26.372  -9.692  37.511  1.00  0.00     0.001 A 
HETATM   14  C14 UNK     1      26.734 -10.145  36.245  1.00  0.00     0.003 A 
ENDROOT
BRANCH   6  15
HETATM   15  C7  UNK     1      31.784  -6.982  35.415  1.00  0.00    -0.024 A 
HETATM   16  C11 UNK     1      32.233  -5.673  35.261  1.00  0.00     0.010 A 
HETATM   17  C15 UNK     1      33.415  -5.423  34.564  1.00  0.00     0.007 A 
HETATM   18  C17 UNK     1      34.143  -6.483  34.022  1.00  0.00    -0.062 A 
HETATM   19  C16 UNK     1      33.689  -7.792  34.178  1.00  0.00     0.007 A 
HETATM   20  C18 UNK     1      35.407  -6.215  33.276  1.00  0.00     0.048 C 
HETATM   21  C12 UNK     1      32.507  -8.042  34.875  1.00  0.00     0.010 A 
ENDBRANCH   6  15
BRANCH   4  22
HETATM   22  N2  UNK     1      31.707  -8.111  38.160  1.00  0.00    -0.112 N 
HETATM   23  O3  UNK     1      31.401  -9.302  38.321  1.00  0.00    -0.534 OA
HETATM   24  O4  UNK     1      32.836  -7.630  38.334  1.00  0.00    -0.534 OA
ENDBRANCH   4  22
TORSDOF 2
ENDMDL
MODEL 9
REMARK VINA RESULT:      -7.4     30.436     32.957
REMARK  2 active torsions:
REMARK  status: ('A' for Active; 'I' for Inactive)
REMARK    1  A    between atoms: C1_7  and  N2_6 
REMARK    2  A    between atoms: C3_9  and  C7_13 
ROOT
HETATM    1  O1  UNK     1      32.124  -8.209  31.136  1.00  0.00    -0.261 OA
HETATM    2  O2  UNK     1      31.223  -5.599  33.617  1.00  0.00    -0.335 OA
HETATM    3  N1  UNK     1      33.555  -8.378  30.880  1.00  0.00    -0.197 NA
HETATM    4  C1  UNK     1      31.977  -7.623  32.429  1.00  0.00     0.255 C 
HETATM    5  C2  UNK     1      33.370  -7.501  33.021  1.00  0.00     0.103 C 
HETATM    6  C3  UNK     1      31.238  -6.279  32.351  1.00  0.00     0.226 C 
HETATM    7  C4  UNK     1      34.213  -7.414  31.762  1.00  0.00     0.135 C 
HETATM    8  C5  UNK     1      33.528  -6.320  33.937  1.00  0.00    -0.014 A 
HETATM    9  C6  UNK     1      32.458  -5.455  34.193  1.00  0.00     0.076 A 
HETATM   10  C8  UNK     1      34.750  -6.095  34.588  1.00  0.00     0.010 A 
HETATM   11  C9  UNK     1      33.738  -8.027  29.477  1.00  0.00     0.143 C 
HETATM   12  C10 UNK     1      32.597  -4.402  35.101  1.00  0.00     0.037 A 
HETATM   13  C13 UNK     1      34.895  -5.031  35.480  1.00  0.00     0.001 A 
HETATM   14  C14 UNK     1      33.817  -4.188  35.738  1.00  0.00     0.003 A 
ENDROOT
BRANCH   6  15
HETATM   15  C7  UNK     1      29.816  -6.381  31.817  1.00  0.00    -0.024 A 
HETATM   16  C11 UNK     1      29.601  -6.590  30.457  1.00  0.00     0.010 A 
HETATM   17  C15 UNK     1      28.298  -6.685  29.969  1.00  0.00     0.007 A 
HETATM   18  C17 UNK     1      27.215  -6.569  30.841  1.00  0.00    -0.062 A 
HETATM   19  C16 UNK     1      27.435  -6.360  32.202  1.00  0.00     0.007 A 
HETATM   20  C18 UNK     1      25.822  -6.670  30.317  1.00  0.00     0.048 C 
HETATM   21  C12 UNK     1      28.738  -6.265  32.691  1.00  0.00     0.010 A 
ENDBRANCH   6  15
BRANCH   4  22
HETATM   22  N2  UNK     1      31.202  -8.594  33.232  1.00  0.00    -0.112 N 
HETATM   23  O3  UNK     1      30.533  -9.438  32.618  1.00  0.00    -0.534 OA
HETATM   24  O4  UNK     1      31.288  -8.506  34.465  1.00  0.00    -0.534 OA
ENDBRANCH   4  22
TORSDOF 2
ENDMDL
MODEL 10
REMARK VINA RESULT:      -7.4     32.204     34.955
REMARK  2 active torsions:
REMARK  status: ('A' for Active; 'I' for Inactive)
REMARK    1  A    between atoms: C1_7  and  N2_6 
REMARK    2  A    between atoms: C3_9  and  C7_13 
ROOT
HETATM    1  O1  UNK     1      30.308  -6.231  36.227  1.00  0.00    -0.261 OA
HETATM    2  O2  UNK     1      27.803  -8.960  35.988  1.00  0.00    -0.335 OA
HETATM    3  N1  UNK     1      30.536  -5.691  37.568  1.00  0.00    -0.197 NA
HETATM    4  C1  UNK     1      29.791  -7.554  36.370  1.00  0.00     0.255 C 
HETATM    5  C2  UNK     1      29.777  -7.865  37.856  1.00  0.00     0.103 C 
HETATM    6  C3  UNK     1      28.408  -7.686  35.715  1.00  0.00     0.226 C 
HETATM    7  C4  UNK     1      29.660  -6.469  38.443  1.00  0.00     0.135 C 
HETATM    8  C5  UNK     1      28.661  -8.786  38.263  1.00  0.00    -0.014 A 
HETATM    9  C6  UNK     1      27.757  -9.288  37.318  1.00  0.00     0.076 A 
HETATM   10  C8  UNK     1      28.537  -9.193  39.599  1.00  0.00     0.010 A 
HETATM   11  C9  UNK     1      30.114  -4.297  37.496  1.00  0.00     0.143 C 
HETATM   12  C10 UNK     1      26.768 -10.199  37.696  1.00  0.00     0.037 A 
HETATM   13  C13 UNK     1      27.537 -10.088  39.980  1.00  0.00     0.001 A 
HETATM   14  C14 UNK     1      26.655 -10.593  39.028  1.00  0.00     0.003 A 
ENDROOT
BRANCH   6  15
HETATM   15  C7  UNK     1      28.405  -7.438  34.214  1.00  0.00    -0.024 A 
HETATM   16  C11 UNK     1      28.506  -8.512  33.334  1.00  0.00     0.010 A 
HETATM   17  C15 UNK     1      28.502  -8.285  31.958  1.00  0.00     0.007 A 
HETATM   18  C17 UNK     1      28.399  -6.983  31.466  1.00  0.00    -0.062 A 
HETATM   19  C16 UNK     1      28.299  -5.910  32.351  1.00  0.00     0.007 A 
HETATM   20  C18 UNK     1      28.396  -6.741  29.994  1.00  0.00     0.048 C 
HETATM   21  C12 UNK     1      28.303  -6.137  33.727  1.00  0.00     0.010 A 
ENDBRANCH   6  15
BRANCH   4  22
HETATM   22  N2  UNK     1      30.766  -8.447  35.706  1.00  0.00    -0.112 N 
HETATM   23  O3  UNK     1      31.589  -7.925  34.940  1.00  0.00    -0.534 OA
HETATM   24  O4  UNK     1      30.702  -9.655  35.976  1.00  0.00    -0.534 OA
ENDBRANCH   4  22
TORSDOF 2
ENDMDL
