MODEL 1
REMARK VINA RESULT:      -8.5      0.000      0.000
REMARK  6 active torsions:
REMARK  status: ('A' for Active; 'I' for Inactive)
REMARK    1  A    between atoms: C10_15  and  O1_1 
REMARK    2  A    between atoms: C4_9  and  O1_1 
REMARK    3  A    between atoms: C23_28  and  N1_4 
REMARK    4  A    between atoms: C1_6  and  C4_9 
REMARK    5  A    between atoms: C11_16  and  C14_19 
REMARK    6  A    between atoms: C17_22  and  C18_23 
ROOT
HETATM    1  N2  UNK     1      35.200  -6.152  35.710  1.00  0.00    -0.191 NA
HETATM    2  C14 UNK     1      32.337  -6.431  33.865  1.00  0.00     0.037 C 
HETATM    3  C17 UNK     1      32.687  -6.032  35.088  1.00  0.00     0.055 C 
HETATM    4  C26 UNK     1      34.075  -6.099  35.430  1.00  0.00     0.100 C 
ENDROOT
BRANCH   3   5
HETATM    5  C18 UNK     1      31.749  -5.541  36.119  1.00  0.00    -0.015 A 
HETATM    6  C21 UNK     1      31.022  -6.456  36.858  1.00  0.00     0.015 A 
HETATM    7  C24 UNK     1      30.137  -5.994  37.832  1.00  0.00     0.037 A 
HETATM    8  C23 UNK     1      29.995  -4.624  38.052  1.00  0.00     0.102 A 
HETATM    9  C25 UNK     1      30.737  -3.716  37.296  1.00  0.00     0.037 A 
HETATM   10  C22 UNK     1      31.622  -4.178  36.322  1.00  0.00     0.015 A 
BRANCH   8  11
HETATM   11  N1  UNK     1      29.094  -4.153  39.043  1.00  0.00    -0.116 N 
HETATM   12  O2  UNK     1      29.554  -3.593  40.067  1.00  0.00    -0.532 OA
HETATM   13  O3  UNK     1      27.861  -4.308  38.866  1.00  0.00    -0.532 OA
ENDBRANCH   8  11
ENDBRANCH   3   5
BRANCH   2  14
HETATM   14  C11 UNK     1      30.966  -6.406  33.374  1.00  0.00    -0.001 A 
HETATM   15  C10 UNK     1      30.140  -7.522  33.478  1.00  0.00     0.079 A 
HETATM   16  C15 UNK     1      28.833  -7.480  33.004  1.00  0.00     0.037 A 
HETATM   17  C19 UNK     1      28.347  -6.311  32.418  1.00  0.00     0.003 A 
HETATM   18  C20 UNK     1      29.170  -5.191  32.309  1.00  0.00     0.001 A 
HETATM   19  C16 UNK     1      30.479  -5.238  32.788  1.00  0.00     0.014 A 
BRANCH  15  20
HETATM   20  O1  UNK     1      30.594  -8.682  34.049  1.00  0.00    -0.346 OA
BRANCH  20  21
HETATM   21  C4  UNK     1      29.613  -9.562  34.580  1.00  0.00     0.215 C 
BRANCH  21  22
HETATM   22  C1  UNK     1      29.767  -9.627  36.068  1.00  0.00    -0.023 A 
HETATM   23  C2  UNK     1      28.707  -9.326  36.940  1.00  0.00    -0.018 A 
HETATM   24  C3  UNK     1      28.915  -9.407  38.337  1.00  0.00    -0.025 A 
HETATM   25  C6  UNK     1      27.445  -8.946  36.455  1.00  0.00     0.013 A 
HETATM   26  C7  UNK     1      30.177  -9.787  38.822  1.00  0.00     0.012 A 
HETATM   27  C8  UNK     1      27.856  -9.106  39.209  1.00  0.00     0.012 A 
HETATM   28  C9  UNK     1      31.219 -10.083  37.942  1.00  0.00     0.002 A 
HETATM   29  C5  UNK     1      31.014 -10.003  36.567  1.00  0.00     0.010 A 
HETATM   30  C13 UNK     1      26.608  -8.730  38.709  1.00  0.00     0.001 A 
HETATM   31  C12 UNK     1      26.403  -8.651  37.335  1.00  0.00     0.001 A 
ENDBRANCH  21  22
ENDBRANCH  20  21
ENDBRANCH  15  20
ENDBRANCH   2  14
TORSDOF 6
ENDMDL
MODEL 2
REMARK VINA RESULT:      -8.2      3.295      6.680
REMARK  6 active torsions:
REMARK  status: ('A' for Active; 'I' for Inactive)
REMARK    1  A    between atoms: C10_15  and  O1_1 
REMARK    2  A    between atoms: C4_9  and  O1_1 
REMARK    3  A    between atoms: C23_28  and  N1_4 
REMARK    4  A    between atoms: C1_6  and  C4_9 
REMARK    5  A    between atoms: C11_16  and  C14_19 
REMARK    6  A    between atoms: C17_22  and  C18_23 
ROOT
HETATM    1  N2  UNK     1      29.997  -3.265  31.394  1.00  0.00    -0.191 NA
HETATM    2  C14 UNK     1      29.793  -6.005  33.427  1.00  0.00     0.037 C 
HETATM    3  C17 UNK     1      29.848  -5.748  32.119  1.00  0.00     0.055 C 
HETATM    4  C26 UNK     1      29.930  -4.377  31.720  1.00  0.00     0.100 C 
ENDROOT
BRANCH   3   5
HETATM    5  C18 UNK     1      29.814  -6.772  31.054  1.00  0.00    -0.015 A 
HETATM    6  C21 UNK     1      31.006  -7.282  30.571  1.00  0.00     0.015 A 
HETATM    7  C24 UNK     1      30.975  -8.249  29.567  1.00  0.00     0.037 A 
HETATM    8  C23 UNK     1      29.752  -8.691  29.062  1.00  0.00     0.102 A 
HETATM    9  C25 UNK     1      28.560  -8.165  29.561  1.00  0.00     0.037 A 
HETATM   10  C22 UNK     1      28.591  -7.198  30.565  1.00  0.00     0.015 A 
BRANCH   8  11
HETATM   11  N1  UNK     1      29.720  -9.675  28.039  1.00  0.00    -0.116 N 
HETATM   12  O2  UNK     1      30.768  -9.914  27.392  1.00  0.00    -0.532 OA
HETATM   13  O3  UNK     1      28.645 -10.281  27.812  1.00  0.00    -0.532 OA
ENDBRANCH   8  11
ENDBRANCH   3   5
BRANCH   2  14
HETATM   14  C11 UNK     1      29.721  -7.351  33.979  1.00  0.00    -0.001 A 
HETATM   15  C10 UNK     1      30.857  -8.000  34.453  1.00  0.00     0.079 A 
HETATM   16  C15 UNK     1      30.770  -9.286  34.976  1.00  0.00     0.037 A 
HETATM   17  C19 UNK     1      29.534  -9.930  35.026  1.00  0.00     0.003 A 
HETATM   18  C20 UNK     1      28.392  -9.285  34.552  1.00  0.00     0.001 A 
HETATM   19  C16 UNK     1      28.485  -7.995  34.029  1.00  0.00     0.014 A 
BRANCH  15  20
HETATM   20  O1  UNK     1      32.084  -7.389  34.414  1.00  0.00    -0.346 OA
BRANCH  20  21
HETATM   21  C4  UNK     1      32.694  -7.097  35.663  1.00  0.00     0.215 C 
BRANCH  21  22
HETATM   22  C1  UNK     1      32.245  -5.745  36.125  1.00  0.00    -0.023 A 
HETATM   23  C2  UNK     1      31.238  -5.584  37.091  1.00  0.00    -0.018 A 
HETATM   24  C3  UNK     1      30.859  -4.279  37.485  1.00  0.00    -0.025 A 
HETATM   25  C6  UNK     1      30.599  -6.691  37.674  1.00  0.00     0.013 A 
HETATM   26  C7  UNK     1      31.499  -3.173  36.902  1.00  0.00     0.012 A 
HETATM   27  C8  UNK     1      29.852  -4.118  38.451  1.00  0.00     0.012 A 
HETATM   28  C9  UNK     1      32.497  -3.351  35.943  1.00  0.00     0.002 A 
HETATM   29  C5  UNK     1      32.869  -4.635  35.555  1.00  0.00     0.010 A 
HETATM   30  C13 UNK     1      29.228  -5.229  39.019  1.00  0.00     0.001 A 
HETATM   31  C12 UNK     1      29.601  -6.513  38.632  1.00  0.00     0.001 A 
ENDBRANCH  21  22
ENDBRANCH  20  21
ENDBRANCH  15  20
ENDBRANCH   2  14
TORSDOF 6
ENDMDL
MODEL 3
REMARK VINA RESULT:      -8.0      2.823      5.894
REMARK  6 active torsions:
REMARK  status: ('A' for Active; 'I' for Inactive)
REMARK    1  A    between atoms: C10_15  and  O1_1 
REMARK    2  A    between atoms: C4_9  and  O1_1 
REMARK    3  A    between atoms: C23_28  and  N1_4 
REMARK    4  A    between atoms: C1_6  and  C4_9 
REMARK    5  A    between atoms: C11_16  and  C14_19 
REMARK    6  A    between atoms: C17_22  and  C18_23 
ROOT
HETATM    1  N2  UNK     1      27.081  -6.471  37.586  1.00  0.00    -0.191 NA
HETATM    2  C14 UNK     1      28.756  -8.933  35.908  1.00  0.00     0.037 C 
HETATM    3  C17 UNK     1      28.462  -7.644  35.733  1.00  0.00     0.055 C 
HETATM    4  C26 UNK     1      27.700  -6.998  36.757  1.00  0.00     0.100 C 
ENDROOT
BRANCH   3   5
HETATM    5  C18 UNK     1      28.852  -6.839  34.557  1.00  0.00    -0.015 A 
HETATM    6  C21 UNK     1      27.890  -6.506  33.620  1.00  0.00     0.015 A 
HETATM    7  C24 UNK     1      28.257  -5.746  32.510  1.00  0.00     0.037 A 
HETATM    8  C23 UNK     1      29.580  -5.330  32.355  1.00  0.00     0.102 A 
HETATM    9  C25 UNK     1      30.536  -5.677  33.310  1.00  0.00     0.037 A 
HETATM   10  C22 UNK     1      30.169  -6.437  34.420  1.00  0.00     0.015 A 
BRANCH   8  11
HETATM   11  N1  UNK     1      29.953  -4.557  31.224  1.00  0.00    -0.116 N 
HETATM   12  O2  UNK     1      30.262  -5.145  30.160  1.00  0.00    -0.532 OA
HETATM   13  O3  UNK     1      29.962  -3.306  31.320  1.00  0.00    -0.532 OA
ENDBRANCH   8  11
ENDBRANCH   3   5
BRANCH   2  14
HETATM   14  C11 UNK     1      29.535  -9.715  34.957  1.00  0.00    -0.001 A 
HETATM   15  C10 UNK     1      30.848 -10.085  35.231  1.00  0.00     0.079 A 
HETATM   16  C15 UNK     1      31.578 -10.832  34.312  1.00  0.00     0.037 A 
HETATM   17  C19 UNK     1      30.988 -11.213  33.106  1.00  0.00     0.003 A 
HETATM   18  C20 UNK     1      29.673 -10.844  32.826  1.00  0.00     0.001 A 
HETATM   19  C16 UNK     1      28.946 -10.096  33.752  1.00  0.00     0.014 A 
BRANCH  15  20
HETATM   20  O1  UNK     1      31.451  -9.724  36.408  1.00  0.00    -0.346 OA
BRANCH  20  21
HETATM   21  C4  UNK     1      32.642  -8.957  36.309  1.00  0.00     0.215 C 
BRANCH  21  22
HETATM   22  C1  UNK     1      32.369  -7.563  36.783  1.00  0.00    -0.023 A 
HETATM   23  C2  UNK     1      32.942  -6.440  36.163  1.00  0.00    -0.018 A 
HETATM   24  C3  UNK     1      32.643  -5.148  36.658  1.00  0.00    -0.025 A 
HETATM   25  C6  UNK     1      33.804  -6.571  35.062  1.00  0.00     0.013 A 
HETATM   26  C7  UNK     1      31.781  -5.017  37.759  1.00  0.00     0.012 A 
HETATM   27  C8  UNK     1      33.216  -4.025  36.038  1.00  0.00     0.012 A 
HETATM   28  C9  UNK     1      31.221  -6.144  38.363  1.00  0.00     0.002 A 
HETATM   29  C5  UNK     1      31.515  -7.414  37.875  1.00  0.00     0.010 A 
HETATM   30  C13 UNK     1      34.071  -4.175  34.945  1.00  0.00     0.001 A 
HETATM   31  C12 UNK     1      34.363  -5.445  34.458  1.00  0.00     0.001 A 
ENDBRANCH  21  22
ENDBRANCH  20  21
ENDBRANCH  15  20
ENDBRANCH   2  14
TORSDOF 6
ENDMDL
MODEL 4
REMARK VINA RESULT:      -8.0      3.168      6.176
REMARK  6 active torsions:
REMARK  status: ('A' for Active; 'I' for Inactive)
REMARK    1  A    between atoms: C10_15  and  O1_1 
REMARK    2  A    between atoms: C4_9  and  O1_1 
REMARK    3  A    between atoms: C23_28  and  N1_4 
REMARK    4  A    between atoms: C1_6  and  C4_9 
REMARK    5  A    between atoms: C11_16  and  C14_19 
REMARK    6  A    between atoms: C17_22  and  C18_23 
ROOT
HETATM    1  N2  UNK     1      29.057  -9.402  33.131  1.00  0.00    -0.191 NA
HETATM    2  C14 UNK     1      31.148  -7.187  34.680  1.00  0.00     0.037 C 
HETATM    3  C17 UNK     1      31.060  -7.801  33.499  1.00  0.00     0.055 C 
HETATM    4  C26 UNK     1      29.954  -8.684  33.297  1.00  0.00     0.100 C 
ENDROOT
BRANCH   3   5
HETATM    5  C18 UNK     1      32.027  -7.648  32.392  1.00  0.00    -0.015 A 
HETATM    6  C21 UNK     1      31.596  -7.126  31.187  1.00  0.00     0.015 A 
HETATM    7  C24 UNK     1      32.509  -6.980  30.142  1.00  0.00     0.037 A 
HETATM    8  C23 UNK     1      33.839  -7.359  30.321  1.00  0.00     0.102 A 
HETATM    9  C25 UNK     1      34.256  -7.884  31.544  1.00  0.00     0.037 A 
HETATM   10  C22 UNK     1      33.343  -8.029  32.589  1.00  0.00     0.015 A 
BRANCH   8  11
HETATM   11  N1  UNK     1      34.768  -7.211  29.258  1.00  0.00    -0.116 N 
HETATM   12  O2  UNK     1      34.782  -8.065  28.339  1.00  0.00    -0.532 OA
HETATM   13  O3  UNK     1      35.549  -6.229  29.265  1.00  0.00    -0.532 OA
ENDBRANCH   8  11
ENDBRANCH   3   5
BRANCH   2  14
HETATM   14  C11 UNK     1      32.211  -6.251  35.022  1.00  0.00    -0.001 A 
HETATM   15  C10 UNK     1      33.197  -6.584  35.946  1.00  0.00     0.079 A 
HETATM   16  C15 UNK     1      34.204  -5.677  36.261  1.00  0.00     0.037 A 
HETATM   17  C19 UNK     1      34.226  -4.426  35.646  1.00  0.00     0.003 A 
HETATM   18  C20 UNK     1      33.240  -4.087  34.720  1.00  0.00     0.001 A 
HETATM   19  C16 UNK     1      32.233  -5.000  34.407  1.00  0.00     0.014 A 
BRANCH  15  20
HETATM   20  O1  UNK     1      33.198  -7.807  36.565  1.00  0.00    -0.346 OA
BRANCH  20  21
HETATM   21  C4  UNK     1      32.919  -7.820  37.958  1.00  0.00     0.215 C 
BRANCH  21  22
HETATM   22  C1  UNK     1      31.440  -7.944  38.161  1.00  0.00    -0.023 A 
HETATM   23  C2  UNK     1      30.625  -6.825  38.402  1.00  0.00    -0.018 A 
HETATM   24  C3  UNK     1      29.234  -7.009  38.585  1.00  0.00    -0.025 A 
HETATM   25  C6  UNK     1      31.162  -5.529  38.465  1.00  0.00     0.013 A 
HETATM   26  C7  UNK     1      28.698  -8.306  38.522  1.00  0.00     0.012 A 
HETATM   27  C8  UNK     1      28.420  -5.890  38.827  1.00  0.00     0.012 A 
HETATM   28  C9  UNK     1      29.523  -9.406  38.282  1.00  0.00     0.002 A 
HETATM   29  C5  UNK     1      30.891  -9.225  38.102  1.00  0.00     0.010 A 
HETATM   30  C13 UNK     1      28.970  -4.609  38.886  1.00  0.00     0.001 A 
HETATM   31  C12 UNK     1      30.338  -4.429  38.705  1.00  0.00     0.001 A 
ENDBRANCH  21  22
ENDBRANCH  20  21
ENDBRANCH  15  20
ENDBRANCH   2  14
TORSDOF 6
ENDMDL
MODEL 5
REMARK VINA RESULT:      -8.0      4.400      7.377
REMARK  6 active torsions:
REMARK  status: ('A' for Active; 'I' for Inactive)
REMARK    1  A    between atoms: C10_15  and  O1_1 
REMARK    2  A    between atoms: C4_9  and  O1_1 
REMARK    3  A    between atoms: C23_28  and  N1_4 
REMARK    4  A    between atoms: C1_6  and  C4_9 
REMARK    5  A    between atoms: C11_16  and  C14_19 
REMARK    6  A    between atoms: C17_22  and  C18_23 
ROOT
HETATM    1  N2  UNK     1      30.553 -14.107  30.441  1.00  0.00    -0.191 NA
HETATM    2  C14 UNK     1      32.559 -11.341  30.496  1.00  0.00     0.037 C 
HETATM    3  C17 UNK     1      31.505 -11.809  31.166  1.00  0.00     0.055 C 
HETATM    4  C26 UNK     1      30.981 -13.078  30.765  1.00  0.00     0.100 C 
ENDROOT
BRANCH   3   5
HETATM    5  C18 UNK     1      30.830 -11.108  32.278  1.00  0.00    -0.015 A 
HETATM    6  C21 UNK     1      29.877 -10.148  31.990  1.00  0.00     0.015 A 
HETATM    7  C24 UNK     1      29.239  -9.487  33.040  1.00  0.00     0.037 A 
HETATM    8  C23 UNK     1      29.565  -9.798  34.361  1.00  0.00     0.102 A 
HETATM    9  C25 UNK     1      30.529 -10.769  34.631  1.00  0.00     0.037 A 
HETATM   10  C22 UNK     1      31.167 -11.430  33.581  1.00  0.00     0.015 A 
BRANCH   8  11
HETATM   11  N1  UNK     1      28.916  -9.125  35.429  1.00  0.00    -0.116 N 
HETATM   12  O2  UNK     1      27.766  -9.492  35.770  1.00  0.00    -0.532 OA
HETATM   13  O3  UNK     1      29.511  -8.182  36.004  1.00  0.00    -0.532 OA
ENDBRANCH   8  11
ENDBRANCH   3   5
BRANCH   2  14
HETATM   14  C11 UNK     1      33.206 -10.072  30.801  1.00  0.00    -0.001 A 
HETATM   15  C10 UNK     1      33.225  -9.030  29.878  1.00  0.00     0.079 A 
HETATM   16  C15 UNK     1      33.848  -7.825  30.186  1.00  0.00     0.037 A 
HETATM   17  C19 UNK     1      34.458  -7.659  31.430  1.00  0.00     0.003 A 
HETATM   18  C20 UNK     1      34.443  -8.700  32.358  1.00  0.00     0.001 A 
HETATM   19  C16 UNK     1      33.816  -9.906  32.044  1.00  0.00     0.014 A 
BRANCH  15  20
HETATM   20  O1  UNK     1      32.634  -9.167  28.649  1.00  0.00    -0.346 OA
BRANCH  20  21
HETATM   21  C4  UNK     1      31.699  -8.166  28.273  1.00  0.00     0.215 C 
BRANCH  21  22
HETATM   22  C1  UNK     1      30.312  -8.663  28.540  1.00  0.00    -0.023 A 
HETATM   23  C2  UNK     1      29.406  -7.948  29.341  1.00  0.00    -0.018 A 
HETATM   24  C3  UNK     1      28.109  -8.471  29.556  1.00  0.00    -0.025 A 
HETATM   25  C6  UNK     1      29.760  -6.724  29.933  1.00  0.00     0.013 A 
HETATM   26  C7  UNK     1      27.756  -9.695  28.964  1.00  0.00     0.012 A 
HETATM   27  C8  UNK     1      27.203  -7.756  30.357  1.00  0.00     0.012 A 
HETATM   28  C9  UNK     1      28.669 -10.392  28.171  1.00  0.00     0.002 A 
HETATM   29  C5  UNK     1      29.944  -9.877  27.960  1.00  0.00     0.010 A 
HETATM   30  C13 UNK     1      27.572  -6.542  30.937  1.00  0.00     0.001 A 
HETATM   31  C12 UNK     1      28.848  -6.027  30.725  1.00  0.00     0.001 A 
ENDBRANCH  21  22
ENDBRANCH  20  21
ENDBRANCH  15  20
ENDBRANCH   2  14
TORSDOF 6
ENDMDL
MODEL 6
REMARK VINA RESULT:      -7.9      2.656      5.508
REMARK  6 active torsions:
REMARK  status: ('A' for Active; 'I' for Inactive)
REMARK    1  A    between atoms: C10_15  and  O1_1 
REMARK    2  A    between atoms: C4_9  and  O1_1 
REMARK    3  A    between atoms: C23_28  and  N1_4 
REMARK    4  A    between atoms: C1_6  and  C4_9 
REMARK    5  A    between atoms: C11_16  and  C14_19 
REMARK    6  A    between atoms: C17_22  and  C18_23 
ROOT
HETATM    1  N2  UNK     1      31.082 -10.856  38.355  1.00  0.00    -0.191 NA
HETATM    2  C14 UNK     1      31.989  -8.201  36.403  1.00  0.00     0.037 C 
HETATM    3  C17 UNK     1      31.016  -8.507  37.263  1.00  0.00     0.055 C 
HETATM    4  C26 UNK     1      31.054  -9.804  37.865  1.00  0.00     0.100 C 
ENDROOT
BRANCH   3   5
HETATM    5  C18 UNK     1      29.897  -7.614  37.626  1.00  0.00    -0.015 A 
HETATM    6  C21 UNK     1      28.672  -7.782  37.006  1.00  0.00     0.015 A 
HETATM    7  C24 UNK     1      27.614  -6.940  37.349  1.00  0.00     0.037 A 
HETATM    8  C23 UNK     1      27.799  -5.944  38.309  1.00  0.00     0.102 A 
HETATM    9  C25 UNK     1      29.041  -5.790  38.924  1.00  0.00     0.037 A 
HETATM   10  C22 UNK     1      30.099  -6.632  38.580  1.00  0.00     0.015 A 
BRANCH   8  11
HETATM   11  N1  UNK     1      26.722  -5.087  38.658  1.00  0.00    -0.116 N 
HETATM   12  O2  UNK     1      25.550  -5.530  38.605  1.00  0.00    -0.532 OA
HETATM   13  O3  UNK     1      26.973  -3.910  39.013  1.00  0.00    -0.532 OA
ENDBRANCH   8  11
ENDBRANCH   3   5
BRANCH   2  14
HETATM   14  C11 UNK     1      32.087  -6.916  35.725  1.00  0.00    -0.001 A 
HETATM   15  C10 UNK     1      31.424  -6.679  34.525  1.00  0.00     0.079 A 
HETATM   16  C15 UNK     1      31.529  -5.445  33.891  1.00  0.00     0.037 A 
HETATM   17  C19 UNK     1      32.305  -4.437  34.463  1.00  0.00     0.003 A 
HETATM   18  C20 UNK     1      32.972  -4.669  35.665  1.00  0.00     0.001 A 
HETATM   19  C16 UNK     1      32.863  -5.908  36.297  1.00  0.00     0.014 A 
BRANCH  15  20
HETATM   20  O1  UNK     1      30.655  -7.653  33.941  1.00  0.00    -0.346 OA
BRANCH  20  21
HETATM   21  C4  UNK     1      30.897  -7.924  32.569  1.00  0.00     0.215 C 
BRANCH  21  22
HETATM   22  C1  UNK     1      29.598  -7.893  31.825  1.00  0.00    -0.023 A 
HETATM   23  C2  UNK     1      29.353  -8.723  30.719  1.00  0.00    -0.018 A 
HETATM   24  C3  UNK     1      28.103  -8.646  30.059  1.00  0.00    -0.025 A 
HETATM   25  C6  UNK     1      30.321  -9.628  30.253  1.00  0.00     0.013 A 
HETATM   26  C7  UNK     1      27.135  -7.741  30.524  1.00  0.00     0.012 A 
HETATM   27  C8  UNK     1      27.858  -9.476  28.952  1.00  0.00     0.012 A 
HETATM   28  C9  UNK     1      27.396  -6.923  31.625  1.00  0.00     0.002 A 
HETATM   29  C5  UNK     1      28.625  -6.999  32.274  1.00  0.00     0.010 A 
HETATM   30  C13 UNK     1      28.832 -10.369  28.504  1.00  0.00     0.001 A 
HETATM   31  C12 UNK     1      30.061 -10.445  29.153  1.00  0.00     0.001 A 
ENDBRANCH  21  22
ENDBRANCH  20  21
ENDBRANCH  15  20
ENDBRANCH   2  14
TORSDOF 6
ENDMDL
MODEL 7
REMARK VINA RESULT:      -7.8      2.864      6.141
REMARK  6 active torsions:
REMARK  status: ('A' for Active; 'I' for Inactive)
REMARK    1  A    between atoms: C10_15  and  O1_1 
REMARK    2  A    between atoms: C4_9  and  O1_1 
REMARK    3  A    between atoms: C23_28  and  N1_4 
REMARK    4  A    between atoms: C1_6  and  C4_9 
REMARK    5  A    between atoms: C11_16  and  C14_19 
REMARK    6  A    between atoms: C17_22  and  C18_23 
ROOT
HETATM    1  N2  UNK     1      27.872  -6.322  33.712  1.00  0.00    -0.191 NA
HETATM    2  C14 UNK     1      31.112  -6.083  34.773  1.00  0.00     0.037 C 
HETATM    3  C17 UNK     1      30.449  -6.601  33.738  1.00  0.00     0.055 C 
HETATM    4  C26 UNK     1      29.027  -6.446  33.725  1.00  0.00     0.100 C 
ENDROOT
BRANCH   3   5
HETATM    5  C18 UNK     1      31.070  -7.334  32.616  1.00  0.00    -0.015 A 
HETATM    6  C21 UNK     1      31.429  -6.640  31.474  1.00  0.00     0.015 A 
HETATM    7  C24 UNK     1      32.016  -7.332  30.415  1.00  0.00     0.037 A 
HETATM    8  C23 UNK     1      32.236  -8.706  30.515  1.00  0.00     0.102 A 
HETATM    9  C25 UNK     1      31.867  -9.388  31.674  1.00  0.00     0.037 A 
HETATM   10  C22 UNK     1      31.280  -8.697  32.734  1.00  0.00     0.015 A 
BRANCH   8  11
HETATM   11  N1  UNK     1      32.834  -9.409  29.436  1.00  0.00    -0.116 N 
HETATM   12  O2  UNK     1      33.289 -10.560  29.639  1.00  0.00    -0.532 OA
HETATM   13  O3  UNK     1      32.888  -8.861  28.309  1.00  0.00    -0.532 OA
ENDBRANCH   8  11
ENDBRANCH   3   5
BRANCH   2  14
HETATM   14  C11 UNK     1      32.561  -6.152  34.913  1.00  0.00    -0.001 A 
HETATM   15  C10 UNK     1      33.174  -7.217  35.566  1.00  0.00     0.079 A 
HETATM   16  C15 UNK     1      34.559  -7.267  35.691  1.00  0.00     0.037 A 
HETATM   17  C19 UNK     1      35.338  -6.240  35.159  1.00  0.00     0.003 A 
HETATM   18  C20 UNK     1      34.730  -5.169  34.506  1.00  0.00     0.001 A 
HETATM   19  C16 UNK     1      33.341  -5.125  34.382  1.00  0.00     0.014 A 
BRANCH  15  20
HETATM   20  O1  UNK     1      32.431  -8.239  36.097  1.00  0.00    -0.346 OA
BRANCH  20  21
HETATM   21  C4  UNK     1      32.396  -8.336  37.514  1.00  0.00     0.215 C 
BRANCH  21  22
HETATM   22  C1  UNK     1      30.979  -8.204  37.980  1.00  0.00    -0.023 A 
HETATM   23  C2  UNK     1      30.425  -6.963  38.337  1.00  0.00    -0.018 A 
HETATM   24  C3  UNK     1      29.079  -6.905  38.770  1.00  0.00    -0.025 A 
HETATM   25  C6  UNK     1      31.179  -5.780  38.274  1.00  0.00     0.013 A 
HETATM   26  C7  UNK     1      28.326  -8.088  38.833  1.00  0.00     0.012 A 
HETATM   27  C8  UNK     1      28.526  -5.663  39.127  1.00  0.00     0.012 A 
HETATM   28  C9  UNK     1      28.892  -9.312  38.475  1.00  0.00     0.002 A 
HETATM   29  C5  UNK     1      30.216  -9.370  38.049  1.00  0.00     0.010 A 
HETATM   30  C13 UNK     1      29.290  -4.498  39.058  1.00  0.00     0.001 A 
HETATM   31  C12 UNK     1      30.613  -4.556  38.632  1.00  0.00     0.001 A 
ENDBRANCH  21  22
ENDBRANCH  20  21
ENDBRANCH  15  20
ENDBRANCH   2  14
TORSDOF 6
ENDMDL
MODEL 8
REMARK VINA RESULT:      -7.8      3.030      4.951
REMARK  6 active torsions:
REMARK  status: ('A' for Active; 'I' for Inactive)
REMARK    1  A    between atoms: C10_15  and  O1_1 
REMARK    2  A    between atoms: C4_9  and  O1_1 
REMARK    3  A    between atoms: C23_28  and  N1_4 
REMARK    4  A    between atoms: C1_6  and  C4_9 
REMARK    5  A    between atoms: C11_16  and  C14_19 
REMARK    6  A    between atoms: C17_22  and  C18_23 
ROOT
HETATM    1  N2  UNK     1      31.533 -11.871  34.654  1.00  0.00    -0.191 NA
HETATM    2  C14 UNK     1      33.533  -9.108  34.864  1.00  0.00     0.037 C 
HETATM    3  C17 UNK     1      32.283  -9.396  34.498  1.00  0.00     0.055 C 
HETATM    4  C26 UNK     1      31.870 -10.763  34.585  1.00  0.00     0.100 C 
ENDROOT
BRANCH   3   5
HETATM    5  C18 UNK     1      31.301  -8.413  33.995  1.00  0.00    -0.015 A 
HETATM    6  C21 UNK     1      31.009  -8.383  32.643  1.00  0.00     0.015 A 
HETATM    7  C24 UNK     1      30.081  -7.456  32.168  1.00  0.00     0.037 A 
HETATM    8  C23 UNK     1      29.460  -6.575  33.054  1.00  0.00     0.102 A 
HETATM    9  C25 UNK     1      29.768  -6.619  34.413  1.00  0.00     0.037 A 
HETATM   10  C22 UNK     1      30.695  -7.546  34.888  1.00  0.00     0.015 A 
BRANCH   8  11
HETATM   11  N1  UNK     1      28.516  -5.631  32.570  1.00  0.00    -0.116 N 
HETATM   12  O2  UNK     1      28.925  -4.646  31.908  1.00  0.00    -0.532 OA
HETATM   13  O3  UNK     1      27.298  -5.809  32.815  1.00  0.00    -0.532 OA
ENDBRANCH   8  11
ENDBRANCH   3   5
BRANCH   2  14
HETATM   14  C11 UNK     1      34.086  -7.760  34.842  1.00  0.00    -0.001 A 
HETATM   15  C10 UNK     1      34.329  -7.059  36.019  1.00  0.00     0.079 A 
HETATM   16  C15 UNK     1      34.858  -5.772  35.979  1.00  0.00     0.037 A 
HETATM   17  C19 UNK     1      35.146  -5.181  34.748  1.00  0.00     0.003 A 
HETATM   18  C20 UNK     1      34.904  -5.879  33.566  1.00  0.00     0.001 A 
HETATM   19  C16 UNK     1      34.375  -7.169  33.612  1.00  0.00     0.014 A 
BRANCH  15  20
HETATM   20  O1  UNK     1      34.054  -7.617  37.241  1.00  0.00    -0.346 OA
BRANCH  20  21
HETATM   21  C4  UNK     1      33.294  -6.831  38.147  1.00  0.00     0.215 C 
BRANCH  21  22
HETATM   22  C1  UNK     1      31.898  -7.371  38.214  1.00  0.00    -0.023 A 
HETATM   23  C2  UNK     1      30.782  -6.530  38.359  1.00  0.00    -0.018 A 
HETATM   24  C3  UNK     1      29.489  -7.102  38.415  1.00  0.00    -0.025 A 
HETATM   25  C6  UNK     1      30.921  -5.136  38.451  1.00  0.00     0.013 A 
HETATM   26  C7  UNK     1      29.349  -8.496  38.323  1.00  0.00     0.012 A 
HETATM   27  C8  UNK     1      28.372  -6.262  38.561  1.00  0.00     0.012 A 
HETATM   28  C9  UNK     1      30.470  -9.316  38.179  1.00  0.00     0.002 A 
HETATM   29  C5  UNK     1      31.742  -8.754  38.125  1.00  0.00     0.010 A 
HETATM   30  C13 UNK     1      28.530  -4.878  38.650  1.00  0.00     0.001 A 
HETATM   31  C12 UNK     1      29.802  -4.316  38.594  1.00  0.00     0.001 A 
ENDBRANCH  21  22
ENDBRANCH  20  21
ENDBRANCH  15  20
ENDBRANCH   2  14
TORSDOF 6
ENDMDL
MODEL 9
REMARK VINA RESULT:      -7.8      3.740      6.463
REMARK  6 active torsions:
REMARK  status: ('A' for Active; 'I' for Inactive)
REMARK    1  A    between atoms: C10_15  and  O1_1 
REMARK    2  A    between atoms: C4_9  and  O1_1 
REMARK    3  A    between atoms: C23_28  and  N1_4 
REMARK    4  A    between atoms: C1_6  and  C4_9 
REMARK    5  A    between atoms: C11_16  and  C14_19 
REMARK    6  A    between atoms: C17_22  and  C18_23 
ROOT
HETATM    1  N2  UNK     1      30.480 -12.533  30.749  1.00  0.00    -0.191 NA
HETATM    2  C14 UNK     1      29.494  -9.363  31.563  1.00  0.00     0.037 C 
HETATM    3  C17 UNK     1      30.534  -9.951  30.969  1.00  0.00     0.055 C 
HETATM    4  C26 UNK     1      30.502 -11.376  30.848  1.00  0.00     0.100 C 
ENDROOT
BRANCH   3   5
HETATM    5  C18 UNK     1      31.719  -9.244  30.444  1.00  0.00    -0.015 A 
HETATM    6  C21 UNK     1      32.766  -8.953  31.300  1.00  0.00     0.015 A 
HETATM    7  C24 UNK     1      33.886  -8.286  30.804  1.00  0.00     0.037 A 
HETATM    8  C23 UNK     1      33.941  -7.922  29.459  1.00  0.00     0.102 A 
HETATM    9  C25 UNK     1      32.876  -8.223  28.610  1.00  0.00     0.037 A 
HETATM   10  C22 UNK     1      31.756  -8.890  29.106  1.00  0.00     0.015 A 
BRANCH   8  11
HETATM   11  N1  UNK     1      35.081  -7.242  28.954  1.00  0.00    -0.116 N 
HETATM   12  O2  UNK     1      35.460  -6.188  29.519  1.00  0.00    -0.532 OA
HETATM   13  O3  UNK     1      35.680  -7.717  27.959  1.00  0.00    -0.532 OA
ENDBRANCH   8  11
ENDBRANCH   3   5
BRANCH   2  14
HETATM   14  C11 UNK     1      29.382  -7.922  31.744  1.00  0.00    -0.001 A 
HETATM   15  C10 UNK     1      29.849  -7.301  32.898  1.00  0.00     0.079 A 
HETATM   16  C15 UNK     1      29.734  -5.923  33.055  1.00  0.00     0.037 A 
HETATM   17  C19 UNK     1      29.146  -5.159  32.046  1.00  0.00     0.003 A 
HETATM   18  C20 UNK     1      28.676  -5.776  30.888  1.00  0.00     0.001 A 
HETATM   19  C16 UNK     1      28.795  -7.158  30.736  1.00  0.00     0.014 A 
BRANCH  15  20
HETATM   20  O1  UNK     1      30.429  -8.028  33.904  1.00  0.00    -0.346 OA
BRANCH  20  21
HETATM   21  C4  UNK     1      31.030  -7.294  34.962  1.00  0.00     0.215 C 
BRANCH  21  22
HETATM   22  C1  UNK     1      30.253  -7.521  36.221  1.00  0.00    -0.023 A 
HETATM   23  C2  UNK     1      29.956  -6.476  37.112  1.00  0.00    -0.018 A 
HETATM   24  C3  UNK     1      29.217  -6.756  38.285  1.00  0.00    -0.025 A 
HETATM   25  C6  UNK     1      30.378  -5.160  36.863  1.00  0.00     0.013 A 
HETATM   26  C7  UNK     1      28.795  -8.072  38.534  1.00  0.00     0.012 A 
HETATM   27  C8  UNK     1      28.920  -5.710  39.176  1.00  0.00     0.012 A 
HETATM   28  C9  UNK     1      29.099  -9.098  37.638  1.00  0.00     0.002 A 
HETATM   29  C5  UNK     1      29.826  -8.823  36.484  1.00  0.00     0.010 A 
HETATM   30  C13 UNK     1      29.348  -4.408  38.912  1.00  0.00     0.001 A 
HETATM   31  C12 UNK     1      30.074  -4.134  37.757  1.00  0.00     0.001 A 
ENDBRANCH  21  22
ENDBRANCH  20  21
ENDBRANCH  15  20
ENDBRANCH   2  14
TORSDOF 6
ENDMDL
MODEL 10
REMARK VINA RESULT:      -7.7      3.207      5.091
REMARK  6 active torsions:
REMARK  status: ('A' for Active; 'I' for Inactive)
REMARK    1  A    between atoms: C10_15  and  O1_1 
REMARK    2  A    between atoms: C4_9  and  O1_1 
REMARK    3  A    between atoms: C23_28  and  N1_4 
REMARK    4  A    between atoms: C1_6  and  C4_9 
REMARK    5  A    between atoms: C11_16  and  C14_19 
REMARK    6  A    between atoms: C17_22  and  C18_23 
ROOT
HETATM    1  N2  UNK     1      30.262  -2.372  30.998  1.00  0.00    -0.191 NA
HETATM    2  C14 UNK     1      30.314  -5.655  30.051  1.00  0.00     0.037 C 
HETATM    3  C17 UNK     1      30.026  -4.948  31.145  1.00  0.00     0.055 C 
HETATM    4  C26 UNK     1      30.157  -3.526  31.062  1.00  0.00     0.100 C 
ENDROOT
BRANCH   3   5
HETATM    5  C18 UNK     1      29.600  -5.524  32.437  1.00  0.00    -0.015 A 
HETATM    6  C21 UNK     1      28.268  -5.844  32.626  1.00  0.00     0.015 A 
HETATM    7  C24 UNK     1      27.865  -6.389  33.845  1.00  0.00     0.037 A 
HETATM    8  C23 UNK     1      28.802  -6.606  34.855  1.00  0.00     0.102 A 
HETATM    9  C25 UNK     1      30.141  -6.277  34.647  1.00  0.00     0.037 A 
HETATM   10  C22 UNK     1      30.544  -5.732  33.428  1.00  0.00     0.015 A 
BRANCH   8  11
HETATM   11  N1  UNK     1      28.392  -7.160  36.096  1.00  0.00    -0.116 N 
HETATM   12  O2  UNK     1      29.258  -7.647  36.861  1.00  0.00    -0.532 OA
HETATM   13  O3  UNK     1      27.173  -7.146  36.395  1.00  0.00    -0.532 OA
ENDBRANCH   8  11
ENDBRANCH   3   5
BRANCH   2  14
HETATM   14  C11 UNK     1      30.213  -7.107  29.984  1.00  0.00    -0.001 A 
HETATM   15  C10 UNK     1      31.283  -7.923  30.340  1.00  0.00     0.079 A 
HETATM   16  C15 UNK     1      31.170  -9.308  30.269  1.00  0.00     0.037 A 
HETATM   17  C19 UNK     1      29.974  -9.883  29.838  1.00  0.00     0.003 A 
HETATM   18  C20 UNK     1      28.899  -9.070  29.480  1.00  0.00     0.001 A 
HETATM   19  C16 UNK     1      29.018  -7.683  29.553  1.00  0.00     0.014 A 
BRANCH  15  20
HETATM   20  O1  UNK     1      32.469  -7.383  30.766  1.00  0.00    -0.346 OA
BRANCH  20  21
HETATM   21  C4  UNK     1      33.392  -8.269  31.382  1.00  0.00     0.215 C 
BRANCH  21  22
HETATM   22  C1  UNK     1      33.690  -7.783  32.767  1.00  0.00    -0.023 A 
HETATM   23  C2  UNK     1      33.116  -8.377  33.904  1.00  0.00    -0.018 A 
HETATM   24  C3  UNK     1      33.438  -7.871  35.185  1.00  0.00    -0.025 A 
HETATM   25  C6  UNK     1      32.231  -9.462  33.796  1.00  0.00     0.013 A 
HETATM   26  C7  UNK     1      34.324  -6.786  35.293  1.00  0.00     0.012 A 
HETATM   27  C8  UNK     1      32.865  -8.465  36.322  1.00  0.00     0.012 A 
HETATM   28  C9  UNK     1      34.884  -6.208  34.153  1.00  0.00     0.002 A 
HETATM   29  C5  UNK     1      34.567  -6.706  32.892  1.00  0.00     0.010 A 
HETATM   30  C13 UNK     1      31.987  -9.542  36.196  1.00  0.00     0.001 A 
HETATM   31  C12 UNK     1      31.671 -10.040  34.935  1.00  0.00     0.001 A 
ENDBRANCH  21  22
ENDBRANCH  20  21
ENDBRANCH  15  20
ENDBRANCH   2  14
TORSDOF 6
ENDMDL
