MODEL 1
REMARK VINA RESULT:     -10.7      0.000      0.000
REMARK  5 active torsions:
REMARK  status: ('A' for Active; 'I' for Inactive)
REMARK    1  A    between atoms: C4_12  and  N2_6 
REMARK    2  A    between atoms: C11_19  and  N3_7 
REMARK    3  A    between atoms: C2_10  and  N3_7 
REMARK    4  A    between atoms: C10_18  and  N4_8 
REMARK    5  A    between atoms: C11_19  and  N4_8 
ROOT
HETATM    1  N3  UNK     1      18.737  -2.589  36.200  1.00  0.00    -0.327 N 
HETATM    2  H7  UNK     1      17.818  -2.715  36.617  1.00  0.00     0.168 HD
ENDROOT
BRANCH   1   3
HETATM    3  C11 UNK     1      19.591  -3.649  36.443  1.00  0.00     0.177 C 
HETATM    4  S1  UNK     1      20.921  -3.618  37.480  1.00  0.00    -0.041 SA
BRANCH   3   5
HETATM    5  N4  UNK     1      19.275  -4.862  35.823  1.00  0.00    -0.333 N 
HETATM    6  H11 UNK     1      18.656  -4.752  35.022  1.00  0.00     0.168 HD
BRANCH   5   7
HETATM    7  C10 UNK     1      19.477  -6.188  36.209  1.00  0.00     0.036 A 
HETATM    8  C14 UNK     1      20.386  -6.983  35.520  1.00  0.00     0.067 A 
HETATM    9  C12 UNK     1      20.574  -8.307  35.923  1.00  0.00     0.092 A 
HETATM   10  O2  UNK     1      21.508  -9.064  35.187  1.00  0.00    -0.275 OA
HETATM   11  C9  UNK     1      19.879  -8.866  36.997  1.00  0.00     0.004 A 
HETATM   12  C22 UNK     1      21.774 -10.388  35.498  1.00  0.00     0.288 A 
HETATM   13  C20 UNK     1      21.033 -10.963  36.634  1.00  0.00     0.090 A 
HETATM   14  O3  UNK     1      22.584 -11.056  34.864  1.00  0.00    -0.260 OA
HETATM   15  C13 UNK     1      20.139 -10.267  37.350  1.00  0.00    -0.043 A 
HETATM   16  C21 UNK     1      19.408 -10.896  38.501  1.00  0.00     0.049 C 
HETATM   17  C15 UNK     1      18.968  -8.047  37.677  1.00  0.00     0.017 A 
HETATM   18  C16 UNK     1      18.769  -6.718  37.285  1.00  0.00     0.030 A 
ENDBRANCH   5   7
ENDBRANCH   3   5
ENDBRANCH   1   3
BRANCH   1  19
HETATM   19  C2  UNK     1      18.716  -1.774  35.123  1.00  0.00     0.129 A 
HETATM   20  C1  UNK     1      17.903  -0.753  34.827  1.00  0.00     0.057 A 
HETATM   21  N1  UNK     1      18.253  -0.157  33.614  1.00  0.00    -0.289 N 
HETATM   22  C6  UNK     1      16.782  -0.219  35.654  1.00  0.00     0.072 C 
HETATM   23  C5  UNK     1      18.295   1.295  33.477  1.00  0.00     0.178 C 
HETATM   24  N2  UNK     1      19.309  -0.912  33.066  1.00  0.00    -0.217 N 
HETATM   25  C3  UNK     1      19.678  -1.891  33.996  1.00  0.00     0.295 A 
HETATM   26  O1  UNK     1      20.537  -2.756  33.938  1.00  0.00    -0.264 OA
BRANCH  24  27
HETATM   27  C4  UNK     1      19.664  -0.873  31.695  1.00  0.00     0.060 A 
HETATM   28  C7  UNK     1      20.019  -2.048  31.033  1.00  0.00     0.031 A 
HETATM   29  C17 UNK     1      20.368  -2.010  29.683  1.00  0.00     0.002 A 
HETATM   30  C19 UNK     1      20.363  -0.797  28.994  1.00  0.00     0.000 A 
HETATM   31  C18 UNK     1      20.007   0.379  29.657  1.00  0.00     0.002 A 
HETATM   32  C8  UNK     1      19.658   0.340  31.007  1.00  0.00     0.031 A 
ENDBRANCH  24  27
ENDBRANCH   1  19
TORSDOF 5
ENDMDL
MODEL 2
REMARK VINA RESULT:     -10.7      1.239      1.855
REMARK  5 active torsions:
REMARK  status: ('A' for Active; 'I' for Inactive)
REMARK    1  A    between atoms: C4_12  and  N2_6 
REMARK    2  A    between atoms: C11_19  and  N3_7 
REMARK    3  A    between atoms: C2_10  and  N3_7 
REMARK    4  A    between atoms: C10_18  and  N4_8 
REMARK    5  A    between atoms: C11_19  and  N4_8 
ROOT
HETATM    1  N3  UNK     1      18.673  -2.652  36.391  1.00  0.00    -0.327 N 
HETATM    2  H7  UNK     1      17.774  -2.687  36.864  1.00  0.00     0.168 HD
ENDROOT
BRANCH   1   3
HETATM    3  C11 UNK     1      19.437  -3.787  36.596  1.00  0.00     0.177 C 
HETATM    4  S1  UNK     1      20.849  -3.865  37.515  1.00  0.00    -0.041 SA
BRANCH   3   5
HETATM    5  N4  UNK     1      18.949  -4.976  36.046  1.00  0.00    -0.333 N 
HETATM    6  H11 UNK     1      17.999  -4.893  35.690  1.00  0.00     0.168 HD
BRANCH   5   7
HETATM    7  C10 UNK     1      19.433  -6.285  36.075  1.00  0.00     0.036 A 
HETATM    8  C14 UNK     1      19.024  -7.158  37.077  1.00  0.00     0.067 A 
HETATM    9  C12 UNK     1      19.520  -8.463  37.086  1.00  0.00     0.092 A 
HETATM   10  O2  UNK     1      19.068  -9.302  38.126  1.00  0.00    -0.275 OA
HETATM   11  C9  UNK     1      20.416  -8.928  36.123  1.00  0.00     0.004 A 
HETATM   12  C22 UNK     1      19.495 -10.615  38.234  1.00  0.00     0.288 A 
HETATM   13  C20 UNK     1      20.441 -11.091  37.210  1.00  0.00     0.090 A 
HETATM   14  O3  UNK     1      19.110 -11.353  39.135  1.00  0.00    -0.260 OA
HETATM   15  C13 UNK     1      20.887 -10.316  36.211  1.00  0.00    -0.043 A 
HETATM   16  C21 UNK     1      21.851 -10.846  35.190  1.00  0.00     0.049 C 
HETATM   17  C15 UNK     1      20.816  -8.032  35.122  1.00  0.00     0.017 A 
HETATM   18  C16 UNK     1      20.328  -6.721  35.099  1.00  0.00     0.030 A 
ENDBRANCH   5   7
ENDBRANCH   3   5
ENDBRANCH   1   3
BRANCH   1  19
HETATM   19  C2  UNK     1      18.663  -1.846  35.306  1.00  0.00     0.129 A 
HETATM   20  C1  UNK     1      17.856  -0.825  34.995  1.00  0.00     0.057 A 
HETATM   21  N1  UNK     1      18.218  -0.241  33.780  1.00  0.00    -0.289 N 
HETATM   22  C6  UNK     1      16.731  -0.281  35.808  1.00  0.00     0.072 C 
HETATM   23  C5  UNK     1      18.266   1.210  33.631  1.00  0.00     0.178 C 
HETATM   24  N2  UNK     1      19.276  -1.005  33.247  1.00  0.00    -0.217 N 
HETATM   25  C3  UNK     1      19.634  -1.977  34.188  1.00  0.00     0.295 A 
HETATM   26  O1  UNK     1      20.490  -2.845  34.145  1.00  0.00    -0.264 OA
BRANCH  24  27
HETATM   27  C4  UNK     1      19.642  -0.978  31.878  1.00  0.00     0.060 A 
HETATM   28  C7  UNK     1      20.027  -2.156  31.237  1.00  0.00     0.031 A 
HETATM   29  C17 UNK     1      20.387  -2.131  29.890  1.00  0.00     0.002 A 
HETATM   30  C19 UNK     1      20.362  -0.929  29.183  1.00  0.00     0.000 A 
HETATM   31  C18 UNK     1      19.976   0.249  29.824  1.00  0.00     0.002 A 
HETATM   32  C8  UNK     1      19.617   0.224  31.172  1.00  0.00     0.031 A 
ENDBRANCH  24  27
ENDBRANCH   1  19
TORSDOF 5
ENDMDL
MODEL 3
REMARK VINA RESULT:     -10.6      7.078     11.257
REMARK  5 active torsions:
REMARK  status: ('A' for Active; 'I' for Inactive)
REMARK    1  A    between atoms: C4_12  and  N2_6 
REMARK    2  A    between atoms: C11_19  and  N3_7 
REMARK    3  A    between atoms: C2_10  and  N3_7 
REMARK    4  A    between atoms: C10_18  and  N4_8 
REMARK    5  A    between atoms: C11_19  and  N4_8 
ROOT
HETATM    1  N3  UNK     1      17.632   5.908  33.472  1.00  0.00    -0.327 N 
HETATM    2  H7  UNK     1      16.987   5.277  33.940  1.00  0.00     0.168 HD
ENDROOT
BRANCH   1   3
HETATM    3  C11 UNK     1      18.204   5.354  32.340  1.00  0.00     0.177 C 
HETATM    4  S1  UNK     1      19.561   5.951  31.536  1.00  0.00    -0.041 SA
BRANCH   3   5
HETATM    5  N4  UNK     1      17.640   4.163  31.873  1.00  0.00    -0.333 N 
HETATM    6  H11 UNK     1      16.634   4.110  32.024  1.00  0.00     0.168 HD
BRANCH   5   7
HETATM    7  C10 UNK     1      18.213   2.969  31.434  1.00  0.00     0.036 A 
HETATM    8  C14 UNK     1      18.448   1.935  32.334  1.00  0.00     0.067 A 
HETATM    9  C12 UNK     1      19.021   0.748  31.872  1.00  0.00     0.092 A 
HETATM   10  O2  UNK     1      19.235  -0.263  32.830  1.00  0.00    -0.275 OA
HETATM   11  C9  UNK     1      19.371   0.559  30.534  1.00  0.00     0.004 A 
HETATM   12  C22 UNK     1      19.799  -1.481  32.485  1.00  0.00     0.288 A 
HETATM   13  C20 UNK     1      20.161  -1.666  31.069  1.00  0.00     0.090 A 
HETATM   14  O3  UNK     1      19.990  -2.368  33.311  1.00  0.00    -0.260 OA
HETATM   15  C13 UNK     1      19.970  -0.721  30.137  1.00  0.00    -0.043 A 
HETATM   16  C21 UNK     1      20.356  -0.955  28.706  1.00  0.00     0.049 C 
HETATM   17  C15 UNK     1      19.125   1.614  29.644  1.00  0.00     0.017 A 
HETATM   18  C16 UNK     1      18.551   2.809  30.091  1.00  0.00     0.030 A 
ENDBRANCH   5   7
ENDBRANCH   3   5
ENDBRANCH   1   3
BRANCH   1  19
HETATM   19  C2  UNK     1      17.355   7.209  33.706  1.00  0.00     0.129 A 
HETATM   20  C1  UNK     1      18.106   8.165  34.267  1.00  0.00     0.057 A 
HETATM   21  N1  UNK     1      17.438   9.391  34.288  1.00  0.00    -0.289 N 
HETATM   22  C6  UNK     1      19.502   8.037  34.776  1.00  0.00     0.072 C 
HETATM   23  C5  UNK     1      18.125  10.625  33.921  1.00  0.00     0.178 C 
HETATM   24  N2  UNK     1      16.142   9.170  33.783  1.00  0.00    -0.217 N 
HETATM   25  C3  UNK     1      16.060   7.843  33.347  1.00  0.00     0.295 A 
HETATM   26  O1  UNK     1      15.132   7.228  32.846  1.00  0.00    -0.264 OA
BRANCH  24  27
HETATM   27  C4  UNK     1      15.057  10.053  34.012  1.00  0.00     0.060 A 
HETATM   28  C7  UNK     1      14.287  10.503  32.940  1.00  0.00     0.031 A 
HETATM   29  C17 UNK     1      13.219  11.372  33.164  1.00  0.00     0.002 A 
HETATM   30  C19 UNK     1      12.921  11.791  34.460  1.00  0.00     0.000 A 
HETATM   31  C18 UNK     1      13.691  11.339  35.534  1.00  0.00     0.002 A 
HETATM   32  C8  UNK     1      14.759  10.471  35.308  1.00  0.00     0.031 A 
ENDBRANCH  24  27
ENDBRANCH   1  19
TORSDOF 5
ENDMDL
MODEL 4
REMARK VINA RESULT:     -10.4      6.397     11.823
REMARK  5 active torsions:
REMARK  status: ('A' for Active; 'I' for Inactive)
REMARK    1  A    between atoms: C4_12  and  N2_6 
REMARK    2  A    between atoms: C11_19  and  N3_7 
REMARK    3  A    between atoms: C2_10  and  N3_7 
REMARK    4  A    between atoms: C10_18  and  N4_8 
REMARK    5  A    between atoms: C11_19  and  N4_8 
ROOT
HETATM    1  N3  UNK     1      19.636   1.790  30.738  1.00  0.00    -0.327 N 
HETATM    2  H7  UNK     1      20.534   1.468  30.388  1.00  0.00     0.168 HD
ENDROOT
BRANCH   1   3
HETATM    3  C11 UNK     1      18.877   2.428  29.773  1.00  0.00     0.177 C 
HETATM    4  S1  UNK     1      17.797   1.674  28.719  1.00  0.00    -0.041 SA
BRANCH   3   5
HETATM    5  N4  UNK     1      18.971   3.822  29.724  1.00  0.00    -0.333 N 
HETATM    6  H11 UNK     1      19.288   4.170  28.821  1.00  0.00     0.168 HD
BRANCH   5   7
HETATM    7  C10 UNK     1      18.910   4.797  30.720  1.00  0.00     0.036 A 
HETATM    8  C14 UNK     1      17.687   5.140  31.287  1.00  0.00     0.067 A 
HETATM    9  C12 UNK     1      17.649   6.118  32.283  1.00  0.00     0.092 A 
HETATM   10  O2  UNK     1      16.382   6.421  32.820  1.00  0.00    -0.275 OA
HETATM   11  C9  UNK     1      18.798   6.769  32.733  1.00  0.00     0.004 A 
HETATM   12  C22 UNK     1      16.225   7.376  33.812  1.00  0.00     0.288 A 
HETATM   13  C20 UNK     1      17.447   8.055  34.277  1.00  0.00     0.090 A 
HETATM   14  O3  UNK     1      15.127   7.649  34.286  1.00  0.00    -0.260 OA
HETATM   15  C13 UNK     1      18.664   7.786  33.784  1.00  0.00    -0.043 A 
HETATM   16  C21 UNK     1      19.882   8.504  34.290  1.00  0.00     0.049 C 
HETATM   17  C15 UNK     1      20.020   6.410  32.149  1.00  0.00     0.017 A 
HETATM   18  C16 UNK     1      20.075   5.431  31.150  1.00  0.00     0.030 A 
ENDBRANCH   5   7
ENDBRANCH   3   5
ENDBRANCH   1   3
BRANCH   1  19
HETATM   19  C2  UNK     1      19.197   1.072  31.794  1.00  0.00     0.129 A 
HETATM   20  C1  UNK     1      19.138  -0.253  31.974  1.00  0.00     0.057 A 
HETATM   21  N1  UNK     1      18.638  -0.574  33.238  1.00  0.00    -0.289 N 
HETATM   22  C6  UNK     1      19.580  -1.315  31.026  1.00  0.00     0.072 C 
HETATM   23  C5  UNK     1      19.261  -1.616  34.047  1.00  0.00     0.178 C 
HETATM   24  N2  UNK     1      18.275   0.635  33.864  1.00  0.00    -0.217 N 
HETATM   25  C3  UNK     1      18.662   1.693  33.034  1.00  0.00     0.295 A 
HETATM   26  O1  UNK     1      18.543   2.899  33.180  1.00  0.00    -0.264 OA
BRANCH  24  27
HETATM   27  C4  UNK     1      17.382   0.704  34.962  1.00  0.00     0.060 A 
HETATM   28  C7  UNK     1      17.787   1.308  36.152  1.00  0.00     0.031 A 
HETATM   29  C17 UNK     1      16.909   1.378  37.233  1.00  0.00     0.002 A 
HETATM   30  C19 UNK     1      15.625   0.843  37.126  1.00  0.00     0.000 A 
HETATM   31  C18 UNK     1      15.220   0.239  35.934  1.00  0.00     0.002 A 
HETATM   32  C8  UNK     1      16.099   0.170  34.854  1.00  0.00     0.031 A 
ENDBRANCH  24  27
ENDBRANCH   1  19
TORSDOF 5
ENDMDL
MODEL 5
REMARK VINA RESULT:     -10.3      7.320     11.347
REMARK  5 active torsions:
REMARK  status: ('A' for Active; 'I' for Inactive)
REMARK    1  A    between atoms: C4_12  and  N2_6 
REMARK    2  A    between atoms: C11_19  and  N3_7 
REMARK    3  A    between atoms: C2_10  and  N3_7 
REMARK    4  A    between atoms: C10_18  and  N4_8 
REMARK    5  A    between atoms: C11_19  and  N4_8 
ROOT
HETATM    1  N3  UNK     1      17.750   6.111  33.508  1.00  0.00    -0.327 N 
HETATM    2  H7  UNK     1      17.198   5.479  34.080  1.00  0.00     0.168 HD
ENDROOT
BRANCH   1   3
HETATM    3  C11 UNK     1      18.207   5.525  32.341  1.00  0.00     0.177 C 
HETATM    4  S1  UNK     1      19.459   6.112  31.375  1.00  0.00    -0.041 SA
BRANCH   3   5
HETATM    5  N4  UNK     1      17.619   4.309  31.981  1.00  0.00    -0.333 N 
HETATM    6  H11 UNK     1      16.604   4.358  31.918  1.00  0.00     0.168 HD
BRANCH   5   7
HETATM    7  C10 UNK     1      18.133   3.014  31.891  1.00  0.00     0.036 A 
HETATM    8  C14 UNK     1      18.644   2.549  30.684  1.00  0.00     0.067 A 
HETATM    9  C12 UNK     1      19.154   1.251  30.617  1.00  0.00     0.092 A 
HETATM   10  O2  UNK     1      19.659   0.836  29.368  1.00  0.00    -0.275 OA
HETATM   11  C9  UNK     1      19.169   0.396  31.720  1.00  0.00     0.004 A 
HETATM   12  C22 UNK     1      20.188  -0.432  29.185  1.00  0.00     0.288 A 
HETATM   13  C20 UNK     1      20.197  -1.321  30.359  1.00  0.00     0.090 A 
HETATM   14  O3  UNK     1      20.629  -0.804  28.103  1.00  0.00    -0.260 OA
HETATM   15  C13 UNK     1      19.723  -0.953  31.558  1.00  0.00    -0.043 A 
HETATM   16  C21 UNK     1      19.754  -1.895  32.726  1.00  0.00     0.049 C 
HETATM   17  C15 UNK     1      18.648   0.885  32.927  1.00  0.00     0.017 A 
HETATM   18  C16 UNK     1      18.134   2.184  33.010  1.00  0.00     0.030 A 
ENDBRANCH   5   7
ENDBRANCH   3   5
ENDBRANCH   1   3
BRANCH   1  19
HETATM   19  C2  UNK     1      17.442   7.410  33.714  1.00  0.00     0.129 A 
HETATM   20  C1  UNK     1      18.185   8.406  34.213  1.00  0.00     0.057 A 
HETATM   21  N1  UNK     1      17.479   9.611  34.226  1.00  0.00    -0.289 N 
HETATM   22  C6  UNK     1      19.604   8.337  34.666  1.00  0.00     0.072 C 
HETATM   23  C5  UNK     1      18.111  10.853  33.793  1.00  0.00     0.178 C 
HETATM   24  N2  UNK     1      16.170   9.334  33.784  1.00  0.00    -0.217 N 
HETATM   25  C3  UNK     1      16.113   7.992  33.391  1.00  0.00     0.295 A 
HETATM   26  O1  UNK     1      15.185   7.334  32.950  1.00  0.00    -0.264 OA
BRANCH  24  27
HETATM   27  C4  UNK     1      15.068  10.190  34.032  1.00  0.00     0.060 A 
HETATM   28  C7  UNK     1      14.725  10.522  35.343  1.00  0.00     0.031 A 
HETATM   29  C17 UNK     1      13.641  11.364  35.588  1.00  0.00     0.002 A 
HETATM   30  C19 UNK     1      12.899  11.876  34.523  1.00  0.00     0.000 A 
HETATM   31  C18 UNK     1      13.243  11.544  33.212  1.00  0.00     0.002 A 
HETATM   32  C8  UNK     1      14.328  10.701  32.967  1.00  0.00     0.031 A 
ENDBRANCH  24  27
ENDBRANCH   1  19
TORSDOF 5
ENDMDL
MODEL 6
REMARK VINA RESULT:     -10.3      2.259      9.167
REMARK  5 active torsions:
REMARK  status: ('A' for Active; 'I' for Inactive)
REMARK    1  A    between atoms: C4_12  and  N2_6 
REMARK    2  A    between atoms: C11_19  and  N3_7 
REMARK    3  A    between atoms: C2_10  and  N3_7 
REMARK    4  A    between atoms: C10_18  and  N4_8 
REMARK    5  A    between atoms: C11_19  and  N4_8 
ROOT
HETATM    1  N3  UNK     1      18.534  -4.117  36.438  1.00  0.00    -0.327 N 
HETATM    2  H7  UNK     1      17.656  -4.168  36.946  1.00  0.00     0.168 HD
ENDROOT
BRANCH   1   3
HETATM    3  C11 UNK     1      18.856  -2.830  36.044  1.00  0.00     0.177 C 
HETATM    4  S1  UNK     1      18.210  -1.415  36.696  1.00  0.00    -0.041 SA
BRANCH   3   5
HETATM    5  N4  UNK     1      19.852  -2.705  35.071  1.00  0.00    -0.333 N 
HETATM    6  H11 UNK     1      20.770  -3.000  35.398  1.00  0.00     0.168 HD
BRANCH   5   7
HETATM    7  C10 UNK     1      19.867  -2.074  33.826  1.00  0.00     0.036 A 
HETATM    8  C14 UNK     1      19.127  -0.914  33.624  1.00  0.00     0.067 A 
HETATM    9  C12 UNK     1      19.156  -0.299  32.370  1.00  0.00     0.092 A 
HETATM   10  O2  UNK     1      18.387   0.874  32.226  1.00  0.00    -0.275 OA
HETATM   11  C9  UNK     1      19.904  -0.807  31.307  1.00  0.00     0.004 A 
HETATM   12  C22 UNK     1      18.341   1.566  31.026  1.00  0.00     0.288 A 
HETATM   13  C20 UNK     1      19.136   1.018  29.914  1.00  0.00     0.090 A 
HETATM   14  O3  UNK     1      17.675   2.587  30.889  1.00  0.00    -0.260 OA
HETATM   15  C13 UNK     1      19.875  -0.095  30.023  1.00  0.00    -0.043 A 
HETATM   16  C21 UNK     1      20.670  -0.615  28.861  1.00  0.00     0.049 C 
HETATM   17  C15 UNK     1      20.642  -1.977  31.532  1.00  0.00     0.017 A 
HETATM   18  C16 UNK     1      20.623  -2.605  32.783  1.00  0.00     0.030 A 
ENDBRANCH   5   7
ENDBRANCH   3   5
ENDBRANCH   1   3
BRANCH   1  19
HETATM   19  C2  UNK     1      19.381  -5.121  36.751  1.00  0.00     0.129 A 
HETATM   20  C1  UNK     1      20.561  -5.093  37.384  1.00  0.00     0.057 A 
HETATM   21  N1  UNK     1      21.094  -6.375  37.526  1.00  0.00    -0.289 N 
HETATM   22  C6  UNK     1      21.258  -3.900  37.944  1.00  0.00     0.072 C 
HETATM   23  C5  UNK     1      21.692  -6.802  38.787  1.00  0.00     0.178 C 
HETATM   24  N2  UNK     1      20.229  -7.265  36.859  1.00  0.00    -0.217 N 
HETATM   25  C3  UNK     1      19.114  -6.544  36.415  1.00  0.00     0.295 A 
HETATM   26  O1  UNK     1      18.128  -6.911  35.797  1.00  0.00    -0.264 OA
BRANCH  24  27
HETATM   27  C4  UNK     1      20.618  -8.562  36.441  1.00  0.00     0.060 A 
HETATM   28  C7  UNK     1      21.393  -8.721  35.293  1.00  0.00     0.031 A 
HETATM   29  C17 UNK     1      21.777  -9.997  34.882  1.00  0.00     0.002 A 
HETATM   30  C19 UNK     1      21.385 -11.115  35.618  1.00  0.00     0.000 A 
HETATM   31  C18 UNK     1      20.610 -10.956  36.768  1.00  0.00     0.002 A 
HETATM   32  C8  UNK     1      20.226  -9.679  37.178  1.00  0.00     0.031 A 
ENDBRANCH  24  27
ENDBRANCH   1  19
TORSDOF 5
ENDMDL
MODEL 7
REMARK VINA RESULT:     -10.2      7.150     11.312
REMARK  5 active torsions:
REMARK  status: ('A' for Active; 'I' for Inactive)
REMARK    1  A    between atoms: C4_12  and  N2_6 
REMARK    2  A    between atoms: C11_19  and  N3_7 
REMARK    3  A    between atoms: C2_10  and  N3_7 
REMARK    4  A    between atoms: C10_18  and  N4_8 
REMARK    5  A    between atoms: C11_19  and  N4_8 
ROOT
HETATM    1  N3  UNK     1      17.294   5.914  33.353  1.00  0.00    -0.327 N 
HETATM    2  H7  UNK     1      16.723   5.200  33.798  1.00  0.00     0.168 HD
ENDROOT
BRANCH   1   3
HETATM    3  C11 UNK     1      18.096   5.413  32.343  1.00  0.00     0.177 C 
HETATM    4  S1  UNK     1      19.645   5.961  31.959  1.00  0.00    -0.041 SA
BRANCH   3   5
HETATM    5  N4  UNK     1      17.597   4.316  31.634  1.00  0.00    -0.333 N 
HETATM    6  H11 UNK     1      16.588   4.350  31.504  1.00  0.00     0.168 HD
BRANCH   5   7
HETATM    7  C10 UNK     1      18.180   3.107  31.255  1.00  0.00     0.036 A 
HETATM    8  C14 UNK     1      18.398   2.110  32.200  1.00  0.00     0.067 A 
HETATM    9  C12 UNK     1      18.982   0.907  31.798  1.00  0.00     0.092 A 
HETATM   10  O2  UNK     1      19.176  -0.065  32.800  1.00  0.00    -0.275 OA
HETATM   11  C9  UNK     1      19.359   0.666  30.476  1.00  0.00     0.004 A 
HETATM   12  C22 UNK     1      19.748  -1.295  32.516  1.00  0.00     0.288 A 
HETATM   13  C20 UNK     1      20.141  -1.535  31.116  1.00  0.00     0.090 A 
HETATM   14  O3  UNK     1      19.923  -2.147  33.380  1.00  0.00    -0.260 OA
HETATM   15  C13 UNK     1      19.968  -0.629  30.144  1.00  0.00    -0.043 A 
HETATM   16  C21 UNK     1      20.383  -0.919  28.731  1.00  0.00     0.049 C 
HETATM   17  C15 UNK     1      19.131   1.683  29.539  1.00  0.00     0.017 A 
HETATM   18  C16 UNK     1      18.547   2.894  29.927  1.00  0.00     0.030 A 
ENDBRANCH   5   7
ENDBRANCH   3   5
ENDBRANCH   1   3
BRANCH   1  19
HETATM   19  C2  UNK     1      16.755   7.149  33.445  1.00  0.00     0.129 A 
HETATM   20  C1  UNK     1      15.665   7.662  32.863  1.00  0.00     0.057 A 
HETATM   21  N1  UNK     1      15.450   8.984  33.258  1.00  0.00    -0.289 N 
HETATM   22  C6  UNK     1      14.718   6.967  31.944  1.00  0.00     0.072 C 
HETATM   23  C5  UNK     1      14.114   9.451  33.613  1.00  0.00     0.178 C 
HETATM   24  N2  UNK     1      16.531   9.356  34.082  1.00  0.00    -0.217 N 
HETATM   25  C3  UNK     1      17.338   8.230  34.282  1.00  0.00     0.295 A 
HETATM   26  O1  UNK     1      18.369   8.098  34.921  1.00  0.00    -0.264 OA
BRANCH  24  27
HETATM   27  C4  UNK     1      16.878  10.704  34.347  1.00  0.00     0.060 A 
HETATM   28  C7  UNK     1      15.997  11.525  35.050  1.00  0.00     0.031 A 
HETATM   29  C17 UNK     1      16.338  12.851  35.313  1.00  0.00     0.002 A 
HETATM   30  C19 UNK     1      17.560  13.358  34.872  1.00  0.00     0.000 A 
HETATM   31  C18 UNK     1      18.443  12.536  34.169  1.00  0.00     0.002 A 
HETATM   32  C8  UNK     1      18.101  11.209  33.907  1.00  0.00     0.031 A 
ENDBRANCH  24  27
ENDBRANCH   1  19
TORSDOF 5
ENDMDL
MODEL 8
REMARK VINA RESULT:     -10.1      1.807      2.740
REMARK  5 active torsions:
REMARK  status: ('A' for Active; 'I' for Inactive)
REMARK    1  A    between atoms: C4_12  and  N2_6 
REMARK    2  A    between atoms: C11_19  and  N3_7 
REMARK    3  A    between atoms: C2_10  and  N3_7 
REMARK    4  A    between atoms: C10_18  and  N4_8 
REMARK    5  A    between atoms: C11_19  and  N4_8 
ROOT
HETATM    1  N3  UNK     1      17.945  -2.320  36.566  1.00  0.00    -0.327 N 
HETATM    2  H7  UNK     1      16.979  -2.629  36.488  1.00  0.00     0.168 HD
ENDROOT
BRANCH   1   3
HETATM    3  C11 UNK     1      18.839  -3.367  36.695  1.00  0.00     0.177 C 
HETATM    4  S1  UNK     1      20.466  -3.221  37.113  1.00  0.00    -0.041 SA
BRANCH   3   5
HETATM    5  N4  UNK     1      18.321  -4.656  36.529  1.00  0.00    -0.333 N 
HETATM    6  H11 UNK     1      17.315  -4.705  36.679  1.00  0.00     0.168 HD
BRANCH   5   7
HETATM    7  C10 UNK     1      18.939  -5.900  36.399  1.00  0.00     0.036 A 
HETATM    8  C14 UNK     1      18.634  -6.926  37.287  1.00  0.00     0.067 A 
HETATM    9  C12 UNK     1      19.264  -8.164  37.138  1.00  0.00     0.092 A 
HETATM   10  O2  UNK     1      18.914  -9.164  38.067  1.00  0.00    -0.275 OA
HETATM   11  C9  UNK     1      20.193  -8.412  36.126  1.00  0.00     0.004 A 
HETATM   12  C22 UNK     1      19.477 -10.430  38.015  1.00  0.00     0.288 A 
HETATM   13  C20 UNK     1      20.455 -10.676  36.942  1.00  0.00     0.090 A 
HETATM   14  O3  UNK     1      19.181 -11.307  38.819  1.00  0.00    -0.260 OA
HETATM   15  C13 UNK     1      20.806  -9.743  36.045  1.00  0.00    -0.043 A 
HETATM   16  C21 UNK     1      21.808 -10.041  34.968  1.00  0.00     0.049 C 
HETATM   17  C15 UNK     1      20.485  -7.364  35.242  1.00  0.00     0.017 A 
HETATM   18  C16 UNK     1      19.863  -6.119  35.378  1.00  0.00     0.030 A 
ENDBRANCH   5   7
ENDBRANCH   3   5
ENDBRANCH   1   3
BRANCH   1  19
HETATM   19  C2  UNK     1      18.158  -1.117  35.990  1.00  0.00     0.129 A 
HETATM   20  C1  UNK     1      18.048   0.117  36.497  1.00  0.00     0.057 A 
HETATM   21  N1  UNK     1      18.394   1.088  35.556  1.00  0.00    -0.289 N 
HETATM   22  C6  UNK     1      17.668   0.491  37.889  1.00  0.00     0.072 C 
HETATM   23  C5  UNK     1      19.240   2.220  35.924  1.00  0.00     0.178 C 
HETATM   24  N2  UNK     1      18.658   0.421  34.343  1.00  0.00    -0.217 N 
HETATM   25  C3  UNK     1      18.588  -0.957  34.576  1.00  0.00     0.295 A 
HETATM   26  O1  UNK     1      18.745  -1.899  33.815  1.00  0.00    -0.264 OA
BRANCH  24  27
HETATM   27  C4  UNK     1      18.650   1.067  33.082  1.00  0.00     0.060 A 
HETATM   28  C7  UNK     1      18.131   2.356  32.964  1.00  0.00     0.031 A 
HETATM   29  C17 UNK     1      18.122   2.993  31.723  1.00  0.00     0.002 A 
HETATM   30  C19 UNK     1      18.632   2.342  30.600  1.00  0.00     0.000 A 
HETATM   31  C18 UNK     1      19.152   1.052  30.719  1.00  0.00     0.002 A 
HETATM   32  C8  UNK     1      19.160   0.415  31.960  1.00  0.00     0.031 A 
ENDBRANCH  24  27
ENDBRANCH   1  19
TORSDOF 5
ENDMDL
MODEL 9
REMARK VINA RESULT:      -9.9      2.182      9.071
REMARK  5 active torsions:
REMARK  status: ('A' for Active; 'I' for Inactive)
REMARK    1  A    between atoms: C4_12  and  N2_6 
REMARK    2  A    between atoms: C11_19  and  N3_7 
REMARK    3  A    between atoms: C2_10  and  N3_7 
REMARK    4  A    between atoms: C10_18  and  N4_8 
REMARK    5  A    between atoms: C11_19  and  N4_8 
ROOT
HETATM    1  N3  UNK     1      18.391  -3.993  36.492  1.00  0.00    -0.327 N 
HETATM    2  H7  UNK     1      17.506  -4.112  36.976  1.00  0.00     0.168 HD
ENDROOT
BRANCH   1   3
HETATM    3  C11 UNK     1      18.658  -2.675  36.169  1.00  0.00     0.177 C 
HETATM    4  S1  UNK     1      18.242  -1.334  37.104  1.00  0.00    -0.041 SA
BRANCH   3   5
HETATM    5  N4  UNK     1      19.396  -2.453  35.002  1.00  0.00    -0.333 N 
HETATM    6  H11 UNK     1      20.268  -2.978  34.974  1.00  0.00     0.168 HD
BRANCH   5   7
HETATM    7  C10 UNK     1      19.264  -1.512  33.979  1.00  0.00     0.036 A 
HETATM    8  C14 UNK     1      19.723  -1.804  32.700  1.00  0.00     0.067 A 
HETATM    9  C12 UNK     1      19.581  -0.849  31.692  1.00  0.00     0.092 A 
HETATM   10  O2  UNK     1      20.065  -1.202  30.415  1.00  0.00    -0.275 OA
HETATM   11  C9  UNK     1      18.992   0.396  31.921  1.00  0.00     0.004 A 
HETATM   12  C22 UNK     1      19.977  -0.331  29.341  1.00  0.00     0.288 A 
HETATM   13  C20 UNK     1      19.353   0.978  29.598  1.00  0.00     0.090 A 
HETATM   14  O3  UNK     1      20.396  -0.628  28.227  1.00  0.00    -0.260 OA
HETATM   15  C13 UNK     1      18.885   1.340  30.801  1.00  0.00    -0.043 A 
HETATM   16  C21 UNK     1      18.256   2.686  31.016  1.00  0.00     0.049 C 
HETATM   17  C15 UNK     1      18.536   0.670  33.217  1.00  0.00     0.017 A 
HETATM   18  C16 UNK     1      18.672  -0.278  34.238  1.00  0.00     0.030 A 
ENDBRANCH   5   7
ENDBRANCH   3   5
ENDBRANCH   1   3
BRANCH   1  19
HETATM   19  C2  UNK     1      19.279  -4.971  36.774  1.00  0.00     0.129 A 
HETATM   20  C1  UNK     1      20.510  -4.898  37.295  1.00  0.00     0.057 A 
HETATM   21  N1  UNK     1      21.075  -6.165  37.448  1.00  0.00    -0.289 N 
HETATM   22  C6  UNK     1      21.235  -3.671  37.734  1.00  0.00     0.072 C 
HETATM   23  C5  UNK     1      21.790  -6.523  38.669  1.00  0.00     0.178 C 
HETATM   24  N2  UNK     1      20.169  -7.097  36.904  1.00  0.00    -0.217 N 
HETATM   25  C3  UNK     1      19.007  -6.412  36.529  1.00  0.00     0.295 A 
HETATM   26  O1  UNK     1      17.975  -6.820  36.021  1.00  0.00    -0.264 OA
BRANCH  24  27
HETATM   27  C4  UNK     1      20.540  -8.408  36.515  1.00  0.00     0.060 A 
HETATM   28  C7  UNK     1      21.340  -8.599  35.389  1.00  0.00     0.031 A 
HETATM   29  C17 UNK     1      21.707  -9.889  35.005  1.00  0.00     0.002 A 
HETATM   30  C19 UNK     1      21.273 -10.988  35.746  1.00  0.00     0.000 A 
HETATM   31  C18 UNK     1      20.473 -10.796  36.873  1.00  0.00     0.002 A 
HETATM   32  C8  UNK     1      20.107  -9.506  37.257  1.00  0.00     0.031 A 
ENDBRANCH  24  27
ENDBRANCH   1  19
TORSDOF 5
ENDMDL
MODEL 10
REMARK VINA RESULT:      -9.8     10.319     12.707
REMARK  5 active torsions:
REMARK  status: ('A' for Active; 'I' for Inactive)
REMARK    1  A    between atoms: C4_12  and  N2_6 
REMARK    2  A    between atoms: C11_19  and  N3_7 
REMARK    3  A    between atoms: C2_10  and  N3_7 
REMARK    4  A    between atoms: C10_18  and  N4_8 
REMARK    5  A    between atoms: C11_19  and  N4_8 
ROOT
HETATM    1  N3  UNK     1      33.446  -8.831  33.997  1.00  0.00    -0.327 N 
HETATM    2  H7  UNK     1      33.970  -8.951  33.134  1.00  0.00     0.168 HD
ENDROOT
BRANCH   1   3
HETATM    3  C11 UNK     1      34.107  -8.050  34.927  1.00  0.00     0.177 C 
HETATM    4  S1  UNK     1      35.354  -6.966  34.587  1.00  0.00    -0.041 SA
BRANCH   3   5
HETATM    5  N4  UNK     1      33.647  -8.124  36.245  1.00  0.00    -0.333 N 
HETATM    6  H11 UNK     1      34.035  -8.911  36.761  1.00  0.00     0.168 HD
BRANCH   5   7
HETATM    7  C10 UNK     1      32.621  -7.456  36.915  1.00  0.00     0.036 A 
HETATM    8  C14 UNK     1      31.481  -8.146  37.311  1.00  0.00     0.067 A 
HETATM    9  C12 UNK     1      30.467  -7.458  37.981  1.00  0.00     0.092 A 
HETATM   10  O2  UNK     1      29.337  -8.212  38.358  1.00  0.00    -0.275 OA
HETATM   11  C9  UNK     1      30.554  -6.095  38.268  1.00  0.00     0.004 A 
HETATM   12  C22 UNK     1      28.269  -7.632  39.026  1.00  0.00     0.288 A 
HETATM   13  C20 UNK     1      28.376  -6.193  39.322  1.00  0.00     0.090 A 
HETATM   14  O3  UNK     1      27.281  -8.278  39.358  1.00  0.00    -0.260 OA
HETATM   15  C13 UNK     1      29.438  -5.453  38.975  1.00  0.00    -0.043 A 
HETATM   16  C21 UNK     1      29.502  -3.989  39.299  1.00  0.00     0.049 C 
HETATM   17  C15 UNK     1      31.711  -5.418  37.860  1.00  0.00     0.017 A 
HETATM   18  C16 UNK     1      32.736  -6.094  37.188  1.00  0.00     0.030 A 
ENDBRANCH   5   7
ENDBRANCH   3   5
ENDBRANCH   1   3
BRANCH   1  19
HETATM   19  C2  UNK     1      32.112  -8.958  33.822  1.00  0.00     0.129 A 
HETATM   20  C1  UNK     1      31.272  -9.912  34.241  1.00  0.00     0.057 A 
HETATM   21  N1  UNK     1      29.957  -9.637  33.861  1.00  0.00    -0.289 N 
HETATM   22  C6  UNK     1      31.604 -11.114  35.059  1.00  0.00     0.072 C 
HETATM   23  C5  UNK     1      28.854  -9.814  34.800  1.00  0.00     0.178 C 
HETATM   24  N2  UNK     1      29.985  -8.469  33.073  1.00  0.00    -0.217 N 
HETATM   25  C3  UNK     1      31.293  -7.971  33.070  1.00  0.00     0.295 A 
HETATM   26  O1  UNK     1      31.767  -6.990  32.522  1.00  0.00    -0.264 OA
BRANCH  24  27
HETATM   27  C4  UNK     1      28.939  -8.102  32.190  1.00  0.00     0.060 A 
HETATM   28  C7  UNK     1      28.243  -6.910  32.391  1.00  0.00     0.031 A 
HETATM   29  C17 UNK     1      27.214  -6.548  31.522  1.00  0.00     0.002 A 
HETATM   30  C19 UNK     1      26.880  -7.377  30.452  1.00  0.00     0.000 A 
HETATM   31  C18 UNK     1      27.577  -8.570  30.250  1.00  0.00     0.002 A 
HETATM   32  C8  UNK     1      28.606  -8.931  31.119  1.00  0.00     0.031 A 
ENDBRANCH  24  27
ENDBRANCH   1  19
TORSDOF 5
ENDMDL
