MODEL 1
REMARK VINA RESULT:      -9.3      0.000      0.000
REMARK  6 active torsions:
REMARK  status: ('A' for Active; 'I' for Inactive)
REMARK    1  A    between atoms: C2_8  and  O1_4 
REMARK    2  A    between atoms: C4_10  and  O1_4 
REMARK    3  A    between atoms: C3_9  and  O2_5 
REMARK    4  A    between atoms: C1_7  and  C9_15 
REMARK    5  A    between atoms: C4_10  and  C8_14 
REMARK    6  A    between atoms: C10_16  and  C11_17 
ROOT
HETATM    1  N1  UNK     1      22.058  -1.709  35.307  1.00  0.00    -0.191 NA
HETATM    2  C9  UNK     1      18.824  -2.529  36.181  1.00  0.00     0.036 C 
HETATM    3  C10 UNK     1      20.074  -3.043  36.329  1.00  0.00     0.055 C 
HETATM    4  C23 UNK     1      21.165  -2.298  35.759  1.00  0.00     0.100 C 
ENDROOT
BRANCH   3   5
HETATM    5  C11 UNK     1      20.360  -4.285  37.030  1.00  0.00    -0.014 A 
HETATM    6  C14 UNK     1      19.447  -5.339  36.984  1.00  0.00     0.036 A 
HETATM    7  C19 UNK     1      19.722  -6.530  37.655  1.00  0.00     0.034 A 
HETATM    8 Cl1  UNK     1      18.597  -7.832  37.598  1.00  0.00    -0.084 Cl
HETATM    9  C21 UNK     1      20.911  -6.669  38.372  1.00  0.00     0.024 A 
HETATM   10  C20 UNK     1      21.824  -5.615  38.418  1.00  0.00     0.003 A 
HETATM   11  C15 UNK     1      21.548  -4.423  37.747  1.00  0.00     0.013 A 
ENDBRANCH   3   5
BRANCH   2  12
HETATM   12  C1  UNK     1      18.490  -1.276  35.487  1.00  0.00    -0.015 A 
HETATM   13  C5  UNK     1      18.677  -1.244  34.110  1.00  0.00     0.052 A 
HETATM   14  C3  UNK     1      18.377  -0.082  33.401  1.00  0.00     0.102 A 
HETATM   15  C2  UNK     1      17.892   1.039  34.074  1.00  0.00     0.103 A 
HETATM   16  C7  UNK     1      17.707   0.998  35.456  1.00  0.00     0.059 A 
HETATM   17  C6  UNK     1      18.006  -0.164  36.165  1.00  0.00     0.024 A 
HETATM   18 Br1  UNK     1      17.732  -0.154  38.046  1.00  0.00    -0.050 Br
BRANCH  14  19
HETATM   19  O2  UNK     1      18.562  -0.053  32.052  1.00  0.00    -0.353 OA
HETATM   20  C22 UNK     1      19.597  -0.881  31.522  1.00  0.00     0.210 C 
ENDBRANCH  14  19
BRANCH  15  21
HETATM   21  O1  UNK     1      17.594   2.180  33.391  1.00  0.00    -0.344 OA
BRANCH  21  22
HETATM   22  C4  UNK     1      18.204   3.386  33.848  1.00  0.00     0.214 C 
BRANCH  22  23
HETATM   23  C8  UNK     1      18.645   4.192  32.662  1.00  0.00    -0.034 A 
HETATM   24  C12 UNK     1      19.115   5.487  32.846  1.00  0.00     0.012 A 
HETATM   25  C16 UNK     1      19.527   6.236  31.744  1.00  0.00     0.043 A 
HETATM   26  C18 UNK     1      19.465   5.685  30.464  1.00  0.00     0.116 A 
HETATM   27  C17 UNK     1      18.993   4.384  30.287  1.00  0.00     0.043 A 
HETATM   28  F1  UNK     1      19.859   6.404  29.405  1.00  0.00    -0.206 F 
HETATM   29  C13 UNK     1      18.582   3.636  31.390  1.00  0.00     0.012 A 
ENDBRANCH  22  23
ENDBRANCH  21  22
ENDBRANCH  15  21
ENDBRANCH   2  12
TORSDOF 6
ENDMDL
MODEL 2
REMARK VINA RESULT:      -9.2      0.974      1.599
REMARK  6 active torsions:
REMARK  status: ('A' for Active; 'I' for Inactive)
REMARK    1  A    between atoms: C2_8  and  O1_4 
REMARK    2  A    between atoms: C4_10  and  O1_4 
REMARK    3  A    between atoms: C3_9  and  O2_5 
REMARK    4  A    between atoms: C1_7  and  C9_15 
REMARK    5  A    between atoms: C4_10  and  C8_14 
REMARK    6  A    between atoms: C10_16  and  C11_17 
ROOT
HETATM    1  N1  UNK     1      21.986  -1.735  35.356  1.00  0.00    -0.191 NA
HETATM    2  C9  UNK     1      18.737  -2.552  36.175  1.00  0.00     0.036 C 
HETATM    3  C10 UNK     1      19.982  -3.077  36.328  1.00  0.00     0.055 C 
HETATM    4  C23 UNK     1      21.084  -2.327  35.786  1.00  0.00     0.100 C 
ENDROOT
BRANCH   3   5
HETATM    5  C11 UNK     1      20.252  -4.335  37.007  1.00  0.00    -0.014 A 
HETATM    6  C14 UNK     1      21.462  -4.521  37.676  1.00  0.00     0.036 A 
HETATM    7  C19 UNK     1      21.721  -5.726  38.328  1.00  0.00     0.034 A 
HETATM    8 Cl1  UNK     1      23.212  -5.956  39.157  1.00  0.00    -0.084 Cl
HETATM    9  C21 UNK     1      20.770  -6.747  38.311  1.00  0.00     0.024 A 
HETATM   10  C20 UNK     1      19.560  -6.561  37.641  1.00  0.00     0.003 A 
HETATM   11  C15 UNK     1      19.302  -5.355  36.988  1.00  0.00     0.013 A 
ENDBRANCH   3   5
BRANCH   2  12
HETATM   12  C1  UNK     1      18.419  -1.283  35.503  1.00  0.00    -0.015 A 
HETATM   13  C5  UNK     1      18.610  -1.229  34.128  1.00  0.00     0.052 A 
HETATM   14  C3  UNK     1      18.325  -0.052  33.438  1.00  0.00     0.102 A 
HETATM   15  C2  UNK     1      17.850   1.063  34.129  1.00  0.00     0.103 A 
HETATM   16  C7  UNK     1      17.662   1.000  35.510  1.00  0.00     0.059 A 
HETATM   17  C6  UNK     1      17.946  -0.178  36.199  1.00  0.00     0.024 A 
HETATM   18 Br1  UNK     1      17.667  -0.198  38.079  1.00  0.00    -0.050 Br
BRANCH  14  19
HETATM   19  O2  UNK     1      18.515  -0.001  32.090  1.00  0.00    -0.353 OA
HETATM   20  C22 UNK     1      19.533  -0.840  31.547  1.00  0.00     0.210 C 
ENDBRANCH  14  19
BRANCH  15  21
HETATM   21  O1  UNK     1      17.568   2.219  33.466  1.00  0.00    -0.344 OA
BRANCH  21  22
HETATM   22  C4  UNK     1      18.238   3.399  33.906  1.00  0.00     0.214 C 
BRANCH  22  23
HETATM   23  C8  UNK     1      18.663   4.197  32.709  1.00  0.00    -0.034 A 
HETATM   24  C12 UNK     1      18.625   3.617  31.446  1.00  0.00     0.012 A 
HETATM   25  C16 UNK     1      19.018   4.360  30.333  1.00  0.00     0.043 A 
HETATM   26  C18 UNK     1      19.448   5.677  30.490  1.00  0.00     0.116 A 
HETATM   27  C17 UNK     1      19.484   6.253  31.761  1.00  0.00     0.043 A 
HETATM   28  F1  UNK     1      19.827   6.391  29.421  1.00  0.00    -0.206 F 
HETATM   29  C13 UNK     1      19.090   5.510  32.873  1.00  0.00     0.012 A 
ENDBRANCH  22  23
ENDBRANCH  21  22
ENDBRANCH  15  21
ENDBRANCH   2  12
TORSDOF 6
ENDMDL
MODEL 3
REMARK VINA RESULT:      -9.1      6.591      8.883
REMARK  6 active torsions:
REMARK  status: ('A' for Active; 'I' for Inactive)
REMARK    1  A    between atoms: C2_8  and  O1_4 
REMARK    2  A    between atoms: C4_10  and  O1_4 
REMARK    3  A    between atoms: C3_9  and  O2_5 
REMARK    4  A    between atoms: C1_7  and  C9_15 
REMARK    5  A    between atoms: C4_10  and  C8_14 
REMARK    6  A    between atoms: C10_16  and  C11_17 
ROOT
HETATM    1  N1  UNK     1      17.898   2.663  33.919  1.00  0.00    -0.191 NA
HETATM    2  C9  UNK     1      18.249   4.634  31.110  1.00  0.00     0.036 C 
HETATM    3  C10 UNK     1      18.319   3.316  31.437  1.00  0.00     0.055 C 
HETATM    4  C23 UNK     1      18.086   2.965  32.813  1.00  0.00     0.100 C 
ENDROOT
BRANCH   3   5
HETATM    5  C11 UNK     1      18.608   2.258  30.480  1.00  0.00    -0.014 A 
HETATM    6  C14 UNK     1      19.509   1.246  30.809  1.00  0.00     0.036 A 
HETATM    7  C19 UNK     1      19.784   0.232  29.893  1.00  0.00     0.034 A 
HETATM    8 Cl1  UNK     1      20.894  -1.020  30.298  1.00  0.00    -0.084 Cl
HETATM    9  C21 UNK     1      19.158   0.230  28.646  1.00  0.00     0.024 A 
HETATM   10  C20 UNK     1      18.257   1.243  28.316  1.00  0.00     0.003 A 
HETATM   11  C15 UNK     1      17.982   2.258  29.234  1.00  0.00     0.013 A 
ENDBRANCH   3   5
BRANCH   2  12
HETATM   12  C1  UNK     1      17.955   5.733  32.041  1.00  0.00    -0.015 A 
HETATM   13  C5  UNK     1      16.617   5.989  32.317  1.00  0.00     0.052 A 
HETATM   14  C3  UNK     1      16.280   7.019  33.193  1.00  0.00     0.102 A 
HETATM   15  C2  UNK     1      17.282   7.786  33.787  1.00  0.00     0.103 A 
HETATM   16  C7  UNK     1      18.622   7.522  33.504  1.00  0.00     0.059 A 
HETATM   17  C6  UNK     1      18.960   6.491  32.628  1.00  0.00     0.024 A 
HETATM   18 Br1  UNK     1      20.804   6.184  32.286  1.00  0.00    -0.050 Br
BRANCH  14  19
HETATM   19  O2  UNK     1      14.968   7.268  33.462  1.00  0.00    -0.353 OA
HETATM   20  C22 UNK     1      14.061   7.221  32.360  1.00  0.00     0.210 C 
ENDBRANCH  14  19
BRANCH  15  21
HETATM   21  O1  UNK     1      16.965   8.795  34.645  1.00  0.00    -0.344 OA
BRANCH  21  22
HETATM   22  C4  UNK     1      16.967  10.120  34.117  1.00  0.00     0.214 C 
BRANCH  22  23
HETATM   23  C8  UNK     1      15.578  10.683  34.199  1.00  0.00    -0.034 A 
HETATM   24  C12 UNK     1      14.795  10.754  33.053  1.00  0.00     0.012 A 
HETATM   25  C16 UNK     1      13.504  11.277  33.130  1.00  0.00     0.043 A 
HETATM   26  C18 UNK     1      13.005  11.725  34.353  1.00  0.00     0.116 A 
HETATM   27  C17 UNK     1      13.797  11.650  35.499  1.00  0.00     0.043 A 
HETATM   28  F1  UNK     1      11.765  12.228  34.427  1.00  0.00    -0.206 F 
HETATM   29  C13 UNK     1      15.087  11.127  35.421  1.00  0.00     0.012 A 
ENDBRANCH  22  23
ENDBRANCH  21  22
ENDBRANCH  15  21
ENDBRANCH   2  12
TORSDOF 6
ENDMDL
MODEL 4
REMARK VINA RESULT:      -8.8     12.192     14.088
REMARK  6 active torsions:
REMARK  status: ('A' for Active; 'I' for Inactive)
REMARK    1  A    between atoms: C2_8  and  O1_4 
REMARK    2  A    between atoms: C4_10  and  O1_4 
REMARK    3  A    between atoms: C3_9  and  O2_5 
REMARK    4  A    between atoms: C1_7  and  C9_15 
REMARK    5  A    between atoms: C4_10  and  C8_14 
REMARK    6  A    between atoms: C10_16  and  C11_17 
ROOT
HETATM    1  N1  UNK     1      27.255 -10.370  39.770  1.00  0.00    -0.191 NA
HETATM    2  C9  UNK     1      27.438  -8.886  36.662  1.00  0.00     0.036 C 
HETATM    3  C10 UNK     1      26.618  -9.742  37.328  1.00  0.00     0.055 C 
HETATM    4  C23 UNK     1      26.979 -10.084  38.679  1.00  0.00     0.100 C 
ENDROOT
BRANCH   3   5
HETATM    5  C11 UNK     1      25.409 -10.314  36.757  1.00  0.00    -0.014 A 
HETATM    6  C14 UNK     1      24.250  -9.543  36.661  1.00  0.00     0.036 A 
HETATM    7  C19 UNK     1      23.091 -10.091  36.112  1.00  0.00     0.034 A 
HETATM    8 Cl1  UNK     1      21.661  -9.141  35.990  1.00  0.00    -0.084 Cl
HETATM    9  C21 UNK     1      23.090 -11.411  35.659  1.00  0.00     0.024 A 
HETATM   10  C20 UNK     1      24.249 -12.182  35.757  1.00  0.00     0.003 A 
HETATM   11  C15 UNK     1      25.408 -11.634  36.306  1.00  0.00     0.013 A 
ENDBRANCH   3   5
BRANCH   2  12
HETATM   12  C1  UNK     1      28.664  -8.280  37.201  1.00  0.00    -0.015 A 
HETATM   13  C5  UNK     1      29.871  -8.882  36.864  1.00  0.00     0.052 A 
HETATM   14  C3  UNK     1      31.065  -8.350  37.347  1.00  0.00     0.102 A 
HETATM   15  C2  UNK     1      31.044  -7.219  38.164  1.00  0.00     0.103 A 
HETATM   16  C7  UNK     1      29.829  -6.622  38.497  1.00  0.00     0.059 A 
HETATM   17  C6  UNK     1      28.634  -7.154  38.014  1.00  0.00     0.024 A 
HETATM   18 Br1  UNK     1      27.013  -6.292  38.506  1.00  0.00    -0.050 Br
BRANCH  14  19
HETATM   19  O2  UNK     1      32.246  -8.942  37.015  1.00  0.00    -0.353 OA
HETATM   20  C22 UNK     1      32.666  -8.833  35.656  1.00  0.00     0.210 C 
ENDBRANCH  14  19
BRANCH  15  21
HETATM   21  O1  UNK     1      32.205  -6.690  38.642  1.00  0.00    -0.344 OA
BRANCH  21  22
HETATM   22  C4  UNK     1      32.517  -5.354  38.251  1.00  0.00     0.214 C 
BRANCH  22  23
HETATM   23  C8  UNK     1      33.303  -5.388  36.973  1.00  0.00    -0.034 A 
HETATM   24  C12 UNK     1      34.586  -5.921  36.967  1.00  0.00     0.012 A 
HETATM   25  C16 UNK     1      35.316  -5.954  35.779  1.00  0.00     0.043 A 
HETATM   26  C18 UNK     1      34.756  -5.452  34.603  1.00  0.00     0.116 A 
HETATM   27  C17 UNK     1      33.467  -4.919  34.616  1.00  0.00     0.043 A 
HETATM   28  F1  UNK     1      35.456  -5.483  33.462  1.00  0.00    -0.206 F 
HETATM   29  C13 UNK     1      32.738  -4.887  35.805  1.00  0.00     0.012 A 
ENDBRANCH  22  23
ENDBRANCH  21  22
ENDBRANCH  15  21
ENDBRANCH   2  12
TORSDOF 6
ENDMDL
MODEL 5
REMARK VINA RESULT:      -8.6      6.747      9.224
REMARK  6 active torsions:
REMARK  status: ('A' for Active; 'I' for Inactive)
REMARK    1  A    between atoms: C2_8  and  O1_4 
REMARK    2  A    between atoms: C4_10  and  O1_4 
REMARK    3  A    between atoms: C3_9  and  O2_5 
REMARK    4  A    between atoms: C1_7  and  C9_15 
REMARK    5  A    between atoms: C4_10  and  C8_14 
REMARK    6  A    between atoms: C10_16  and  C11_17 
ROOT
HETATM    1  N1  UNK     1      18.090   3.396  33.938  1.00  0.00    -0.191 NA
HETATM    2  C9  UNK     1      18.490   5.142  30.990  1.00  0.00     0.036 C 
HETATM    3  C10 UNK     1      18.456   3.847  31.404  1.00  0.00     0.055 C 
HETATM    4  C23 UNK     1      18.253   3.608  32.808  1.00  0.00     0.100 C 
ENDROOT
BRANCH   3   5
HETATM    5  C11 UNK     1      18.606   2.708  30.510  1.00  0.00    -0.014 A 
HETATM    6  C14 UNK     1      19.380   1.614  30.898  1.00  0.00     0.036 A 
HETATM    7  C19 UNK     1      19.523   0.522  30.043  1.00  0.00     0.034 A 
HETATM    8 Cl1  UNK     1      20.476  -0.830  30.520  1.00  0.00    -0.084 Cl
HETATM    9  C21 UNK     1      18.892   0.523  28.798  1.00  0.00     0.024 A 
HETATM   10  C20 UNK     1      18.118   1.618  28.410  1.00  0.00     0.003 A 
HETATM   11  C15 UNK     1      17.976   2.710  29.266  1.00  0.00     0.013 A 
ENDBRANCH   3   5
BRANCH   2  12
HETATM   12  C1  UNK     1      18.336   6.321  31.855  1.00  0.00    -0.015 A 
HETATM   13  C5  UNK     1      17.071   6.890  31.931  1.00  0.00     0.052 A 
HETATM   14  C3  UNK     1      16.867   8.010  32.736  1.00  0.00     0.102 A 
HETATM   15  C2  UNK     1      17.930   8.552  33.459  1.00  0.00     0.103 A 
HETATM   16  C7  UNK     1      19.197   7.974  33.376  1.00  0.00     0.059 A 
HETATM   17  C6  UNK     1      19.400   6.853  32.572  1.00  0.00     0.024 A 
HETATM   18 Br1  UNK     1      21.150   6.114  32.504  1.00  0.00    -0.050 Br
BRANCH  14  19
HETATM   19  O2  UNK     1      15.626   8.568  32.809  1.00  0.00    -0.353 OA
HETATM   20  C22 UNK     1      14.612   7.807  33.463  1.00  0.00     0.210 C 
ENDBRANCH  14  19
BRANCH  15  21
HETATM   21  O1  UNK     1      17.743   9.646  34.249  1.00  0.00    -0.344 OA
BRANCH  21  22
HETATM   22  C4  UNK     1      18.648  10.734  34.074  1.00  0.00     0.214 C 
BRANCH  22  23
HETATM   23  C8  UNK     1      17.867  12.010  33.966  1.00  0.00    -0.034 A 
HETATM   24  C12 UNK     1      16.540  12.042  34.379  1.00  0.00     0.012 A 
HETATM   25  C16 UNK     1      15.814  13.229  34.280  1.00  0.00     0.043 A 
HETATM   26  C18 UNK     1      16.419  14.376  33.767  1.00  0.00     0.116 A 
HETATM   27  C17 UNK     1      17.752  14.336  33.354  1.00  0.00     0.043 A 
HETATM   28  F1  UNK     1      15.722  15.516  33.670  1.00  0.00    -0.206 F 
HETATM   29  C13 UNK     1      18.477  13.149  33.455  1.00  0.00     0.012 A 
ENDBRANCH  22  23
ENDBRANCH  21  22
ENDBRANCH  15  21
ENDBRANCH   2  12
TORSDOF 6
ENDMDL
MODEL 6
REMARK VINA RESULT:      -8.3     26.890     28.527
REMARK  6 active torsions:
REMARK  status: ('A' for Active; 'I' for Inactive)
REMARK    1  A    between atoms: C2_8  and  O1_4 
REMARK    2  A    between atoms: C4_10  and  O1_4 
REMARK    3  A    between atoms: C3_9  and  O2_5 
REMARK    4  A    between atoms: C1_7  and  C9_15 
REMARK    5  A    between atoms: C4_10  and  C8_14 
REMARK    6  A    between atoms: C10_16  and  C11_17 
ROOT
HETATM    1  N1  UNK     1      15.418  11.001   7.625  1.00  0.00    -0.191 NA
HETATM    2  C9  UNK     1      16.686   9.819  10.607  1.00  0.00     0.036 C 
HETATM    3  C10 UNK     1      16.969  10.794   9.702  1.00  0.00     0.055 C 
HETATM    4  C23 UNK     1      16.106  10.900   8.555  1.00  0.00     0.100 C 
ENDROOT
BRANCH   3   5
HETATM    5  C11 UNK     1      18.080  11.724   9.835  1.00  0.00    -0.014 A 
HETATM    6  C14 UNK     1      18.940  11.943   8.759  1.00  0.00     0.036 A 
HETATM    7  C19 UNK     1      20.003  12.836   8.885  1.00  0.00     0.034 A 
HETATM    8 Cl1  UNK     1      21.064  13.109   7.558  1.00  0.00    -0.084 Cl
HETATM    9  C21 UNK     1      20.208  13.510  10.090  1.00  0.00     0.024 A 
HETATM   10  C20 UNK     1      19.348  13.291  11.166  1.00  0.00     0.003 A 
HETATM   11  C15 UNK     1      18.284  12.397  11.039  1.00  0.00     0.013 A 
ENDBRANCH   3   5
BRANCH   2  12
HETATM   12  C1  UNK     1      15.572   8.863  10.516  1.00  0.00    -0.015 A 
HETATM   13  C5  UNK     1      14.306   9.334  10.841  1.00  0.00     0.052 A 
HETATM   14  C3  UNK     1      13.213   8.471  10.772  1.00  0.00     0.102 A 
HETATM   15  C2  UNK     1      13.394   7.145  10.379  1.00  0.00     0.103 A 
HETATM   16  C7  UNK     1      14.669   6.682  10.055  1.00  0.00     0.059 A 
HETATM   17  C6  UNK     1      15.763   7.545  10.123  1.00  0.00     0.024 A 
HETATM   18 Br1  UNK     1      17.472   6.851   9.668  1.00  0.00    -0.050 Br
BRANCH  14  19
HETATM   19  O2  UNK     1      11.972   8.934  11.092  1.00  0.00    -0.353 OA
HETATM   20  C22 UNK     1      11.907  10.071  11.952  1.00  0.00     0.210 C 
ENDBRANCH  14  19
BRANCH  15  21
HETATM   21  O1  UNK     1      12.334   6.293  10.308  1.00  0.00    -0.344 OA
BRANCH  21  22
HETATM   22  C4  UNK     1      12.358   5.313   9.272  1.00  0.00     0.214 C 
BRANCH  22  23
HETATM   23  C8  UNK     1      11.399   5.718   8.191  1.00  0.00    -0.034 A 
HETATM   24  C12 UNK     1      10.061   5.928   8.501  1.00  0.00     0.012 A 
HETATM   25  C16 UNK     1       9.170   6.305   7.496  1.00  0.00     0.043 A 
HETATM   26  C18 UNK     1       9.625   6.472   6.188  1.00  0.00     0.116 A 
HETATM   27  C17 UNK     1      10.970   6.260   5.884  1.00  0.00     0.043 A 
HETATM   28  F1  UNK     1       8.770   6.834   5.222  1.00  0.00    -0.206 F 
HETATM   29  C13 UNK     1      11.860   5.883   6.890  1.00  0.00     0.012 A 
ENDBRANCH  22  23
ENDBRANCH  21  22
ENDBRANCH  15  21
ENDBRANCH   2  12
TORSDOF 6
ENDMDL
MODEL 7
REMARK VINA RESULT:      -8.2     10.003     13.398
REMARK  6 active torsions:
REMARK  status: ('A' for Active; 'I' for Inactive)
REMARK    1  A    between atoms: C2_8  and  O1_4 
REMARK    2  A    between atoms: C4_10  and  O1_4 
REMARK    3  A    between atoms: C3_9  and  O2_5 
REMARK    4  A    between atoms: C1_7  and  C9_15 
REMARK    5  A    between atoms: C4_10  and  C8_14 
REMARK    6  A    between atoms: C10_16  and  C11_17 
ROOT
HETATM    1  N1  UNK     1      29.315  -6.244  34.821  1.00  0.00    -0.191 NA
HETATM    2  C9  UNK     1      30.277  -6.989  38.048  1.00  0.00     0.036 C 
HETATM    3  C10 UNK     1      30.861  -6.614  36.879  1.00  0.00     0.055 C 
HETATM    4  C23 UNK     1      29.997  -6.412  35.746  1.00  0.00     0.100 C 
ENDROOT
BRANCH   3   5
HETATM    5  C11 UNK     1      32.292  -6.404  36.719  1.00  0.00    -0.014 A 
HETATM    6  C14 UNK     1      32.762  -5.485  35.781  1.00  0.00     0.036 A 
HETATM    7  C19 UNK     1      34.133  -5.282  35.629  1.00  0.00     0.034 A 
HETATM    8 Cl1  UNK     1      34.715  -4.147  34.474  1.00  0.00    -0.084 Cl
HETATM    9  C21 UNK     1      35.035  -5.999  36.415  1.00  0.00     0.024 A 
HETATM   10  C20 UNK     1      34.566  -6.919  37.353  1.00  0.00     0.003 A 
HETATM   11  C15 UNK     1      33.193  -7.122  37.505  1.00  0.00     0.013 A 
ENDBRANCH   3   5
BRANCH   2  12
HETATM   12  C1  UNK     1      28.838  -7.206  38.256  1.00  0.00    -0.015 A 
HETATM   13  C5  UNK     1      28.356  -8.494  38.054  1.00  0.00     0.052 A 
HETATM   14  C3  UNK     1      26.999  -8.757  38.236  1.00  0.00     0.102 A 
HETATM   15  C2  UNK     1      26.135  -7.732  38.620  1.00  0.00     0.103 A 
HETATM   16  C7  UNK     1      26.628  -6.443  38.820  1.00  0.00     0.059 A 
HETATM   17  C6  UNK     1      27.985  -6.179  38.638  1.00  0.00     0.024 A 
HETATM   18 Br1  UNK     1      28.591  -4.401  38.928  1.00  0.00    -0.050 Br
BRANCH  14  19
HETATM   19  O2  UNK     1      26.528 -10.020  38.037  1.00  0.00    -0.353 OA
HETATM   20  C22 UNK     1      26.215 -10.389  36.694  1.00  0.00     0.210 C 
ENDBRANCH  14  19
BRANCH  15  21
HETATM   21  O1  UNK     1      24.807  -7.978  38.802  1.00  0.00    -0.344 OA
BRANCH  21  22
HETATM   22  C4  UNK     1      23.978  -6.860  39.116  1.00  0.00     0.214 C 
BRANCH  22  23
HETATM   23  C8  UNK     1      22.539  -7.266  38.989  1.00  0.00    -0.034 A 
HETATM   24  C12 UNK     1      22.127  -8.503  39.470  1.00  0.00     0.012 A 
HETATM   25  C16 UNK     1      20.789  -8.879  39.353  1.00  0.00     0.043 A 
HETATM   26  C18 UNK     1      19.872  -8.014  38.756  1.00  0.00     0.116 A 
HETATM   27  C17 UNK     1      20.293  -6.773  38.276  1.00  0.00     0.043 A 
HETATM   28  F1  UNK     1      18.587  -8.375  38.642  1.00  0.00    -0.206 F 
HETATM   29  C13 UNK     1      21.631  -6.398  38.394  1.00  0.00     0.012 A 
ENDBRANCH  22  23
ENDBRANCH  21  22
ENDBRANCH  15  21
ENDBRANCH   2  12
TORSDOF 6
ENDMDL
MODEL 8
REMARK VINA RESULT:      -8.2     10.726     12.941
REMARK  6 active torsions:
REMARK  status: ('A' for Active; 'I' for Inactive)
REMARK    1  A    between atoms: C2_8  and  O1_4 
REMARK    2  A    between atoms: C4_10  and  O1_4 
REMARK    3  A    between atoms: C3_9  and  O2_5 
REMARK    4  A    between atoms: C1_7  and  C9_15 
REMARK    5  A    between atoms: C4_10  and  C8_14 
REMARK    6  A    between atoms: C10_16  and  C11_17 
ROOT
HETATM    1  N1  UNK     1      26.459  -5.838  39.053  1.00  0.00    -0.191 NA
HETATM    2  C9  UNK     1      26.013  -8.982  37.706  1.00  0.00     0.036 C 
HETATM    3  C10 UNK     1      25.249  -7.991  38.237  1.00  0.00     0.055 C 
HETATM    4  C23 UNK     1      25.928  -6.804  38.686  1.00  0.00     0.100 C 
ENDROOT
BRANCH   3   5
HETATM    5  C11 UNK     1      23.802  -8.065  38.366  1.00  0.00    -0.014 A 
HETATM    6  C14 UNK     1      23.047  -8.720  37.393  1.00  0.00     0.036 A 
HETATM    7  C19 UNK     1      21.660  -8.793  37.518  1.00  0.00     0.034 A 
HETATM    8 Cl1  UNK     1      20.727  -9.604  36.319  1.00  0.00    -0.084 Cl
HETATM    9  C21 UNK     1      21.027  -8.209  38.615  1.00  0.00     0.024 A 
HETATM   10  C20 UNK     1      21.781  -7.553  39.588  1.00  0.00     0.003 A 
HETATM   11  C15 UNK     1      23.169  -7.480  39.463  1.00  0.00     0.013 A 
ENDBRANCH   3   5
BRANCH   2  12
HETATM   12  C1  UNK     1      27.475  -8.947  37.550  1.00  0.00    -0.015 A 
HETATM   13  C5  UNK     1      27.973  -8.412  36.368  1.00  0.00     0.052 A 
HETATM   14  C3  UNK     1      29.351  -8.353  36.167  1.00  0.00     0.102 A 
HETATM   15  C2  UNK     1      30.221  -8.830  37.148  1.00  0.00     0.103 A 
HETATM   16  C7  UNK     1      29.711  -9.366  38.331  1.00  0.00     0.059 A 
HETATM   17  C6  UNK     1      28.333  -9.424  38.533  1.00  0.00     0.024 A 
HETATM   18 Br1  UNK     1      27.704 -10.165  40.166  1.00  0.00    -0.050 Br
BRANCH  14  19
HETATM   19  O2  UNK     1      29.838  -7.829  35.007  1.00  0.00    -0.353 OA
HETATM   20  C22 UNK     1      29.607  -6.439  34.778  1.00  0.00     0.210 C 
ENDBRANCH  14  19
BRANCH  15  21
HETATM   21  O1  UNK     1      31.569  -8.777  36.962  1.00  0.00    -0.344 OA
BRANCH  21  22
HETATM   22  C4  UNK     1      32.319  -7.977  37.875  1.00  0.00     0.214 C 
BRANCH  22  23
HETATM   23  C8  UNK     1      32.166  -6.532  37.501  1.00  0.00    -0.034 A 
HETATM   24  C12 UNK     1      31.264  -5.734  38.195  1.00  0.00     0.012 A 
HETATM   25  C16 UNK     1      31.123  -4.390  37.848  1.00  0.00     0.043 A 
HETATM   26  C18 UNK     1      31.886  -3.854  36.810  1.00  0.00     0.116 A 
HETATM   27  C17 UNK     1      32.789  -4.662  36.119  1.00  0.00     0.043 A 
HETATM   28  F1  UNK     1      31.750  -2.564  36.476  1.00  0.00    -0.206 F 
HETATM   29  C13 UNK     1      32.930  -6.005  36.467  1.00  0.00     0.012 A 
ENDBRANCH  22  23
ENDBRANCH  21  22
ENDBRANCH  15  21
ENDBRANCH   2  12
TORSDOF 6
ENDMDL
MODEL 9
REMARK VINA RESULT:      -8.2     26.502     28.788
REMARK  6 active torsions:
REMARK  status: ('A' for Active; 'I' for Inactive)
REMARK    1  A    between atoms: C2_8  and  O1_4 
REMARK    2  A    between atoms: C4_10  and  O1_4 
REMARK    3  A    between atoms: C3_9  and  O2_5 
REMARK    4  A    between atoms: C1_7  and  C9_15 
REMARK    5  A    between atoms: C4_10  and  C8_14 
REMARK    6  A    between atoms: C10_16  and  C11_17 
ROOT
HETATM    1  N1  UNK     1      16.941  12.493  11.618  1.00  0.00    -0.191 NA
HETATM    2  C9  UNK     1      17.996  10.308   9.167  1.00  0.00     0.036 C 
HETATM    3  C10 UNK     1      18.491  11.368   9.861  1.00  0.00     0.055 C 
HETATM    4  C23 UNK     1      17.626  11.984  10.831  1.00  0.00     0.100 C 
ENDROOT
BRANCH   3   5
HETATM    5  C11 UNK     1      19.834  11.898   9.679  1.00  0.00    -0.014 A 
HETATM    6  C14 UNK     1      20.233  12.375   8.430  1.00  0.00     0.036 A 
HETATM    7  C19 UNK     1      21.519  12.884   8.256  1.00  0.00     0.034 A 
HETATM    8 Cl1  UNK     1      22.013  13.475   6.716  1.00  0.00    -0.084 Cl
HETATM    9  C21 UNK     1      22.408  12.916   9.330  1.00  0.00     0.024 A 
HETATM   10  C20 UNK     1      22.010  12.439  10.579  1.00  0.00     0.003 A 
HETATM   11  C15 UNK     1      20.723  11.929  10.753  1.00  0.00     0.013 A 
ENDBRANCH   3   5
BRANCH   2  12
HETATM   12  C1  UNK     1      16.650   9.736   9.323  1.00  0.00    -0.015 A 
HETATM   13  C5  UNK     1      16.535   8.591  10.102  1.00  0.00     0.052 A 
HETATM   14  C3  UNK     1      15.284   8.005  10.284  1.00  0.00     0.102 A 
HETATM   15  C2  UNK     1      14.156   8.570   9.687  1.00  0.00     0.103 A 
HETATM   16  C7  UNK     1      14.282   9.720   8.908  1.00  0.00     0.059 A 
HETATM   17  C6  UNK     1      15.534  10.306   8.726  1.00  0.00     0.024 A 
HETATM   18 Br1  UNK     1      15.635  11.871   7.652  1.00  0.00    -0.050 Br
BRANCH  14  19
HETATM   19  O2  UNK     1      15.173   6.882  11.046  1.00  0.00    -0.353 OA
HETATM   20  C22 UNK     1      15.256   5.629  10.368  1.00  0.00     0.210 C 
ENDBRANCH  14  19
BRANCH  15  21
HETATM   21  O1  UNK     1      12.927   8.007   9.858  1.00  0.00    -0.344 OA
BRANCH  21  22
HETATM   22  C4  UNK     1      11.811   8.711   9.318  1.00  0.00     0.214 C 
BRANCH  22  23
HETATM   23  C8  UNK     1      11.127   7.842   8.304  1.00  0.00    -0.034 A 
HETATM   24  C12 UNK     1       9.826   7.408   8.534  1.00  0.00     0.012 A 
HETATM   25  C16 UNK     1       9.190   6.601   7.592  1.00  0.00     0.043 A 
HETATM   26  C18 UNK     1       9.859   6.234   6.424  1.00  0.00     0.116 A 
HETATM   27  C17 UNK     1      11.164   6.673   6.199  1.00  0.00     0.043 A 
HETATM   28  F1  UNK     1       9.248   5.458   5.518  1.00  0.00    -0.206 F 
HETATM   29  C13 UNK     1      11.799   7.480   7.142  1.00  0.00     0.012 A 
ENDBRANCH  22  23
ENDBRANCH  21  22
ENDBRANCH  15  21
ENDBRANCH   2  12
TORSDOF 6
ENDMDL
MODEL 10
REMARK VINA RESULT:      -8.1     26.349     28.356
REMARK  6 active torsions:
REMARK  status: ('A' for Active; 'I' for Inactive)
REMARK    1  A    between atoms: C2_8  and  O1_4 
REMARK    2  A    between atoms: C4_10  and  O1_4 
REMARK    3  A    between atoms: C3_9  and  O2_5 
REMARK    4  A    between atoms: C1_7  and  C9_15 
REMARK    5  A    between atoms: C4_10  and  C8_14 
REMARK    6  A    between atoms: C10_16  and  C11_17 
ROOT
HETATM    1  N1  UNK     1      15.630  10.894   7.676  1.00  0.00    -0.191 NA
HETATM    2  C9  UNK     1      16.439   9.553  10.749  1.00  0.00     0.036 C 
HETATM    3  C10 UNK     1      16.805  10.612   9.978  1.00  0.00     0.055 C 
HETATM    4  C23 UNK     1      16.150  10.759   8.706  1.00  0.00     0.100 C 
ENDROOT
BRANCH   3   5
HETATM    5  C11 UNK     1      17.805  11.593  10.373  1.00  0.00    -0.014 A 
HETATM    6  C14 UNK     1      19.092  11.529   9.841  1.00  0.00     0.036 A 
HETATM    7  C19 UNK     1      20.050  12.469  10.218  1.00  0.00     0.034 A 
HETATM    8 Cl1  UNK     1      21.640  12.393   9.561  1.00  0.00    -0.084 Cl
HETATM    9  C21 UNK     1      19.721  13.474  11.128  1.00  0.00     0.024 A 
HETATM   10  C20 UNK     1      18.433  13.538  11.661  1.00  0.00     0.003 A 
HETATM   11  C15 UNK     1      17.475  12.596  11.283  1.00  0.00     0.013 A 
ENDBRANCH   3   5
BRANCH   2  12
HETATM   12  C1  UNK     1      15.430   8.543  10.393  1.00  0.00    -0.015 A 
HETATM   13  C5  UNK     1      15.896   7.327   9.907  1.00  0.00     0.052 A 
HETATM   14  C3  UNK     1      14.984   6.333   9.555  1.00  0.00     0.102 A 
HETATM   15  C2  UNK     1      13.615   6.562   9.690  1.00  0.00     0.103 A 
HETATM   16  C7  UNK     1      13.158   7.786  10.179  1.00  0.00     0.059 A 
HETATM   17  C6  UNK     1      14.069   8.780  10.532  1.00  0.00     0.024 A 
HETATM   18 Br1  UNK     1      13.380  10.424  11.191  1.00  0.00    -0.050 Br
BRANCH  14  19
HETATM   19  O2  UNK     1      15.442   5.142   9.078  1.00  0.00    -0.353 OA
HETATM   20  C22 UNK     1      15.524   4.061  10.006  1.00  0.00     0.210 C 
ENDBRANCH  14  19
BRANCH  15  21
HETATM   21  O1  UNK     1      12.715   5.598   9.349  1.00  0.00    -0.344 OA
BRANCH  21  22
HETATM   22  C4  UNK     1      12.575   5.304   7.961  1.00  0.00     0.214 C 
BRANCH  22  23
HETATM   23  C8  UNK     1      11.230   5.774   7.492  1.00  0.00    -0.034 A 
HETATM   24  C12 UNK     1      10.187   5.894   8.404  1.00  0.00     0.012 A 
HETATM   25  C16 UNK     1       8.936   6.332   7.969  1.00  0.00     0.043 A 
HETATM   26  C18 UNK     1       8.737   6.647   6.625  1.00  0.00     0.116 A 
HETATM   27  C17 UNK     1       9.788   6.525   5.716  1.00  0.00     0.043 A 
HETATM   28  F1  UNK     1       7.536   7.068   6.206  1.00  0.00    -0.206 F 
HETATM   29  C13 UNK     1      11.038   6.087   6.152  1.00  0.00     0.012 A 
ENDBRANCH  22  23
ENDBRANCH  21  22
ENDBRANCH  15  21
ENDBRANCH   2  12
TORSDOF 6
ENDMDL
