MODEL 1
REMARK VINA RESULT:     -10.5      0.000      0.000
REMARK  8 active torsions:
REMARK  status: ('A' for Active; 'I' for Inactive)
REMARK    1  A    between atoms: C27_34  and  O4_4 
REMARK    2  A    between atoms: C28_35  and  O4_4 
REMARK    3  A    between atoms: C5_12  and  N1_5 
REMARK    4  A    between atoms: C6_13  and  N2_6 
REMARK    5  A    between atoms: C5_12  and  C7_14 
REMARK    6  A    between atoms: C6_13  and  C8_15 
REMARK    7  A    between atoms: C14_21  and  C20_27 
REMARK    8  A    between atoms: C15_22  and  C21_28 
ROOT
HETATM    1  N1  UNK     1      18.889  -0.742  35.362  1.00  0.00     0.096 N 
HETATM    2  N2  UNK     1      19.557  -3.241  36.655  1.00  0.00     0.097 N 
HETATM    3  C1  UNK     1      19.518  -1.841  34.619  1.00  0.00     0.303 C 
HETATM    4  C2  UNK     1      18.079  -1.269  36.467  1.00  0.00     0.303 C 
HETATM    5  C3  UNK     1      20.367  -2.713  35.549  1.00  0.00     0.303 C 
HETATM    6  C4  UNK     1      18.927  -2.143  37.398  1.00  0.00     0.303 C 
ENDROOT
BRANCH   2   7
HETATM    7  C6  UNK     1      20.369  -4.070  37.543  1.00  0.00     0.334 C 
BRANCH   7   8
HETATM    8  C8  UNK     1      20.295  -5.493  37.091  1.00  0.00     0.095 A 
HETATM    9  C11 UNK     1      19.192  -6.238  36.759  1.00  0.00     0.078 A 
HETATM   10  O1  UNK     1      19.616  -7.484  36.409  1.00  0.00    -0.294 OA
HETATM   11  C18 UNK     1      17.748  -5.986  36.708  1.00  0.00     0.079 C 
HETATM   12  C15 UNK     1      20.967  -7.412  36.553  1.00  0.00     0.180 A 
HETATM   13  N3  UNK     1      21.431  -6.250  36.957  1.00  0.00    -0.224 NA
BRANCH  12  14
HETATM   14  C21 UNK     1      21.681  -8.619  36.240  1.00  0.00     0.017 A 
HETATM   15  C23 UNK     1      22.898  -8.892  36.864  1.00  0.00     0.018 A 
HETATM   16  C25 UNK     1      23.589 -10.065  36.560  1.00  0.00     0.038 A 
HETATM   17  C27 UNK     1      23.063 -10.964  35.633  1.00  0.00     0.068 A 
HETATM   18  C26 UNK     1      21.845 -10.692  35.009  1.00  0.00     0.038 A 
HETATM   19  C24 UNK     1      21.154  -9.520  35.313  1.00  0.00     0.018 A 
BRANCH  17  20
HETATM   20  O4  UNK     1      23.738 -12.108  35.336  1.00  0.00    -0.352 OA
BRANCH  20  21
HETATM   21  C28 UNK     1      24.951 -12.350  36.050  1.00  0.00     0.171 C 
HETATM   22  C29 UNK     1      24.891 -13.730  36.670  1.00  0.00     0.034 C 
ENDBRANCH  20  21
ENDBRANCH  17  20
ENDBRANCH  12  14
ENDBRANCH   7   8
ENDBRANCH   2   7
BRANCH   1  23
HETATM   23  C5  UNK     1      18.079   0.089  34.475  1.00  0.00     0.312 C 
BRANCH  23  24
HETATM   24  C7  UNK     1      18.581   0.071  33.073  1.00  0.00    -0.011 A 
HETATM   25  C10 UNK     1      19.018  -1.063  32.508  1.00  0.00     0.092 A 
HETATM   26  C16 UNK     1      19.523  -1.129  31.126  1.00  0.00     0.288 A 
HETATM   27  O2  UNK     1      19.531   0.056  30.409  1.00  0.00    -0.275 OA
HETATM   28  O3  UNK     1      19.913  -2.186  30.642  1.00  0.00    -0.260 OA
HETATM   29  C12 UNK     1      19.079   1.264  30.976  1.00  0.00     0.090 A 
HETATM   30  C9  UNK     1      18.603   1.312  32.286  1.00  0.00     0.007 A 
HETATM   31  C17 UNK     1      19.134   2.397  30.160  1.00  0.00     0.039 A 
HETATM   32  C13 UNK     1      18.172   2.552  32.777  1.00  0.00     0.022 A 
HETATM   33  C14 UNK     1      18.220   3.696  31.971  1.00  0.00    -0.058 A 
HETATM   34  C19 UNK     1      18.701   3.618  30.665  1.00  0.00     0.010 A 
BRANCH  33  35
HETATM   35  C20 UNK     1      17.756   5.006  32.514  1.00  0.00     0.034 C 
HETATM   36  C22 UNK     1      18.728   5.586  33.539  1.00  0.00     0.010 C 
ENDBRANCH  33  35
ENDBRANCH  23  24
ENDBRANCH   1  23
TORSDOF 8
ENDMDL
MODEL 2
REMARK VINA RESULT:     -10.4      6.846     10.585
REMARK  8 active torsions:
REMARK  status: ('A' for Active; 'I' for Inactive)
REMARK    1  A    between atoms: C27_34  and  O4_4 
REMARK    2  A    between atoms: C28_35  and  O4_4 
REMARK    3  A    between atoms: C5_12  and  N1_5 
REMARK    4  A    between atoms: C6_13  and  N2_6 
REMARK    5  A    between atoms: C5_12  and  C7_14 
REMARK    6  A    between atoms: C6_13  and  C8_15 
REMARK    7  A    between atoms: C14_21  and  C20_27 
REMARK    8  A    between atoms: C15_22  and  C21_28 
ROOT
HETATM    1  N1  UNK     1      25.174  -7.928  38.786  1.00  0.00     0.096 N 
HETATM    2  N2  UNK     1      28.033  -7.602  39.075  1.00  0.00     0.097 N 
HETATM    3  C1  UNK     1      26.004  -8.976  39.392  1.00  0.00     0.303 C 
HETATM    4  C2  UNK     1      25.772  -6.606  39.015  1.00  0.00     0.303 C 
HETATM    5  C3  UNK     1      27.435  -8.924  38.847  1.00  0.00     0.303 C 
HETATM    6  C4  UNK     1      27.204  -6.552  38.470  1.00  0.00     0.303 C 
ENDROOT
BRANCH   2   7
HETATM    7  C6  UNK     1      29.396  -7.553  38.552  1.00  0.00     0.334 C 
BRANCH   7   8
HETATM    8  C8  UNK     1      29.359  -7.122  37.121  1.00  0.00     0.095 A 
HETATM    9  C11 UNK     1      29.736  -5.923  36.569  1.00  0.00     0.078 A 
HETATM   10  O1  UNK     1      29.520  -5.994  35.226  1.00  0.00    -0.294 OA
HETATM   11  C18 UNK     1      30.285  -4.668  37.092  1.00  0.00     0.079 C 
HETATM   12  C15 UNK     1      29.021  -7.247  35.049  1.00  0.00     0.180 A 
HETATM   13  N3  UNK     1      28.902  -7.967  36.141  1.00  0.00    -0.224 NA
BRANCH  12  14
HETATM   14  C21 UNK     1      28.700  -7.591  33.691  1.00  0.00     0.017 A 
HETATM   15  C23 UNK     1      28.071  -6.660  32.865  1.00  0.00     0.018 A 
HETATM   16  C25 UNK     1      27.761  -6.994  31.547  1.00  0.00     0.038 A 
HETATM   17  C27 UNK     1      28.080  -8.259  31.055  1.00  0.00     0.068 A 
HETATM   18  C26 UNK     1      28.710  -9.191  31.880  1.00  0.00     0.038 A 
HETATM   19  C24 UNK     1      29.020  -8.857  33.198  1.00  0.00     0.018 A 
BRANCH  17  20
HETATM   20  O4  UNK     1      27.777  -8.585  29.769  1.00  0.00    -0.352 OA
BRANCH  20  21
HETATM   21  C28 UNK     1      28.855  -9.009  28.935  1.00  0.00     0.171 C 
HETATM   22  C29 UNK     1      28.465 -10.295  28.239  1.00  0.00     0.034 C 
ENDBRANCH  20  21
ENDBRANCH  17  20
ENDBRANCH  12  14
ENDBRANCH   7   8
ENDBRANCH   2   7
BRANCH   1  23
HETATM   23  C5  UNK     1      23.810  -7.978  39.306  1.00  0.00     0.312 C 
BRANCH  23  24
HETATM   24  C7  UNK     1      22.811  -7.496  38.313  1.00  0.00    -0.011 A 
HETATM   25  C10 UNK     1      22.230  -6.296  38.441  1.00  0.00     0.092 A 
HETATM   26  C16 UNK     1      21.237  -5.777  37.485  1.00  0.00     0.288 A 
HETATM   27  O2  UNK     1      20.916  -6.598  36.415  1.00  0.00    -0.275 OA
HETATM   28  O3  UNK     1      20.728  -4.673  37.633  1.00  0.00    -0.260 OA
HETATM   29  C12 UNK     1      21.510  -7.865  36.254  1.00  0.00     0.090 A 
HETATM   30  C9  UNK     1      22.449  -8.343  37.168  1.00  0.00     0.007 A 
HETATM   31  C17 UNK     1      21.110  -8.605  35.139  1.00  0.00     0.039 A 
HETATM   32  C13 UNK     1      22.993  -9.614  36.937  1.00  0.00     0.022 A 
HETATM   33  C14 UNK     1      22.602 -10.367  35.824  1.00  0.00    -0.058 A 
HETATM   34  C19 UNK     1      21.662  -9.865  34.927  1.00  0.00     0.010 A 
BRANCH  33  35
HETATM   35  C20 UNK     1      23.195 -11.719  35.598  1.00  0.00     0.034 C 
HETATM   36  C22 UNK     1      24.667 -11.781  35.998  1.00  0.00     0.010 C 
ENDBRANCH  33  35
ENDBRANCH  23  24
ENDBRANCH   1  23
TORSDOF 8
ENDMDL
MODEL 3
REMARK VINA RESULT:     -10.1     24.394     28.521
REMARK  8 active torsions:
REMARK  status: ('A' for Active; 'I' for Inactive)
REMARK    1  A    between atoms: C27_34  and  O4_4 
REMARK    2  A    between atoms: C28_35  and  O4_4 
REMARK    3  A    between atoms: C5_12  and  N1_5 
REMARK    4  A    between atoms: C6_13  and  N2_6 
REMARK    5  A    between atoms: C5_12  and  C7_14 
REMARK    6  A    between atoms: C6_13  and  C8_15 
REMARK    7  A    between atoms: C14_21  and  C20_27 
REMARK    8  A    between atoms: C15_22  and  C21_28 
ROOT
HETATM    1  N1  UNK     1      11.862   6.327   7.469  1.00  0.00     0.096 N 
HETATM    2  N2  UNK     1       9.063   6.094   8.154  1.00  0.00     0.097 N 
HETATM    3  C1  UNK     1      10.818   6.916   6.621  1.00  0.00     0.303 C 
HETATM    4  C2  UNK     1      11.421   6.284   8.869  1.00  0.00     0.303 C 
HETATM    5  C3  UNK     1       9.504   6.138   6.755  1.00  0.00     0.303 C 
HETATM    6  C4  UNK     1      10.107   5.507   9.004  1.00  0.00     0.303 C 
ENDROOT
BRANCH   2   7
HETATM    7  C6  UNK     1       7.812   5.350   8.281  1.00  0.00     0.334 C 
BRANCH   7   8
HETATM    8  C8  UNK     1       7.297   5.486   9.678  1.00  0.00     0.095 A 
HETATM    9  C11 UNK     1       7.183   6.614  10.450  1.00  0.00     0.078 A 
HETATM   10  O1  UNK     1       6.661   6.247  11.654  1.00  0.00    -0.294 OA
HETATM   11  C18 UNK     1       7.487   8.036  10.261  1.00  0.00     0.079 C 
HETATM   12  C15 UNK     1       6.490   4.903  11.530  1.00  0.00     0.180 A 
HETATM   13  N3  UNK     1       6.851   4.392  10.374  1.00  0.00    -0.224 NA
BRANCH  12  14
HETATM   14  C21 UNK     1       5.939   4.247  12.684  1.00  0.00     0.017 A 
HETATM   15  C23 UNK     1       5.331   2.999  12.554  1.00  0.00     0.018 A 
HETATM   16  C25 UNK     1       4.798   2.364  13.675  1.00  0.00     0.038 A 
HETATM   17  C27 UNK     1       4.873   2.976  14.926  1.00  0.00     0.068 A 
HETATM   18  C26 UNK     1       5.482   4.224  15.057  1.00  0.00     0.038 A 
HETATM   19  C24 UNK     1       6.015   4.860  13.936  1.00  0.00     0.018 A 
BRANCH  17  20
HETATM   20  O4  UNK     1       4.352   2.356  16.020  1.00  0.00    -0.352 OA
BRANCH  20  21
HETATM   21  C28 UNK     1       4.849   2.761  17.295  1.00  0.00     0.171 C 
HETATM   22  C29 UNK     1       5.517   1.578  17.963  1.00  0.00     0.034 C 
ENDBRANCH  20  21
ENDBRANCH  17  20
ENDBRANCH  12  14
ENDBRANCH   7   8
ENDBRANCH   2   7
BRANCH   1  23
HETATM   23  C5  UNK     1      13.114   7.069   7.342  1.00  0.00     0.312 C 
BRANCH  23  24
HETATM   24  C7  UNK     1      14.080   6.733   8.425  1.00  0.00    -0.011 A 
HETATM   25  C10 UNK     1      14.536   5.483   8.584  1.00  0.00     0.092 A 
HETATM   26  C16 UNK     1      15.490   5.104   9.639  1.00  0.00     0.288 A 
HETATM   27  O2  UNK     1      15.914   6.114  10.487  1.00  0.00    -0.275 OA
HETATM   28  O3  UNK     1      15.886   3.950   9.753  1.00  0.00    -0.260 OA
HETATM   29  C12 UNK     1      15.453   7.438  10.345  1.00  0.00     0.090 A 
HETATM   30  C9  UNK     1      14.549   7.783   9.340  1.00  0.00     0.007 A 
HETATM   31  C17 UNK     1      15.948   8.374  11.256  1.00  0.00     0.039 A 
HETATM   32  C13 UNK     1      14.138   9.121   9.266  1.00  0.00     0.022 A 
HETATM   33  C14 UNK     1      14.625  10.070  10.172  1.00  0.00    -0.058 A 
HETATM   34  C19 UNK     1      15.528   9.697  11.166  1.00  0.00     0.010 A 
BRANCH  33  35
HETATM   35  C20 UNK     1      14.174  11.489  10.074  1.00  0.00     0.034 C 
HETATM   36  C22 UNK     1      15.054  12.314   9.139  1.00  0.00     0.010 C 
ENDBRANCH  33  35
ENDBRANCH  23  24
ENDBRANCH   1  23
TORSDOF 8
ENDMDL
MODEL 4
REMARK VINA RESULT:     -10.0      6.551     14.690
REMARK  8 active torsions:
REMARK  status: ('A' for Active; 'I' for Inactive)
REMARK    1  A    between atoms: C27_34  and  O4_4 
REMARK    2  A    between atoms: C28_35  and  O4_4 
REMARK    3  A    between atoms: C5_12  and  N1_5 
REMARK    4  A    between atoms: C6_13  and  N2_6 
REMARK    5  A    between atoms: C5_12  and  C7_14 
REMARK    6  A    between atoms: C6_13  and  C8_15 
REMARK    7  A    between atoms: C14_21  and  C20_27 
REMARK    8  A    between atoms: C15_22  and  C21_28 
ROOT
HETATM    1  N1  UNK     1      18.875   3.660  31.416  1.00  0.00     0.096 N 
HETATM    2  N2  UNK     1      19.237   6.269  32.607  1.00  0.00     0.097 N 
HETATM    3  C1  UNK     1      18.106   4.073  32.596  1.00  0.00     0.303 C 
HETATM    4  C2  UNK     1      19.227   4.828  30.600  1.00  0.00     0.303 C 
HETATM    5  C3  UNK     1      18.886   5.101  33.424  1.00  0.00     0.303 C 
HETATM    6  C4  UNK     1      20.006   5.858  31.426  1.00  0.00     0.303 C 
ENDROOT
BRANCH   2   7
HETATM    7  C6  UNK     1      19.983   7.247  33.397  1.00  0.00     0.334 C 
BRANCH   7   8
HETATM    8  C8  UNK     1      19.098   8.413  33.700  1.00  0.00     0.095 A 
HETATM    9  C11 UNK     1      19.430   9.634  34.230  1.00  0.00     0.078 A 
HETATM   10  O1  UNK     1      18.289  10.374  34.324  1.00  0.00    -0.294 OA
HETATM   11  C18 UNK     1      20.673  10.264  34.687  1.00  0.00     0.079 C 
HETATM   12  C15 UNK     1      17.329   9.542  33.838  1.00  0.00     0.180 A 
HETATM   13  N3  UNK     1      17.751   8.360  33.449  1.00  0.00    -0.224 NA
BRANCH  12  14
HETATM   14  C21 UNK     1      15.999  10.086  33.823  1.00  0.00     0.017 A 
HETATM   15  C23 UNK     1      15.710  11.243  34.546  1.00  0.00     0.018 A 
HETATM   16  C25 UNK     1      14.420  11.771  34.530  1.00  0.00     0.038 A 
HETATM   17  C27 UNK     1      13.418  11.142  33.792  1.00  0.00     0.068 A 
HETATM   18  C26 UNK     1      13.706   9.985  33.067  1.00  0.00     0.038 A 
HETATM   19  C24 UNK     1      14.997   9.457  33.083  1.00  0.00     0.018 A 
BRANCH  17  20
HETATM   20  O4  UNK     1      12.158  11.657  33.777  1.00  0.00    -0.352 OA
BRANCH  20  21
HETATM   21  C28 UNK     1      11.960  12.867  33.045  1.00  0.00     0.171 C 
HETATM   22  C29 UNK     1      11.258  13.871  33.935  1.00  0.00     0.034 C 
ENDBRANCH  20  21
ENDBRANCH  17  20
ENDBRANCH  12  14
ENDBRANCH   7   8
ENDBRANCH   2   7
BRANCH   1  23
HETATM   23  C5  UNK     1      18.132   2.680  30.627  1.00  0.00     0.312 C 
BRANCH  23  24
HETATM   24  C7  UNK     1      18.837   1.370  30.548  1.00  0.00    -0.011 A 
HETATM   25  C10 UNK     1      19.460   0.986  29.427  1.00  0.00     0.092 A 
HETATM   26  C16 UNK     1      20.170  -0.299  29.301  1.00  0.00     0.288 A 
HETATM   27  O2  UNK     1      20.170  -1.121  30.416  1.00  0.00    -0.275 OA
HETATM   28  O3  UNK     1      20.731  -0.616  28.259  1.00  0.00    -0.260 OA
HETATM   29  C12 UNK     1      19.523  -0.744  31.610  1.00  0.00     0.090 A 
HETATM   30  C9  UNK     1      18.855   0.476  31.714  1.00  0.00     0.007 A 
HETATM   31  C17 UNK     1      19.589  -1.652  32.670  1.00  0.00     0.039 A 
HETATM   32  C13 UNK     1      18.236   0.777  32.935  1.00  0.00     0.022 A 
HETATM   33  C14 UNK     1      18.293  -0.123  34.006  1.00  0.00    -0.058 A 
HETATM   34  C19 UNK     1      18.968  -1.335  33.874  1.00  0.00     0.010 A 
BRANCH  33  35
HETATM   35  C20 UNK     1      17.626   0.218  35.297  1.00  0.00     0.034 C 
HETATM   36  C22 UNK     1      16.105   0.139  35.203  1.00  0.00     0.010 C 
ENDBRANCH  33  35
ENDBRANCH  23  24
ENDBRANCH   1  23
TORSDOF 8
ENDMDL
MODEL 5
REMARK VINA RESULT:      -9.9      8.187     11.415
REMARK  8 active torsions:
REMARK  status: ('A' for Active; 'I' for Inactive)
REMARK    1  A    between atoms: C27_34  and  O4_4 
REMARK    2  A    between atoms: C28_35  and  O4_4 
REMARK    3  A    between atoms: C5_12  and  N1_5 
REMARK    4  A    between atoms: C6_13  and  N2_6 
REMARK    5  A    between atoms: C5_12  and  C7_14 
REMARK    6  A    between atoms: C6_13  and  C8_15 
REMARK    7  A    between atoms: C14_21  and  C20_27 
REMARK    8  A    between atoms: C15_22  and  C21_28 
ROOT
HETATM    1  N1  UNK     1      30.691  -6.068  35.460  1.00  0.00     0.096 N 
HETATM    2  N2  UNK     1      29.025  -6.149  37.822  1.00  0.00     0.097 N 
HETATM    3  C1  UNK     1      29.370  -6.708  35.440  1.00  0.00     0.303 C 
HETATM    4  C2  UNK     1      30.719  -4.985  36.451  1.00  0.00     0.303 C 
HETATM    5  C3  UNK     1      28.996  -7.232  36.831  1.00  0.00     0.303 C 
HETATM    6  C4  UNK     1      30.345  -5.506  37.842  1.00  0.00     0.303 C 
ENDROOT
BRANCH   2   7
HETATM    7  C6  UNK     1      28.671  -6.650  39.148  1.00  0.00     0.334 C 
BRANCH   7   8
HETATM    8  C8  UNK     1      27.440  -7.492  39.044  1.00  0.00     0.095 A 
HETATM    9  C11 UNK     1      27.299  -8.844  39.233  1.00  0.00     0.078 A 
HETATM   10  O1  UNK     1      25.990  -9.161  39.030  1.00  0.00    -0.294 OA
HETATM   11  C18 UNK     1      28.206  -9.942  39.582  1.00  0.00     0.079 C 
HETATM   12  C15 UNK     1      25.416  -7.965  38.729  1.00  0.00     0.180 A 
HETATM   13  N3  UNK     1      26.229  -6.933  38.723  1.00  0.00    -0.224 NA
BRANCH  12  14
HETATM   14  C21 UNK     1      24.004  -8.014  38.465  1.00  0.00     0.017 A 
HETATM   15  C23 UNK     1      23.106  -7.423  39.354  1.00  0.00     0.018 A 
HETATM   16  C25 UNK     1      21.737  -7.471  39.096  1.00  0.00     0.038 A 
HETATM   17  C27 UNK     1      21.264  -8.109  37.949  1.00  0.00     0.068 A 
HETATM   18  C26 UNK     1      22.162  -8.699  37.059  1.00  0.00     0.038 A 
HETATM   19  C24 UNK     1      23.531  -8.652  37.317  1.00  0.00     0.018 A 
BRANCH  17  20
HETATM   20  O4  UNK     1      19.927  -8.156  37.698  1.00  0.00    -0.352 OA
BRANCH  20  21
HETATM   21  C28 UNK     1      19.378  -9.422  37.336  1.00  0.00     0.171 C 
HETATM   22  C29 UNK     1      19.336 -10.311  38.560  1.00  0.00     0.034 C 
ENDBRANCH  20  21
ENDBRANCH  17  20
ENDBRANCH  12  14
ENDBRANCH   7   8
ENDBRANCH   2   7
BRANCH   1  23
HETATM   23  C5  UNK     1      31.046  -5.568  34.134  1.00  0.00     0.312 C 
BRANCH  23  24
HETATM   24  C7  UNK     1      31.570  -6.646  33.249  1.00  0.00    -0.011 A 
HETATM   25  C10 UNK     1      32.707  -7.291  33.542  1.00  0.00     0.092 A 
HETATM   26  C16 UNK     1      33.264  -8.362  32.698  1.00  0.00     0.288 A 
HETATM   27  O2  UNK     1      32.549  -8.690  31.557  1.00  0.00    -0.275 OA
HETATM   28  O3  UNK     1      34.307  -8.932  32.999  1.00  0.00    -0.260 OA
HETATM   29  C12 UNK     1      31.350  -8.029  31.222  1.00  0.00     0.090 A 
HETATM   30  C9  UNK     1      30.835  -7.016  32.032  1.00  0.00     0.007 A 
HETATM   31  C17 UNK     1      30.715  -8.443  30.049  1.00  0.00     0.039 A 
HETATM   32  C13 UNK     1      29.638  -6.408  31.630  1.00  0.00     0.022 A 
HETATM   33  C14 UNK     1      28.990  -6.812  30.457  1.00  0.00    -0.058 A 
HETATM   34  C19 UNK     1      29.528  -7.827  29.668  1.00  0.00     0.010 A 
BRANCH  33  35
HETATM   35  C20 UNK     1      27.716  -6.150  30.048  1.00  0.00     0.034 C 
HETATM   36  C22 UNK     1      26.486  -6.943  30.480  1.00  0.00     0.010 C 
ENDBRANCH  33  35
ENDBRANCH  23  24
ENDBRANCH   1  23
TORSDOF 8
ENDMDL
MODEL 6
REMARK VINA RESULT:      -9.9      8.434     11.416
REMARK  8 active torsions:
REMARK  status: ('A' for Active; 'I' for Inactive)
REMARK    1  A    between atoms: C27_34  and  O4_4 
REMARK    2  A    between atoms: C28_35  and  O4_4 
REMARK    3  A    between atoms: C5_12  and  N1_5 
REMARK    4  A    between atoms: C6_13  and  N2_6 
REMARK    5  A    between atoms: C5_12  and  C7_14 
REMARK    6  A    between atoms: C6_13  and  C8_15 
REMARK    7  A    between atoms: C14_21  and  C20_27 
REMARK    8  A    between atoms: C15_22  and  C21_28 
ROOT
HETATM    1  N1  UNK     1      30.414  -6.489  35.225  1.00  0.00     0.096 N 
HETATM    2  N2  UNK     1      29.155  -6.953  37.786  1.00  0.00     0.097 N 
HETATM    3  C1  UNK     1      31.202  -6.552  36.462  1.00  0.00     0.303 C 
HETATM    4  C2  UNK     1      29.209  -7.320  35.343  1.00  0.00     0.303 C 
HETATM    5  C3  UNK     1      30.360  -6.122  37.668  1.00  0.00     0.303 C 
HETATM    6  C4  UNK     1      28.366  -6.892  36.549  1.00  0.00     0.303 C 
ENDROOT
BRANCH   2   7
HETATM    7  C6  UNK     1      28.351  -6.540  38.935  1.00  0.00     0.334 C 
BRANCH   7   8
HETATM    8  C8  UNK     1      27.132  -7.402  39.017  1.00  0.00     0.095 A 
HETATM    9  C11 UNK     1      27.025  -8.711  39.412  1.00  0.00     0.078 A 
HETATM   10  O1  UNK     1      25.714  -9.070  39.323  1.00  0.00    -0.294 OA
HETATM   11  C18 UNK     1      27.967  -9.734  39.878  1.00  0.00     0.079 C 
HETATM   12  C15 UNK     1      25.104  -7.940  38.874  1.00  0.00     0.180 A 
HETATM   13  N3  UNK     1      25.898  -6.912  38.674  1.00  0.00    -0.224 NA
BRANCH  12  14
HETATM   14  C21 UNK     1      23.683  -8.044  38.688  1.00  0.00     0.017 A 
HETATM   15  C23 UNK     1      23.168  -8.448  37.457  1.00  0.00     0.018 A 
HETATM   16  C25 UNK     1      21.789  -8.550  37.277  1.00  0.00     0.038 A 
HETATM   17  C27 UNK     1      20.924  -8.248  38.330  1.00  0.00     0.068 A 
HETATM   18  C26 UNK     1      21.439  -7.845  39.562  1.00  0.00     0.038 A 
HETATM   19  C24 UNK     1      22.818  -7.743  39.741  1.00  0.00     0.018 A 
BRANCH  17  20
HETATM   20  O4  UNK     1      19.578  -8.347  38.154  1.00  0.00    -0.352 OA
BRANCH  20  21
HETATM   21  C28 UNK     1      19.083  -9.571  37.611  1.00  0.00     0.171 C 
HETATM   22  C29 UNK     1      19.336 -10.688  38.601  1.00  0.00     0.034 C 
ENDBRANCH  20  21
ENDBRANCH  17  20
ENDBRANCH  12  14
ENDBRANCH   7   8
ENDBRANCH   2   7
BRANCH   1  23
HETATM   23  C5  UNK     1      31.218  -6.899  34.076  1.00  0.00     0.312 C 
BRANCH  23  24
HETATM   24  C7  UNK     1      30.706  -6.327  32.799  1.00  0.00    -0.011 A 
HETATM   25  C10 UNK     1      30.559  -5.005  32.641  1.00  0.00     0.092 A 
HETATM   26  C16 UNK     1      30.057  -4.394  31.399  1.00  0.00     0.288 A 
HETATM   27  O2  UNK     1      29.733  -5.260  30.367  1.00  0.00    -0.275 OA
HETATM   28  O3  UNK     1      29.938  -3.179  31.290  1.00  0.00    -0.260 OA
HETATM   29  C12 UNK     1      29.876  -6.656  30.503  1.00  0.00     0.090 A 
HETATM   30  C9  UNK     1      30.353  -7.220  31.686  1.00  0.00     0.007 A 
HETATM   31  C17 UNK     1      29.518  -7.431  29.397  1.00  0.00     0.039 A 
HETATM   32  C13 UNK     1      30.466  -8.616  31.742  1.00  0.00     0.022 A 
HETATM   33  C14 UNK     1      30.111  -9.406  30.643  1.00  0.00    -0.058 A 
HETATM   34  C19 UNK     1      29.638  -8.815  29.473  1.00  0.00     0.010 A 
BRANCH  33  35
HETATM   35  C20 UNK     1      30.239 -10.891  30.724  1.00  0.00     0.034 C 
HETATM   36  C22 UNK     1      29.850 -11.579  29.419  1.00  0.00     0.010 C 
ENDBRANCH  33  35
ENDBRANCH  23  24
ENDBRANCH   1  23
TORSDOF 8
ENDMDL
MODEL 7
REMARK VINA RESULT:      -9.9      2.937     11.566
REMARK  8 active torsions:
REMARK  status: ('A' for Active; 'I' for Inactive)
REMARK    1  A    between atoms: C27_34  and  O4_4 
REMARK    2  A    between atoms: C28_35  and  O4_4 
REMARK    3  A    between atoms: C5_12  and  N1_5 
REMARK    4  A    between atoms: C6_13  and  N2_6 
REMARK    5  A    between atoms: C5_12  and  C7_14 
REMARK    6  A    between atoms: C6_13  and  C8_15 
REMARK    7  A    between atoms: C14_21  and  C20_27 
REMARK    8  A    between atoms: C15_22  and  C21_28 
ROOT
HETATM    1  N1  UNK     1      19.562  -3.704  36.093  1.00  0.00     0.096 N 
HETATM    2  N2  UNK     1      18.959  -1.059  37.094  1.00  0.00     0.097 N 
HETATM    3  C1  UNK     1      20.208  -2.511  35.533  1.00  0.00     0.303 C 
HETATM    4  C2  UNK     1      19.213  -3.483  37.502  1.00  0.00     0.303 C 
HETATM    5  C3  UNK     1      19.308  -1.280  35.685  1.00  0.00     0.303 C 
HETATM    6  C4  UNK     1      18.314  -2.252  37.656  1.00  0.00     0.303 C 
ENDROOT
BRANCH   2   7
HETATM    7  C6  UNK     1      18.098   0.113  37.236  1.00  0.00     0.334 C 
BRANCH   7   8
HETATM    8  C8  UNK     1      17.789   0.664  35.882  1.00  0.00     0.095 A 
HETATM    9  C11 UNK     1      16.924   0.185  34.931  1.00  0.00     0.078 A 
HETATM   10  O1  UNK     1      16.976   1.021  33.856  1.00  0.00    -0.294 OA
HETATM   11  C18 UNK     1      16.018  -0.965  34.838  1.00  0.00     0.079 C 
HETATM   12  C15 UNK     1      17.881   1.965  34.232  1.00  0.00     0.180 A 
HETATM   13  N3  UNK     1      18.399   1.806  35.429  1.00  0.00    -0.224 NA
BRANCH  12  14
HETATM   14  C21 UNK     1      18.130   2.993  33.260  1.00  0.00     0.017 A 
HETATM   15  C23 UNK     1      18.296   2.658  31.916  1.00  0.00     0.018 A 
HETATM   16  C25 UNK     1      18.538   3.657  30.973  1.00  0.00     0.038 A 
HETATM   17  C27 UNK     1      18.612   4.991  31.374  1.00  0.00     0.068 A 
HETATM   18  C26 UNK     1      18.445   5.327  32.717  1.00  0.00     0.038 A 
HETATM   19  C24 UNK     1      18.204   4.328  33.660  1.00  0.00     0.018 A 
BRANCH  17  20
HETATM   20  O4  UNK     1      18.848   5.965  30.453  1.00  0.00    -0.352 OA
BRANCH  20  21
HETATM   21  C28 UNK     1      20.115   5.946  29.797  1.00  0.00     0.171 C 
HETATM   22  C29 UNK     1      21.211   5.939  30.841  1.00  0.00     0.034 C 
ENDBRANCH  20  21
ENDBRANCH  17  20
ENDBRANCH  12  14
ENDBRANCH   7   8
ENDBRANCH   2   7
BRANCH   1  23
HETATM   23  C5  UNK     1      20.421  -4.877  35.948  1.00  0.00     0.312 C 
BRANCH  23  24
HETATM   24  C7  UNK     1      19.670  -6.150  36.134  1.00  0.00    -0.011 A 
HETATM   25  C10 UNK     1      18.594  -6.435  35.389  1.00  0.00     0.092 A 
HETATM   26  C16 UNK     1      17.821  -7.680  35.536  1.00  0.00     0.288 A 
HETATM   27  O2  UNK     1      18.259  -8.574  36.501  1.00  0.00    -0.275 OA
HETATM   28  O3  UNK     1      16.842  -7.908  34.834  1.00  0.00    -0.260 OA
HETATM   29  C12 UNK     1      19.387  -8.302  37.300  1.00  0.00     0.090 A 
HETATM   30  C9  UNK     1      20.109  -7.118  37.149  1.00  0.00     0.007 A 
HETATM   31  C17 UNK     1      19.735  -9.274  38.240  1.00  0.00     0.039 A 
HETATM   32  C13 UNK     1      21.219  -6.922  37.983  1.00  0.00     0.022 A 
HETATM   33  C14 UNK     1      21.581  -7.888  38.929  1.00  0.00    -0.058 A 
HETATM   34  C19 UNK     1      20.840  -9.061  39.058  1.00  0.00     0.010 A 
BRANCH  33  35
HETATM   35  C20 UNK     1      22.766  -7.658  39.807  1.00  0.00     0.034 C 
HETATM   36  C22 UNK     1      24.080  -7.710  39.032  1.00  0.00     0.010 C 
ENDBRANCH  33  35
ENDBRANCH  23  24
ENDBRANCH   1  23
TORSDOF 8
ENDMDL
MODEL 8
REMARK VINA RESULT:      -9.8      6.423     11.580
REMARK  8 active torsions:
REMARK  status: ('A' for Active; 'I' for Inactive)
REMARK    1  A    between atoms: C27_34  and  O4_4 
REMARK    2  A    between atoms: C28_35  and  O4_4 
REMARK    3  A    between atoms: C5_12  and  N1_5 
REMARK    4  A    between atoms: C6_13  and  N2_6 
REMARK    5  A    between atoms: C5_12  and  C7_14 
REMARK    6  A    between atoms: C6_13  and  C8_15 
REMARK    7  A    between atoms: C14_21  and  C20_27 
REMARK    8  A    between atoms: C15_22  and  C21_28 
ROOT
HETATM    1  N1  UNK     1      16.286   8.882  33.612  1.00  0.00     0.096 N 
HETATM    2  N2  UNK     1      17.509   6.482  32.562  1.00  0.00     0.097 N 
HETATM    3  C1  UNK     1      15.472   7.779  33.085  1.00  0.00     0.303 C 
HETATM    4  C2  UNK     1      17.551   8.371  34.154  1.00  0.00     0.303 C 
HETATM    5  C3  UNK     1      16.243   6.993  32.020  1.00  0.00     0.303 C 
HETATM    6  C4  UNK     1      18.323   7.584  33.090  1.00  0.00     0.303 C 
ENDROOT
BRANCH   2   7
HETATM    7  C6  UNK     1      18.244   5.735  31.544  1.00  0.00     0.334 C 
BRANCH   7   8
HETATM    8  C8  UNK     1      18.247   4.284  31.904  1.00  0.00     0.095 A 
HETATM    9  C11 UNK     1      18.300   3.189  31.079  1.00  0.00     0.078 A 
HETATM   10  O1  UNK     1      18.280   2.073  31.861  1.00  0.00    -0.294 OA
HETATM   11  C18 UNK     1      18.368   2.986  29.628  1.00  0.00     0.079 C 
HETATM   12  C15 UNK     1      18.216   2.572  33.125  1.00  0.00     0.180 A 
HETATM   13  N3  UNK     1      18.194   3.883  33.215  1.00  0.00    -0.224 NA
BRANCH  12  14
HETATM   14  C21 UNK     1      18.182   1.586  34.170  1.00  0.00     0.017 A 
HETATM   15  C23 UNK     1      18.128   0.230  33.849  1.00  0.00     0.018 A 
HETATM   16  C25 UNK     1      18.096  -0.726  34.863  1.00  0.00     0.038 A 
HETATM   17  C27 UNK     1      18.118  -0.327  36.199  1.00  0.00     0.068 A 
HETATM   18  C26 UNK     1      18.174   1.030  36.522  1.00  0.00     0.038 A 
HETATM   19  C24 UNK     1      18.206   1.986  35.507  1.00  0.00     0.018 A 
BRANCH  17  20
HETATM   20  O4  UNK     1      18.087  -1.260  37.189  1.00  0.00    -0.352 OA
BRANCH  20  21
HETATM   21  C28 UNK     1      18.475  -2.589  36.841  1.00  0.00     0.171 C 
HETATM   22  C29 UNK     1      19.838  -2.876  37.435  1.00  0.00     0.034 C 
ENDBRANCH  20  21
ENDBRANCH  17  20
ENDBRANCH  12  14
ENDBRANCH   7   8
ENDBRANCH   2   7
BRANCH   1  23
HETATM   23  C5  UNK     1      15.550   9.632  34.628  1.00  0.00     0.312 C 
BRANCH  23  24
HETATM   24  C7  UNK     1      14.745  10.737  34.039  1.00  0.00    -0.011 A 
HETATM   25  C10 UNK     1      13.484  10.536  33.634  1.00  0.00     0.092 A 
HETATM   26  C16 UNK     1      12.649  11.597  33.045  1.00  0.00     0.288 A 
HETATM   27  O2  UNK     1      13.230  12.849  32.922  1.00  0.00    -0.275 OA
HETATM   28  O3  UNK     1      11.498  11.376  32.688  1.00  0.00    -0.260 OA
HETATM   29  C12 UNK     1      14.555  13.092  33.339  1.00  0.00     0.090 A 
HETATM   30  C9  UNK     1      15.333  12.076  33.894  1.00  0.00     0.007 A 
HETATM   31  C17 UNK     1      15.036  14.391  33.166  1.00  0.00     0.039 A 
HETATM   32  C13 UNK     1      16.641  12.398  34.283  1.00  0.00     0.022 A 
HETATM   33  C14 UNK     1      17.137  13.696  34.117  1.00  0.00    -0.058 A 
HETATM   34  C19 UNK     1      16.336  14.691  33.559  1.00  0.00     0.010 A 
BRANCH  33  35
HETATM   35  C20 UNK     1      18.533  14.016  34.538  1.00  0.00     0.034 C 
HETATM   36  C22 UNK     1      19.082  15.253  33.832  1.00  0.00     0.010 C 
ENDBRANCH  33  35
ENDBRANCH  23  24
ENDBRANCH   1  23
TORSDOF 8
ENDMDL
MODEL 9
REMARK VINA RESULT:      -9.8      8.338     12.836
REMARK  8 active torsions:
REMARK  status: ('A' for Active; 'I' for Inactive)
REMARK    1  A    between atoms: C27_34  and  O4_4 
REMARK    2  A    between atoms: C28_35  and  O4_4 
REMARK    3  A    between atoms: C5_12  and  N1_5 
REMARK    4  A    between atoms: C6_13  and  N2_6 
REMARK    5  A    between atoms: C5_12  and  C7_14 
REMARK    6  A    between atoms: C6_13  and  C8_15 
REMARK    7  A    between atoms: C14_21  and  C20_27 
REMARK    8  A    between atoms: C15_22  and  C21_28 
ROOT
HETATM    1  N1  UNK     1      30.998  -6.621  35.611  1.00  0.00     0.096 N 
HETATM    2  N2  UNK     1      28.988  -6.698  37.689  1.00  0.00     0.097 N 
HETATM    3  C1  UNK     1      30.092  -7.767  35.754  1.00  0.00     0.303 C 
HETATM    4  C2  UNK     1      30.350  -5.394  36.091  1.00  0.00     0.303 C 
HETATM    5  C3  UNK     1      29.636  -7.925  37.209  1.00  0.00     0.303 C 
HETATM    6  C4  UNK     1      29.892  -5.550  37.546  1.00  0.00     0.303 C 
ENDROOT
BRANCH   2   7
HETATM    7  C6  UNK     1      28.556  -6.849  39.077  1.00  0.00     0.334 C 
BRANCH   7   8
HETATM    8  C8  UNK     1      27.277  -7.622  39.113  1.00  0.00     0.095 A 
HETATM    9  C11 UNK     1      27.049  -8.895  39.571  1.00  0.00     0.078 A 
HETATM   10  O1  UNK     1      25.726  -9.171  39.401  1.00  0.00    -0.294 OA
HETATM   11  C18 UNK     1      27.880  -9.948  40.163  1.00  0.00     0.079 C 
HETATM   12  C15 UNK     1      25.232  -8.032  38.845  1.00  0.00     0.180 A 
HETATM   13  N3  UNK     1      26.108  -7.073  38.650  1.00  0.00    -0.224 NA
BRANCH  12  14
HETATM   14  C21 UNK     1      23.824  -8.053  38.557  1.00  0.00     0.017 A 
HETATM   15  C23 UNK     1      23.366  -8.584  37.352  1.00  0.00     0.018 A 
HETATM   16  C25 UNK     1      22.000  -8.605  37.073  1.00  0.00     0.038 A 
HETATM   17  C27 UNK     1      21.091  -8.095  38.001  1.00  0.00     0.068 A 
HETATM   18  C26 UNK     1      21.548  -7.565  39.207  1.00  0.00     0.038 A 
HETATM   19  C24 UNK     1      22.915  -7.544  39.486  1.00  0.00     0.018 A 
BRANCH  17  20
HETATM   20  O4  UNK     1      19.758  -8.116  37.729  1.00  0.00    -0.352 OA
BRANCH  20  21
HETATM   21  C28 UNK     1      19.197  -9.364  37.323  1.00  0.00     0.171 C 
HETATM   22  C29 UNK     1      19.232 -10.324  38.493  1.00  0.00     0.034 C 
ENDBRANCH  20  21
ENDBRANCH  17  20
ENDBRANCH  12  14
ENDBRANCH   7   8
ENDBRANCH   2   7
BRANCH   1  23
HETATM   23  C5  UNK     1      31.432  -6.471  34.225  1.00  0.00     0.312 C 
BRANCH  23  24
HETATM   24  C7  UNK     1      32.911  -6.575  34.084  1.00  0.00    -0.011 A 
HETATM   25  C10 UNK     1      33.728  -6.251  35.095  1.00  0.00     0.092 A 
HETATM   26  C16 UNK     1      35.195  -6.337  35.002  1.00  0.00     0.288 A 
HETATM   27  O2  UNK     1      35.717  -6.780  33.798  1.00  0.00    -0.275 OA
HETATM   28  O3  UNK     1      35.911  -6.034  35.950  1.00  0.00    -0.260 OA
HETATM   29  C12 UNK     1      34.884  -7.129  32.716  1.00  0.00     0.090 A 
HETATM   30  C9  UNK     1      33.496  -7.041  32.818  1.00  0.00     0.007 A 
HETATM   31  C17 UNK     1      35.521  -7.562  31.551  1.00  0.00     0.039 A 
HETATM   32  C13 UNK     1      32.737  -7.406  31.698  1.00  0.00     0.022 A 
HETATM   33  C14 UNK     1      33.360  -7.841  30.523  1.00  0.00    -0.058 A 
HETATM   34  C19 UNK     1      34.750  -7.919  30.450  1.00  0.00     0.010 A 
BRANCH  33  35
HETATM   35  C20 UNK     1      32.532  -8.224  29.342  1.00  0.00     0.034 C 
HETATM   36  C22 UNK     1      31.533  -7.136  28.957  1.00  0.00     0.010 C 
ENDBRANCH  33  35
ENDBRANCH  23  24
ENDBRANCH   1  23
TORSDOF 8
ENDMDL
MODEL 10
REMARK VINA RESULT:      -9.7      7.317     11.833
REMARK  8 active torsions:
REMARK  status: ('A' for Active; 'I' for Inactive)
REMARK    1  A    between atoms: C27_34  and  O4_4 
REMARK    2  A    between atoms: C28_35  and  O4_4 
REMARK    3  A    between atoms: C5_12  and  N1_5 
REMARK    4  A    between atoms: C6_13  and  N2_6 
REMARK    5  A    between atoms: C5_12  and  C7_14 
REMARK    6  A    between atoms: C6_13  and  C8_15 
REMARK    7  A    between atoms: C14_21  and  C20_27 
REMARK    8  A    between atoms: C15_22  and  C21_28 
ROOT
HETATM    1  N1  UNK     1      30.395  -8.574  34.885  1.00  0.00     0.096 N 
HETATM    2  N2  UNK     1      29.145  -8.046  37.439  1.00  0.00     0.097 N 
HETATM    3  C1  UNK     1      31.193  -8.416  36.107  1.00  0.00     0.303 C 
HETATM    4  C2  UNK     1      29.065  -9.107  35.208  1.00  0.00     0.303 C 
HETATM    5  C3  UNK     1      30.475  -7.513  37.116  1.00  0.00     0.303 C 
HETATM    6  C4  UNK     1      28.346  -8.206  36.218  1.00  0.00     0.303 C 
ENDROOT
BRANCH   2   7
HETATM    7  C6  UNK     1      28.460  -7.183  38.398  1.00  0.00     0.334 C 
BRANCH   7   8
HETATM    8  C8  UNK     1      27.127  -7.774  38.727  1.00  0.00     0.095 A 
HETATM    9  C11 UNK     1      26.837  -8.891  39.468  1.00  0.00     0.078 A 
HETATM   10  O1  UNK     1      25.482  -9.037  39.495  1.00  0.00    -0.294 OA
HETATM   11  C18 UNK     1      27.629  -9.894  40.187  1.00  0.00     0.079 C 
HETATM   12  C15 UNK     1      25.035  -7.983  38.759  1.00  0.00     0.180 A 
HETATM   13  N3  UNK     1      25.968  -7.195  38.276  1.00  0.00    -0.224 NA
BRANCH  12  14
HETATM   14  C21 UNK     1      23.607  -7.894  38.625  1.00  0.00     0.017 A 
HETATM   15  C23 UNK     1      22.847  -7.298  39.630  1.00  0.00     0.018 A 
HETATM   16  C25 UNK     1      21.461  -7.211  39.499  1.00  0.00     0.038 A 
HETATM   17  C27 UNK     1      20.836  -7.721  38.361  1.00  0.00     0.068 A 
HETATM   18  C26 UNK     1      21.596  -8.317  37.354  1.00  0.00     0.038 A 
HETATM   19  C24 UNK     1      22.981  -8.403  37.486  1.00  0.00     0.018 A 
BRANCH  17  20
HETATM   20  O4  UNK     1      19.483  -7.637  38.233  1.00  0.00    -0.352 OA
BRANCH  20  21
HETATM   21  C28 UNK     1      18.980  -6.762  37.223  1.00  0.00     0.171 C 
HETATM   22  C29 UNK     1      18.239  -7.579  36.187  1.00  0.00     0.034 C 
ENDBRANCH  20  21
ENDBRANCH  17  20
ENDBRANCH  12  14
ENDBRANCH   7   8
ENDBRANCH   2   7
BRANCH   1  23
HETATM   23  C5  UNK     1      31.080  -9.435  33.924  1.00  0.00     0.312 C 
BRANCH  23  24
HETATM   24  C7  UNK     1      31.702  -8.657  32.816  1.00  0.00    -0.011 A 
HETATM   25  C10 UNK     1      33.011  -8.371  32.822  1.00  0.00     0.092 A 
HETATM   26  C16 UNK     1      33.671  -7.605  31.750  1.00  0.00     0.288 A 
HETATM   27  O2  UNK     1      32.868  -7.180  30.704  1.00  0.00    -0.275 OA
HETATM   28  O3  UNK     1      34.872  -7.364  31.788  1.00  0.00    -0.260 OA
HETATM   29  C12 UNK     1      31.488  -7.466  30.671  1.00  0.00     0.090 A 
HETATM   30  C9  UNK     1      30.877  -8.191  31.693  1.00  0.00     0.007 A 
HETATM   31  C17 UNK     1      30.777  -6.986  29.568  1.00  0.00     0.039 A 
HETATM   32  C13 UNK     1      29.500  -8.434  31.586  1.00  0.00     0.022 A 
HETATM   33  C14 UNK     1      28.775  -7.960  30.487  1.00  0.00    -0.058 A 
HETATM   34  C19 UNK     1      29.412  -7.237  29.480  1.00  0.00     0.010 A 
BRANCH  33  35
HETATM   35  C20 UNK     1      27.310  -8.229  30.394  1.00  0.00     0.034 C 
HETATM   36  C22 UNK     1      26.480  -6.949  30.445  1.00  0.00     0.010 C 
ENDBRANCH  33  35
ENDBRANCH  23  24
ENDBRANCH   1  23
TORSDOF 8
ENDMDL
