MODEL 1
REMARK VINA RESULT:      -9.9      0.000      0.000
REMARK  3 active torsions:
REMARK  status: ('A' for Active; 'I' for Inactive)
REMARK    1  A    between atoms: C10_15  and  O2_2 
REMARK    2  A    between atoms: C2_7  and  N1_5 
REMARK       I    between atoms: C8_13  and  N1_5 
REMARK    3  A    between atoms: C7_12  and  C8_13 
ROOT
HETATM    1  O3  UNK     1      17.486   1.984  29.608  1.00  0.00    -0.267 OA
HETATM    2  N1  UNK     1      19.200   2.895  30.933  1.00  0.00    -0.323 N 
HETATM    3  C8  UNK     1      18.558   1.892  30.196  1.00  0.00     0.259 C 
HETATM    4  H4  UNK     1      20.066   2.661  31.411  1.00  0.00     0.169 HD
ENDROOT
BRANCH   2   5
HETATM    5  C2  UNK     1      18.771   4.203  31.160  1.00  0.00     0.035 A 
HETATM    6  C4  UNK     1      18.164   4.536  32.374  1.00  0.00     0.043 A 
HETATM    7  C1  UNK     1      17.733   5.844  32.604  1.00  0.00     0.000 A 
HETATM    8  C3  UNK     1      17.920   6.799  31.608  1.00  0.00     0.089 A 
HETATM    9  C9  UNK     1      17.097   6.245  33.847  1.00  0.00     0.020 A 
HETATM   10  O1  UNK     1      17.499   8.130  31.802  1.00  0.00    -0.275 OA
HETATM   11  C6  UNK     1      18.523   6.482  30.393  1.00  0.00     0.040 A 
HETATM   12  C14 UNK     1      16.887   8.536  32.984  1.00  0.00     0.288 A 
HETATM   13  C12 UNK     1      16.701   7.507  34.023  1.00  0.00     0.083 A 
HETATM   14  O4  UNK     1      16.518   9.692  33.160  1.00  0.00    -0.260 OA
HETATM   15  C5  UNK     1      18.951   5.175  30.172  1.00  0.00     0.032 A 
ENDBRANCH   2   5
BRANCH   3  16
HETATM   16  C7  UNK     1      19.257   0.581  30.159  1.00  0.00     0.065 A 
HETATM   17  C10 UNK     1      19.368  -0.171  31.310  1.00  0.00     0.084 A 
HETATM   18  C13 UNK     1      20.029  -1.398  31.253  1.00  0.00     0.038 A 
HETATM   19  C16 UNK     1      20.566  -1.846  30.048  1.00  0.00     0.003 A 
HETATM   20  C15 UNK     1      20.442  -1.067  28.897  1.00  0.00     0.001 A 
HETATM   21  C11 UNK     1      19.781   0.160  28.952  1.00  0.00     0.020 A 
BRANCH  17  22
HETATM   22  O2  UNK     1      18.851   0.250  32.499  1.00  0.00    -0.355 OA
HETATM   23  C17 UNK     1      18.528  -0.756  33.457  1.00  0.00     0.210 C 
ENDBRANCH  17  22
ENDBRANCH   3  16
TORSDOF 3
ENDMDL
MODEL 2
REMARK VINA RESULT:      -8.7      1.030      1.105
REMARK  3 active torsions:
REMARK  status: ('A' for Active; 'I' for Inactive)
REMARK    1  A    between atoms: C10_15  and  O2_2 
REMARK    2  A    between atoms: C2_7  and  N1_5 
REMARK       I    between atoms: C8_13  and  N1_5 
REMARK    3  A    between atoms: C7_12  and  C8_13 
ROOT
HETATM    1  O3  UNK     1      17.191   2.512  30.476  1.00  0.00    -0.267 OA
HETATM    2  N1  UNK     1      19.210   3.413  31.274  1.00  0.00    -0.323 N 
HETATM    3  C8  UNK     1      18.389   2.423  30.717  1.00  0.00     0.259 C 
HETATM    4  H4  UNK     1      20.181   3.182  31.465  1.00  0.00     0.169 HD
ENDROOT
BRANCH   2   5
HETATM    5  C2  UNK     1      18.851   4.701  31.673  1.00  0.00     0.035 A 
HETATM    6  C4  UNK     1      17.502   5.038  31.810  1.00  0.00     0.043 A 
HETATM    7  C1  UNK     1      17.140   6.326  32.210  1.00  0.00     0.000 A 
HETATM    8  C3  UNK     1      18.143   7.257  32.466  1.00  0.00     0.089 A 
HETATM    9  C9  UNK     1      15.753   6.729  32.367  1.00  0.00     0.020 A 
HETATM   10  O1  UNK     1      17.818   8.567  32.871  1.00  0.00    -0.275 OA
HETATM   11  C6  UNK     1      19.492   6.936  32.334  1.00  0.00     0.040 A 
HETATM   12  C14 UNK     1      16.498   8.976  33.029  1.00  0.00     0.288 A 
HETATM   13  C12 UNK     1      15.454   7.971  32.752  1.00  0.00     0.083 A 
HETATM   14  O4  UNK     1      16.207  10.114  33.380  1.00  0.00    -0.260 OA
HETATM   15  C5  UNK     1      19.844   5.649  31.935  1.00  0.00     0.032 A 
ENDBRANCH   2   5
BRANCH   3  16
HETATM   16  C7  UNK     1      19.062   1.131  30.419  1.00  0.00     0.065 A 
HETATM   17  C10 UNK     1      19.292   0.228  31.435  1.00  0.00     0.084 A 
HETATM   18  C13 UNK     1      19.926  -0.979  31.134  1.00  0.00     0.038 A 
HETATM   19  C16 UNK     1      20.315  -1.254  29.824  1.00  0.00     0.003 A 
HETATM   20  C15 UNK     1      20.072  -0.323  28.814  1.00  0.00     0.001 A 
HETATM   21  C11 UNK     1      19.439   0.883  29.114  1.00  0.00     0.020 A 
BRANCH  17  22
HETATM   22  O2  UNK     1      18.920   0.478  32.722  1.00  0.00    -0.355 OA
HETATM   23  C17 UNK     1      18.440  -0.628  33.485  1.00  0.00     0.210 C 
ENDBRANCH  17  22
ENDBRANCH   3  16
TORSDOF 3
ENDMDL
MODEL 3
REMARK VINA RESULT:      -8.3     14.263     18.115
REMARK  3 active torsions:
REMARK  status: ('A' for Active; 'I' for Inactive)
REMARK    1  A    between atoms: C10_15  and  O2_2 
REMARK    2  A    between atoms: C2_7  and  N1_5 
REMARK       I    between atoms: C8_13  and  N1_5 
REMARK    3  A    between atoms: C7_12  and  C8_13 
ROOT
HETATM    1  O3  UNK     1      20.558  -1.755  17.736  1.00  0.00    -0.267 OA
HETATM    2  N1  UNK     1      18.712  -1.023  16.478  1.00  0.00    -0.323 N 
HETATM    3  C8  UNK     1      19.606  -1.004  17.557  1.00  0.00     0.259 C 
HETATM    4  H4  UNK     1      17.936  -0.368  16.485  1.00  0.00     0.169 HD
ENDROOT
BRANCH   2   5
HETATM    5  C2  UNK     1      18.705  -1.889  15.384  1.00  0.00     0.035 A 
HETATM    6  C4  UNK     1      19.113  -1.428  14.128  1.00  0.00     0.043 A 
HETATM    7  C1  UNK     1      19.107  -2.291  13.031  1.00  0.00     0.000 A 
HETATM    8  C3  UNK     1      18.691  -3.607  13.214  1.00  0.00     0.089 A 
HETATM    9  C9  UNK     1      19.520  -1.865  11.706  1.00  0.00     0.020 A 
HETATM   10  O1  UNK     1      18.671  -4.510  12.131  1.00  0.00    -0.275 OA
HETATM   11  C6  UNK     1      18.282  -4.081  14.459  1.00  0.00     0.040 A 
HETATM   12  C14 UNK     1      19.062  -4.124  10.853  1.00  0.00     0.288 A 
HETATM   13  C12 UNK     1      19.498  -2.725  10.685  1.00  0.00     0.083 A 
HETATM   14  O4  UNK     1      19.047  -4.903   9.906  1.00  0.00    -0.260 OA
HETATM   15  C5  UNK     1      18.291  -3.213  15.548  1.00  0.00     0.032 A 
ENDBRANCH   2   5
BRANCH   3  16
HETATM   16  C7  UNK     1      19.336   0.029  18.590  1.00  0.00     0.065 A 
HETATM   17  C10 UNK     1      18.940   1.294  18.208  1.00  0.00     0.084 A 
HETATM   18  C13 UNK     1      18.692   2.250  19.194  1.00  0.00     0.038 A 
HETATM   19  C16 UNK     1      18.846   1.920  20.540  1.00  0.00     0.003 A 
HETATM   20  C15 UNK     1      19.247   0.634  20.901  1.00  0.00     0.001 A 
HETATM   21  C11 UNK     1      19.495  -0.322  19.916  1.00  0.00     0.020 A 
BRANCH  17  22
HETATM   22  O2  UNK     1      18.786   1.637  16.898  1.00  0.00    -0.355 OA
HETATM   23  C17 UNK     1      19.533   2.757  16.429  1.00  0.00     0.210 C 
ENDBRANCH  17  22
ENDBRANCH   3  16
TORSDOF 3
ENDMDL
MODEL 4
REMARK VINA RESULT:      -8.3      6.403      9.363
REMARK  3 active torsions:
REMARK  status: ('A' for Active; 'I' for Inactive)
REMARK    1  A    between atoms: C10_15  and  O2_2 
REMARK    2  A    between atoms: C2_7  and  N1_5 
REMARK       I    between atoms: C8_13  and  N1_5 
REMARK    3  A    between atoms: C7_12  and  C8_13 
ROOT
HETATM    1  O3  UNK     1      21.456  -4.924  37.301  1.00  0.00    -0.267 OA
HETATM    2  N1  UNK     1      19.159  -4.474  37.088  1.00  0.00    -0.323 N 
HETATM    3  C8  UNK     1      20.279  -5.251  37.410  1.00  0.00     0.259 C 
HETATM    4  H4  UNK     1      18.238  -4.894  37.184  1.00  0.00     0.169 HD
ENDROOT
BRANCH   2   5
HETATM    5  C2  UNK     1      19.132  -3.176  36.577  1.00  0.00     0.035 A 
HETATM    6  C4  UNK     1      18.420  -2.178  37.249  1.00  0.00     0.043 A 
HETATM    7  C1  UNK     1      18.391  -0.878  36.742  1.00  0.00     0.000 A 
HETATM    8  C3  UNK     1      19.080  -0.600  35.564  1.00  0.00     0.089 A 
HETATM    9  C9  UNK     1      17.667   0.197  37.399  1.00  0.00     0.020 A 
HETATM   10  O1  UNK     1      19.074   0.700  35.019  1.00  0.00    -0.275 OA
HETATM   11  C6  UNK     1      19.793  -1.584  34.883  1.00  0.00     0.040 A 
HETATM   12  C14 UNK     1      18.389   1.744  35.632  1.00  0.00     0.288 A 
HETATM   13  C12 UNK     1      17.667   1.425  36.878  1.00  0.00     0.083 A 
HETATM   14  O4  UNK     1      18.379   2.877  35.164  1.00  0.00    -0.260 OA
HETATM   15  C5  UNK     1      19.818  -2.878  35.397  1.00  0.00     0.032 A 
ENDBRANCH   2   5
BRANCH   3  16
HETATM   16  C7  UNK     1      19.984  -6.618  37.912  1.00  0.00     0.065 A 
HETATM   17  C10 UNK     1      19.367  -7.534  37.085  1.00  0.00     0.084 A 
HETATM   18  C13 UNK     1      19.098  -8.812  37.577  1.00  0.00     0.038 A 
HETATM   19  C16 UNK     1      19.450  -9.145  38.884  1.00  0.00     0.003 A 
HETATM   20  C15 UNK     1      20.073  -8.201  39.700  1.00  0.00     0.001 A 
HETATM   21  C11 UNK     1      20.342  -6.923  39.210  1.00  0.00     0.020 A 
BRANCH  17  22
HETATM   22  O2  UNK     1      19.014  -7.228  35.805  1.00  0.00    -0.355 OA
HETATM   23  C17 UNK     1      17.642  -7.394  35.454  1.00  0.00     0.210 C 
ENDBRANCH  17  22
ENDBRANCH   3  16
TORSDOF 3
ENDMDL
MODEL 5
REMARK VINA RESULT:      -8.2     13.922     17.977
REMARK  3 active torsions:
REMARK  status: ('A' for Active; 'I' for Inactive)
REMARK    1  A    between atoms: C10_15  and  O2_2 
REMARK    2  A    between atoms: C2_7  and  N1_5 
REMARK       I    between atoms: C8_13  and  N1_5 
REMARK    3  A    between atoms: C7_12  and  C8_13 
ROOT
HETATM    1  O3  UNK     1      20.499  -1.812  17.707  1.00  0.00    -0.267 OA
HETATM    2  N1  UNK     1      18.512  -1.362  16.535  1.00  0.00    -0.323 N 
HETATM    3  C8  UNK     1      19.479  -1.157  17.528  1.00  0.00     0.259 C 
HETATM    4  H4  UNK     1      17.688  -0.768  16.536  1.00  0.00     0.169 HD
ENDROOT
BRANCH   2   5
HETATM    5  C2  UNK     1      18.493  -2.346  15.545  1.00  0.00     0.035 A 
HETATM    6  C4  UNK     1      17.940  -3.600  15.820  1.00  0.00     0.043 A 
HETATM    7  C1  UNK     1      17.919  -4.586  14.832  1.00  0.00     0.000 A 
HETATM    8  C3  UNK     1      18.455  -4.295  13.580  1.00  0.00     0.089 A 
HETATM    9  C9  UNK     1      17.358  -5.906  15.063  1.00  0.00     0.020 A 
HETATM   10  O1  UNK     1      18.453  -5.264  12.556  1.00  0.00    -0.275 OA
HETATM   11  C6  UNK     1      19.009  -3.050  13.291  1.00  0.00     0.040 A 
HETATM   12  C14 UNK     1      17.921  -6.534  12.755  1.00  0.00     0.288 A 
HETATM   13  C12 UNK     1      17.360  -6.818  14.089  1.00  0.00     0.083 A 
HETATM   14  O4  UNK     1      17.916  -7.382  11.870  1.00  0.00    -0.260 OA
HETATM   15  C5  UNK     1      19.025  -2.071  14.283  1.00  0.00     0.032 A 
ENDBRANCH   2   5
BRANCH   3  16
HETATM   16  C7  UNK     1      19.204  -0.034  18.462  1.00  0.00     0.065 A 
HETATM   17  C10 UNK     1      18.983   1.234  17.965  1.00  0.00     0.084 A 
HETATM   18  C13 UNK     1      18.728   2.274  18.859  1.00  0.00     0.038 A 
HETATM   19  C16 UNK     1      18.699   2.024  20.230  1.00  0.00     0.003 A 
HETATM   20  C15 UNK     1      18.926   0.734  20.708  1.00  0.00     0.001 A 
HETATM   21  C11 UNK     1      19.182  -0.307  19.815  1.00  0.00     0.020 A 
BRANCH  17  22
HETATM   22  O2  UNK     1      19.008   1.499  16.628  1.00  0.00    -0.355 OA
HETATM   23  C17 UNK     1      19.446   2.798  16.233  1.00  0.00     0.210 C 
ENDBRANCH  17  22
ENDBRANCH   3  16
TORSDOF 3
ENDMDL
MODEL 6
REMARK VINA RESULT:      -8.2      7.009     12.483
REMARK  3 active torsions:
REMARK  status: ('A' for Active; 'I' for Inactive)
REMARK    1  A    between atoms: C10_15  and  O2_2 
REMARK    2  A    between atoms: C2_7  and  N1_5 
REMARK       I    between atoms: C8_13  and  N1_5 
REMARK    3  A    between atoms: C7_12  and  C8_13 
ROOT
HETATM    1  O3  UNK     1      20.866  -2.961  36.434  1.00  0.00    -0.267 OA
HETATM    2  N1  UNK     1      18.847  -4.164  36.431  1.00  0.00    -0.323 N 
HETATM    3  C8  UNK     1      19.641  -3.010  36.432  1.00  0.00     0.259 C 
HETATM    4  H4  UNK     1      17.838  -4.053  36.480  1.00  0.00     0.169 HD
ENDROOT
BRANCH   2   5
HETATM    5  C2  UNK     1      19.266  -5.495  36.433  1.00  0.00     0.035 A 
HETATM    6  C4  UNK     1      19.136  -6.265  37.592  1.00  0.00     0.043 A 
HETATM    7  C1  UNK     1      19.554  -7.597  37.597  1.00  0.00     0.000 A 
HETATM    8  C3  UNK     1      20.097  -8.135  36.433  1.00  0.00     0.089 A 
HETATM    9  C9  UNK     1      19.443  -8.441  38.774  1.00  0.00     0.020 A 
HETATM   10  O1  UNK     1      20.531  -9.476  36.398  1.00  0.00    -0.275 OA
HETATM   11  C6  UNK     1      20.233  -7.380  35.270  1.00  0.00     0.040 A 
HETATM   12  C14 UNK     1      20.434 -10.303  37.512  1.00  0.00     0.288 A 
HETATM   13  C12 UNK     1      19.855  -9.710  38.732  1.00  0.00     0.083 A 
HETATM   14  O4  UNK     1      20.809 -11.470  37.490  1.00  0.00    -0.260 OA
HETATM   15  C5  UNK     1      19.812  -6.053  35.274  1.00  0.00     0.032 A 
ENDBRANCH   2   5
BRANCH   3  16
HETATM   16  C7  UNK     1      18.896  -1.724  36.458  1.00  0.00     0.065 A 
HETATM   17  C10 UNK     1      18.838  -0.942  35.323  1.00  0.00     0.084 A 
HETATM   18  C13 UNK     1      18.134   0.262  35.369  1.00  0.00     0.038 A 
HETATM   19  C16 UNK     1      17.505   0.658  36.549  1.00  0.00     0.003 A 
HETATM   20  C15 UNK     1      17.579  -0.150  37.684  1.00  0.00     0.001 A 
HETATM   21  C11 UNK     1      18.283  -1.353  37.639  1.00  0.00     0.020 A 
BRANCH  17  22
HETATM   22  O2  UNK     1      19.446  -1.311  34.161  1.00  0.00    -0.355 OA
HETATM   23  C17 UNK     1      18.724  -1.085  32.952  1.00  0.00     0.210 C 
ENDBRANCH  17  22
ENDBRANCH   3  16
TORSDOF 3
ENDMDL
MODEL 7
REMARK VINA RESULT:      -8.1     12.040     14.715
REMARK  3 active torsions:
REMARK  status: ('A' for Active; 'I' for Inactive)
REMARK    1  A    between atoms: C10_15  and  O2_2 
REMARK    2  A    between atoms: C2_7  and  N1_5 
REMARK       I    between atoms: C8_13  and  N1_5 
REMARK    3  A    between atoms: C7_12  and  C8_13 
ROOT
HETATM    1  O3  UNK     1      25.055  -6.493  38.807  1.00  0.00    -0.267 OA
HETATM    2  N1  UNK     1      23.934  -8.509  38.355  1.00  0.00    -0.323 N 
HETATM    3  C8  UNK     1      25.048  -7.706  38.630  1.00  0.00     0.259 C 
HETATM    4  H4  UNK     1      24.085  -9.499  38.183  1.00  0.00     0.169 HD
ENDROOT
BRANCH   2   5
HETATM    5  C2  UNK     1      22.602  -8.113  38.222  1.00  0.00     0.035 A 
HETATM    6  C4  UNK     1      22.036  -7.990  36.950  1.00  0.00     0.043 A 
HETATM    7  C1  UNK     1      20.704  -7.595  36.812  1.00  0.00     0.000 A 
HETATM    8  C3  UNK     1      19.961  -7.329  37.959  1.00  0.00     0.089 A 
HETATM    9  C9  UNK     1      20.067  -7.451  35.515  1.00  0.00     0.020 A 
HETATM   10  O1  UNK     1      18.613  -6.927  37.863  1.00  0.00    -0.275 OA
HETATM   11  C6  UNK     1      20.511  -7.448  39.234  1.00  0.00     0.040 A 
HETATM   12  C14 UNK     1      17.981  -6.783  36.631  1.00  0.00     0.288 A 
HETATM   13  C12 UNK     1      18.790  -7.070  35.432  1.00  0.00     0.083 A 
HETATM   14  O4  UNK     1      16.810  -6.434  36.539  1.00  0.00    -0.260 OA
HETATM   15  C5  UNK     1      21.840  -7.843  39.361  1.00  0.00     0.032 A 
ENDBRANCH   2   5
BRANCH   3  16
HETATM   16  C7  UNK     1      26.350  -8.421  38.685  1.00  0.00     0.065 A 
HETATM   17  C10 UNK     1      27.296  -8.199  37.706  1.00  0.00     0.084 A 
HETATM   18  C13 UNK     1      28.512  -8.881  37.776  1.00  0.00     0.038 A 
HETATM   19  C16 UNK     1      28.754  -9.769  38.822  1.00  0.00     0.003 A 
HETATM   20  C15 UNK     1      27.781  -9.977  39.800  1.00  0.00     0.001 A 
HETATM   21  C11 UNK     1      26.566  -9.296  39.731  1.00  0.00     0.020 A 
BRANCH  17  22
HETATM   22  O2  UNK     1      27.079  -7.335  36.675  1.00  0.00    -0.355 OA
HETATM   23  C17 UNK     1      28.179  -7.072  35.807  1.00  0.00     0.210 C 
ENDBRANCH  17  22
ENDBRANCH   3  16
TORSDOF 3
ENDMDL
MODEL 8
REMARK VINA RESULT:      -8.1      6.350     11.912
REMARK  3 active torsions:
REMARK  status: ('A' for Active; 'I' for Inactive)
REMARK    1  A    between atoms: C10_15  and  O2_2 
REMARK    2  A    between atoms: C2_7  and  N1_5 
REMARK       I    between atoms: C8_13  and  N1_5 
REMARK    3  A    between atoms: C7_12  and  C8_13 
ROOT
HETATM    1  O3  UNK     1      20.791  -1.904  35.789  1.00  0.00    -0.267 OA
HETATM    2  N1  UNK     1      19.192  -3.436  36.580  1.00  0.00    -0.323 N 
HETATM    3  C8  UNK     1      19.649  -2.188  36.136  1.00  0.00     0.259 C 
HETATM    4  H4  UNK     1      18.225  -3.514  36.882  1.00  0.00     0.169 HD
ENDROOT
BRANCH   2   5
HETATM    5  C2  UNK     1      19.922  -4.616  36.725  1.00  0.00     0.035 A 
HETATM    6  C4  UNK     1      19.852  -5.605  35.739  1.00  0.00     0.043 A 
HETATM    7  C1  UNK     1      20.581  -6.787  35.881  1.00  0.00     0.000 A 
HETATM    8  C3  UNK     1      21.371  -6.956  37.015  1.00  0.00     0.089 A 
HETATM    9  C9  UNK     1      20.544  -7.846  34.888  1.00  0.00     0.020 A 
HETATM   10  O1  UNK     1      22.122  -8.136  37.196  1.00  0.00    -0.275 OA
HETATM   11  C6  UNK     1      21.451  -5.981  38.007  1.00  0.00     0.040 A 
HETATM   12  C14 UNK     1      22.102  -9.163  36.258  1.00  0.00     0.288 A 
HETATM   13  C12 UNK     1      21.258  -8.959  35.066  1.00  0.00     0.083 A 
HETATM   14  O4  UNK     1      22.752 -10.192  36.408  1.00  0.00    -0.260 OA
HETATM   15  C5  UNK     1      20.721  -4.804  37.856  1.00  0.00     0.032 A 
ENDBRANCH   2   5
BRANCH   3  16
HETATM   16  C7  UNK     1      18.630  -1.106  36.115  1.00  0.00     0.065 A 
HETATM   17  C10 UNK     1      18.451  -0.355  34.972  1.00  0.00     0.084 A 
HETATM   18  C13 UNK     1      17.489   0.656  34.973  1.00  0.00     0.038 A 
HETATM   19  C16 UNK     1      16.729   0.894  36.118  1.00  0.00     0.003 A 
HETATM   20  C15 UNK     1      16.929   0.121  37.261  1.00  0.00     0.001 A 
HETATM   21  C11 UNK     1      17.891  -0.890  37.261  1.00  0.00     0.020 A 
BRANCH  17  22
HETATM   22  O2  UNK     1      19.184  -0.571  33.844  1.00  0.00    -0.355 OA
HETATM   23  C17 UNK     1      18.534  -1.244  32.767  1.00  0.00     0.210 C 
ENDBRANCH  17  22
ENDBRANCH   3  16
TORSDOF 3
ENDMDL
MODEL 9
REMARK VINA RESULT:      -7.9      5.869      8.933
REMARK  3 active torsions:
REMARK  status: ('A' for Active; 'I' for Inactive)
REMARK    1  A    between atoms: C10_15  and  O2_2 
REMARK    2  A    between atoms: C2_7  and  N1_5 
REMARK       I    between atoms: C8_13  and  N1_5 
REMARK    3  A    between atoms: C7_12  and  C8_13 
ROOT
HETATM    1  O3  UNK     1      21.244  -4.074  36.786  1.00  0.00    -0.267 OA
HETATM    2  N1  UNK     1      18.959  -3.734  37.221  1.00  0.00    -0.323 N 
HETATM    3  C8  UNK     1      20.165  -4.447  37.233  1.00  0.00     0.259 C 
HETATM    4  H4  UNK     1      18.127  -4.189  37.585  1.00  0.00     0.169 HD
ENDROOT
BRANCH   2   5
HETATM    5  C2  UNK     1      18.720  -2.459  36.705  1.00  0.00     0.035 A 
HETATM    6  C4  UNK     1      18.880  -2.220  35.337  1.00  0.00     0.043 A 
HETATM    7  C1  UNK     1      18.641  -0.947  34.817  1.00  0.00     0.000 A 
HETATM    8  C3  UNK     1      18.245   0.069  35.683  1.00  0.00     0.089 A 
HETATM    9  C9  UNK     1      18.793  -0.643  33.405  1.00  0.00     0.020 A 
HETATM   10  O1  UNK     1      17.995   1.368  35.197  1.00  0.00    -0.275 OA
HETATM   11  C6  UNK     1      18.081  -0.154  37.049  1.00  0.00     0.040 A 
HETATM   12  C14 UNK     1      18.132   1.682  33.849  1.00  0.00     0.288 A 
HETATM   13  C12 UNK     1      18.554   0.589  32.952  1.00  0.00     0.083 A 
HETATM   14  O4  UNK     1      17.917   2.809  33.419  1.00  0.00    -0.260 OA
HETATM   15  C5  UNK     1      18.320  -1.428  37.558  1.00  0.00     0.032 A 
ENDBRANCH   2   5
BRANCH   3  16
HETATM   16  C7  UNK     1      20.096  -5.804  37.834  1.00  0.00     0.065 A 
HETATM   17  C10 UNK     1      19.093  -6.672  37.456  1.00  0.00     0.084 A 
HETATM   18  C13 UNK     1      19.046  -7.942  38.034  1.00  0.00     0.038 A 
HETATM   19  C16 UNK     1      20.002  -8.314  38.977  1.00  0.00     0.003 A 
HETATM   20  C15 UNK     1      21.007  -7.418  39.343  1.00  0.00     0.001 A 
HETATM   21  C11 UNK     1      21.055  -6.149  38.767  1.00  0.00     0.020 A 
BRANCH  17  22
HETATM   22  O2  UNK     1      18.148  -6.327  36.536  1.00  0.00    -0.355 OA
HETATM   23  C17 UNK     1      17.846  -7.287  35.526  1.00  0.00     0.210 C 
ENDBRANCH  17  22
ENDBRANCH   3  16
TORSDOF 3
ENDMDL
MODEL 10
REMARK VINA RESULT:      -7.9     13.383     17.655
REMARK  3 active torsions:
REMARK  status: ('A' for Active; 'I' for Inactive)
REMARK    1  A    between atoms: C10_15  and  O2_2 
REMARK    2  A    between atoms: C2_7  and  N1_5 
REMARK       I    between atoms: C8_13  and  N1_5 
REMARK    3  A    between atoms: C7_12  and  C8_13 
ROOT
HETATM    1  O3  UNK     1      17.905  -1.208  17.293  1.00  0.00    -0.267 OA
HETATM    2  N1  UNK     1      20.196  -1.669  17.551  1.00  0.00    -0.323 N 
HETATM    3  C8  UNK     1      19.000  -0.983  17.797  1.00  0.00     0.259 C 
HETATM    4  H4  UNK     1      21.042  -1.340  18.005  1.00  0.00     0.169 HD
ENDROOT
BRANCH   2   5
HETATM    5  C2  UNK     1      20.405  -2.748  16.689  1.00  0.00     0.035 A 
HETATM    6  C4  UNK     1      19.497  -3.002  15.658  1.00  0.00     0.043 A 
HETATM    7  C1  UNK     1      19.704  -4.080  14.794  1.00  0.00     0.000 A 
HETATM    8  C3  UNK     1      20.823  -4.885  14.982  1.00  0.00     0.089 A 
HETATM    9  C9  UNK     1      18.792  -4.390  13.707  1.00  0.00     0.020 A 
HETATM   10  O1  UNK     1      21.067  -5.983  14.131  1.00  0.00    -0.275 OA
HETATM   11  C6  UNK     1      21.738  -4.644  16.005  1.00  0.00     0.040 A 
HETATM   12  C14 UNK     1      20.208  -6.299  13.084  1.00  0.00     0.288 A 
HETATM   13  C12 UNK     1      19.030  -5.430  12.906  1.00  0.00     0.083 A 
HETATM   14  O4  UNK     1      20.413  -7.251  12.340  1.00  0.00    -0.260 OA
HETATM   15  C5  UNK     1      21.524  -3.567  16.861  1.00  0.00     0.032 A 
ENDBRANCH   2   5
BRANCH   3  16
HETATM   16  C7  UNK     1      19.101   0.149  18.755  1.00  0.00     0.065 A 
HETATM   17  C10 UNK     1      18.963   1.445  18.303  1.00  0.00     0.084 A 
HETATM   18  C13 UNK     1      19.062   2.493  19.219  1.00  0.00     0.038 A 
HETATM   19  C16 UNK     1      19.298   2.222  20.566  1.00  0.00     0.003 A 
HETATM   20  C15 UNK     1      19.434   0.903  20.998  1.00  0.00     0.001 A 
HETATM   21  C11 UNK     1      19.336  -0.145  20.084  1.00  0.00     0.020 A 
BRANCH  17  22
HETATM   22  O2  UNK     1      18.733   1.731  16.990  1.00  0.00    -0.355 OA
HETATM   23  C17 UNK     1      19.528   2.759  16.402  1.00  0.00     0.210 C 
ENDBRANCH  17  22
ENDBRANCH   3  16
TORSDOF 3
ENDMDL
