MODEL 1
REMARK VINA RESULT:      -8.8      0.000      0.000
REMARK  10 active torsions:
REMARK  status: ('A' for Active; 'I' for Inactive)
REMARK    1  A    between atoms: C1_12  and  O2_2 
REMARK    2  A    between atoms: C2_13  and  O3_3 
REMARK    3  A    between atoms: C4_15  and  O4_4 
REMARK    4  A    between atoms: C7_18  and  O5_5 
REMARK    5  A    between atoms: C8_19  and  O6_6 
REMARK    6  A    between atoms: C9_20  and  O8_8 
REMARK    7  A    between atoms: C18_29  and  O10_10 
REMARK    8  A    between atoms: C19_30  and  O11_11 
REMARK    9  A    between atoms: C3_14  and  C6_17 
REMARK   10  A    between atoms: C5_16  and  C7_18 
ROOT
HETATM    1  O7  UNK     1      19.316   0.910  15.066  1.00  0.00    -0.309 OA
HETATM    2  O9  UNK     1      18.616  -1.954  17.903  1.00  0.00    -0.286 OA
HETATM    3  C6  UNK     1      18.792  -3.023  13.797  1.00  0.00     0.041 A 
HETATM    4  C8  UNK     1      18.721  -2.746  15.163  1.00  0.00     0.094 A 
HETATM    5  C9  UNK     1      19.034  -1.994  12.886  1.00  0.00     0.080 A 
HETATM    6  C10 UNK     1      18.893  -1.433  15.610  1.00  0.00     0.083 A 
HETATM    7  C11 UNK     1      19.136  -0.402  14.702  1.00  0.00     0.095 A 
HETATM    8  C12 UNK     1      19.206  -0.685  13.337  1.00  0.00     0.075 A 
HETATM    9  C13 UNK     1      18.825  -1.111  17.043  1.00  0.00     0.200 A 
HETATM   10  C14 UNK     1      19.019   0.299  17.413  1.00  0.00     0.052 A 
HETATM   11  C15 UNK     1      19.255   1.229  16.400  1.00  0.00     0.093 A 
HETATM   12  C16 UNK     1      18.970   0.701  18.749  1.00  0.00     0.057 A 
HETATM   13  C17 UNK     1      19.443   2.573  16.728  1.00  0.00     0.077 A 
HETATM   14  C18 UNK     1      19.158   2.046  19.071  1.00  0.00     0.099 A 
HETATM   15  C19 UNK     1      19.393   2.981  18.062  1.00  0.00     0.101 A 
ENDROOT
BRANCH   3  16
HETATM   16  C3  UNK     1      18.605  -4.442  13.297  1.00  0.00     0.192 C 
HETATM   17  C1  UNK     1      19.948  -5.178  13.118  1.00  0.00     0.183 C 
HETATM   18  C2  UNK     1      19.726  -6.624  12.662  1.00  0.00     0.181 C 
HETATM   19  C4  UNK     1      18.682  -7.318  13.550  1.00  0.00     0.180 C 
HETATM   20  C5  UNK     1      17.411  -6.473  13.697  1.00  0.00     0.177 C 
HETATM   21  O1  UNK     1      17.742  -5.167  14.182  1.00  0.00    -0.368 OA
BRANCH  17  22
HETATM   22  O2  UNK     1      20.643  -5.201  14.367  1.00  0.00    -0.390 OA
HETATM   23  H8  UNK     1      20.026  -5.506  15.054  1.00  0.00     0.210 HD
ENDBRANCH  17  22
BRANCH  18  24
HETATM   24  O3  UNK     1      19.319  -6.640  11.295  1.00  0.00    -0.390 OA
HETATM   25  H9  UNK     1      18.383  -6.374  11.267  1.00  0.00     0.210 HD
ENDBRANCH  18  24
BRANCH  19  26
HETATM   26  O4  UNK     1      18.360  -8.598  13.018  1.00  0.00    -0.390 OA
HETATM   27  H10 UNK     1      18.496  -8.558  12.056  1.00  0.00     0.210 HD
ENDBRANCH  19  26
BRANCH  20  28
HETATM   28  C7  UNK     1      16.435  -7.094  14.692  1.00  0.00     0.198 C 
BRANCH  28  29
HETATM   29  O5  UNK     1      17.125  -8.067  15.454  1.00  0.00    -0.398 OA
HETATM   30  H12 UNK     1      16.845  -8.938  15.127  1.00  0.00     0.209 HD
ENDBRANCH  28  29
ENDBRANCH  20  28
ENDBRANCH   3  16
BRANCH   4  31
HETATM   31  O6  UNK     1      18.481  -3.774  16.026  1.00  0.00    -0.359 OA
HETATM   32  H13 UNK     1      19.273  -4.320  16.140  1.00  0.00     0.217 HD
ENDBRANCH   4  31
BRANCH   5  33
HETATM   33  O8  UNK     1      19.103  -2.249  11.549  1.00  0.00    -0.360 OA
HETATM   34  H14 UNK     1      19.690  -3.010  11.400  1.00  0.00     0.217 HD
ENDBRANCH   5  33
BRANCH  14  35
HETATM   35  O10 UNK     1      19.109   2.435  20.375  1.00  0.00    -0.358 OA
HETATM   36  H17 UNK     1      18.790   1.692  20.916  1.00  0.00     0.217 HD
ENDBRANCH  14  35
BRANCH  15  37
HETATM   37  O11 UNK     1      19.579   4.295  18.368  1.00  0.00    -0.358 OA
HETATM   38  H18 UNK     1      19.665   4.794  17.537  1.00  0.00     0.217 HD
ENDBRANCH  15  37
TORSDOF 10
ENDMDL
MODEL 2
REMARK VINA RESULT:      -8.4      2.125      8.372
REMARK  10 active torsions:
REMARK  status: ('A' for Active; 'I' for Inactive)
REMARK    1  A    between atoms: C1_12  and  O2_2 
REMARK    2  A    between atoms: C2_13  and  O3_3 
REMARK    3  A    between atoms: C4_15  and  O4_4 
REMARK    4  A    between atoms: C7_18  and  O5_5 
REMARK    5  A    between atoms: C8_19  and  O6_6 
REMARK    6  A    between atoms: C9_20  and  O8_8 
REMARK    7  A    between atoms: C18_29  and  O10_10 
REMARK    8  A    between atoms: C19_30  and  O11_11 
REMARK    9  A    between atoms: C3_14  and  C6_17 
REMARK   10  A    between atoms: C5_16  and  C7_18 
ROOT
HETATM    1  O7  UNK     1      18.608  -4.465  12.740  1.00  0.00    -0.309 OA
HETATM    2  O9  UNK     1      20.721  -1.004  12.196  1.00  0.00    -0.286 OA
HETATM    3  C6  UNK     1      18.504  -1.606  15.767  1.00  0.00     0.041 A 
HETATM    4  C8  UNK     1      19.254  -1.339  14.621  1.00  0.00     0.094 A 
HETATM    5  C9  UNK     1      17.807  -2.810  15.883  1.00  0.00     0.080 A 
HETATM    6  C10 UNK     1      19.302  -2.285  13.593  1.00  0.00     0.083 A 
HETATM    7  C11 UNK     1      18.608  -3.489  13.706  1.00  0.00     0.095 A 
HETATM    8  C12 UNK     1      17.859  -3.751  14.855  1.00  0.00     0.075 A 
HETATM    9  C13 UNK     1      20.086  -2.032  12.374  1.00  0.00     0.200 A 
HETATM   10  C14 UNK     1      20.072  -3.088  11.351  1.00  0.00     0.052 A 
HETATM   11  C15 UNK     1      19.333  -4.246  11.595  1.00  0.00     0.093 A 
HETATM   12  C16 UNK     1      20.786  -2.938  10.159  1.00  0.00     0.057 A 
HETATM   13  C17 UNK     1      19.308  -5.262  10.637  1.00  0.00     0.077 A 
HETATM   14  C18 UNK     1      20.754  -3.956   9.206  1.00  0.00     0.099 A 
HETATM   15  C19 UNK     1      20.017  -5.116   9.444  1.00  0.00     0.101 A 
ENDROOT
BRANCH   3  16
HETATM   16  C3  UNK     1      18.441  -0.589  16.890  1.00  0.00     0.192 C 
HETATM   17  C1  UNK     1      19.102  -1.108  18.183  1.00  0.00     0.183 C 
HETATM   18  C2  UNK     1      19.069  -0.041  19.283  1.00  0.00     0.181 C 
HETATM   19  C4  UNK     1      19.583   1.304  18.748  1.00  0.00     0.180 C 
HETATM   20  C5  UNK     1      18.893   1.693  17.435  1.00  0.00     0.177 C 
HETATM   21  O1  UNK     1      19.041   0.644  16.473  1.00  0.00    -0.368 OA
BRANCH  17  22
HETATM   22  O2  UNK     1      20.466  -1.438  17.916  1.00  0.00    -0.390 OA
HETATM   23  H8  UNK     1      20.578  -1.519  16.954  1.00  0.00     0.210 HD
ENDBRANCH  17  22
BRANCH  18  24
HETATM   24  O3  UNK     1      17.741   0.089  19.788  1.00  0.00    -0.390 OA
HETATM   25  H9  UNK     1      17.394  -0.810  19.928  1.00  0.00     0.210 HD
ENDBRANCH  18  24
BRANCH  19  26
HETATM   26  O4  UNK     1      19.391   2.323  19.723  1.00  0.00    -0.390 OA
HETATM   27  H10 UNK     1      18.644   2.872  19.429  1.00  0.00     0.210 HD
ENDBRANCH  19  26
BRANCH  20  28
HETATM   28  C7  UNK     1      19.504   2.954  16.831  1.00  0.00     0.198 C 
BRANCH  28  29
HETATM   29  O5  UNK     1      19.415   2.868  15.421  1.00  0.00    -0.398 OA
HETATM   30  H12 UNK     1      18.628   3.370  15.153  1.00  0.00     0.209 HD
ENDBRANCH  28  29
ENDBRANCH  20  28
ENDBRANCH   3  16
BRANCH   4  31
HETATM   31  O6  UNK     1      19.922  -0.153  14.539  1.00  0.00    -0.359 OA
HETATM   32  H13 UNK     1      19.464   0.536  15.044  1.00  0.00     0.217 HD
ENDBRANCH   4  31
BRANCH   5  33
HETATM   33  O8  UNK     1      17.068  -3.082  16.995  1.00  0.00    -0.360 OA
HETATM   34  H14 UNK     1      16.302  -2.483  17.022  1.00  0.00     0.217 HD
ENDBRANCH   5  33
BRANCH  14  35
HETATM   35  O10 UNK     1      21.451  -3.806   8.045  1.00  0.00    -0.358 OA
HETATM   36  H17 UNK     1      22.332  -3.449   8.247  1.00  0.00     0.217 HD
ENDBRANCH  14  35
BRANCH  15  37
HETATM   37  O11 UNK     1      19.983  -6.115   8.518  1.00  0.00    -0.358 OA
HETATM   38  H18 UNK     1      20.076  -6.965   8.982  1.00  0.00     0.217 HD
ENDBRANCH  15  37
TORSDOF 10
ENDMDL
MODEL 3
REMARK VINA RESULT:      -8.3      3.780      5.946
REMARK  10 active torsions:
REMARK  status: ('A' for Active; 'I' for Inactive)
REMARK    1  A    between atoms: C1_12  and  O2_2 
REMARK    2  A    between atoms: C2_13  and  O3_3 
REMARK    3  A    between atoms: C4_15  and  O4_4 
REMARK    4  A    between atoms: C7_18  and  O5_5 
REMARK    5  A    between atoms: C8_19  and  O6_6 
REMARK    6  A    between atoms: C9_20  and  O8_8 
REMARK    7  A    between atoms: C18_29  and  O10_10 
REMARK    8  A    between atoms: C19_30  and  O11_11 
REMARK    9  A    between atoms: C3_14  and  C6_17 
REMARK   10  A    between atoms: C5_16  and  C7_18 
ROOT
HETATM    1  O7  UNK     1      21.956  -6.504  15.064  1.00  0.00    -0.309 OA
HETATM    2  O9  UNK     1      19.210  -3.536  14.444  1.00  0.00    -0.286 OA
HETATM    3  C6  UNK     1      19.257  -6.954  11.925  1.00  0.00     0.041 A 
HETATM    4  C8  UNK     1      19.182  -5.804  12.711  1.00  0.00     0.094 A 
HETATM    5  C9  UNK     1      20.221  -7.926  12.196  1.00  0.00     0.080 A 
HETATM    6  C10 UNK     1      20.078  -5.633  13.769  1.00  0.00     0.083 A 
HETATM    7  C11 UNK     1      21.044  -6.602  14.043  1.00  0.00     0.095 A 
HETATM    8  C12 UNK     1      21.114  -7.751  13.253  1.00  0.00     0.075 A 
HETATM    9  C13 UNK     1      20.023  -4.431  14.616  1.00  0.00     0.200 A 
HETATM   10  C14 UNK     1      21.010  -4.345  15.703  1.00  0.00     0.052 A 
HETATM   11  C15 UNK     1      21.920  -5.389  15.865  1.00  0.00     0.093 A 
HETATM   12  C16 UNK     1      21.035  -3.241  16.558  1.00  0.00     0.057 A 
HETATM   13  C17 UNK     1      22.865  -5.327  16.891  1.00  0.00     0.077 A 
HETATM   14  C18 UNK     1      21.983  -3.185  17.581  1.00  0.00     0.099 A 
HETATM   15  C19 UNK     1      22.897  -4.226  17.747  1.00  0.00     0.101 A 
ENDROOT
BRANCH   3  16
HETATM   16  C3  UNK     1      18.291  -7.153  10.772  1.00  0.00     0.192 C 
HETATM   17  C1  UNK     1      17.000  -7.873  11.211  1.00  0.00     0.183 C 
HETATM   18  C2  UNK     1      16.024  -8.013  10.039  1.00  0.00     0.181 C 
HETATM   19  C4  UNK     1      15.843  -6.668   9.321  1.00  0.00     0.180 C 
HETATM   20  C5  UNK     1      17.190  -6.021   8.979  1.00  0.00     0.177 C 
HETATM   21  O1  UNK     1      17.988  -5.893  10.160  1.00  0.00    -0.368 OA
BRANCH  17  22
HETATM   22  O2  UNK     1      16.363  -7.112  12.240  1.00  0.00    -0.390 OA
HETATM   23  H8  UNK     1      16.135  -7.714  12.968  1.00  0.00     0.210 HD
ENDBRANCH  17  22
BRANCH  18  24
HETATM   24  O3  UNK     1      16.498  -9.010   9.135  1.00  0.00    -0.390 OA
HETATM   25  H9  UNK     1      16.283  -9.878   9.521  1.00  0.00     0.210 HD
ENDBRANCH  18  24
BRANCH  19  26
HETATM   26  O4  UNK     1      15.071  -6.844   8.138  1.00  0.00    -0.390 OA
HETATM   27  H10 UNK     1      14.182  -6.489   8.314  1.00  0.00     0.210 HD
ENDBRANCH  19  26
BRANCH  20  28
HETATM   28  C7  UNK     1      17.012  -4.623   8.396  1.00  0.00     0.198 C 
BRANCH  28  29
HETATM   29  O5  UNK     1      15.851  -4.043   8.962  1.00  0.00    -0.398 OA
HETATM   30  H12 UNK     1      15.461  -4.706   9.557  1.00  0.00     0.209 HD
ENDBRANCH  28  29
ENDBRANCH  20  28
ENDBRANCH   3  16
BRANCH   4  31
HETATM   31  O6  UNK     1      18.229  -4.873  12.418  1.00  0.00    -0.359 OA
HETATM   32  H13 UNK     1      18.082  -4.282  13.172  1.00  0.00     0.217 HD
ENDBRANCH   4  31
BRANCH   5  33
HETATM   33  O8  UNK     1      20.308  -9.053  11.434  1.00  0.00    -0.360 OA
HETATM   34  H14 UNK     1      19.412  -9.335  11.180  1.00  0.00     0.217 HD
ENDBRANCH   5  33
BRANCH  14  35
HETATM   35  O10 UNK     1      22.005  -2.106  18.413  1.00  0.00    -0.358 OA
HETATM   36  H17 UNK     1      21.178  -2.081  18.923  1.00  0.00     0.217 HD
ENDBRANCH  14  35
BRANCH  15  37
HETATM   37  O11 UNK     1      23.823  -4.179  18.744  1.00  0.00    -0.358 OA
HETATM   38  H18 UNK     1      23.637  -3.403  19.299  1.00  0.00     0.217 HD
ENDBRANCH  15  37
TORSDOF 10
ENDMDL
MODEL 4
REMARK VINA RESULT:      -8.3     14.980     19.946
REMARK  10 active torsions:
REMARK  status: ('A' for Active; 'I' for Inactive)
REMARK    1  A    between atoms: C1_12  and  O2_2 
REMARK    2  A    between atoms: C2_13  and  O3_3 
REMARK    3  A    between atoms: C4_15  and  O4_4 
REMARK    4  A    between atoms: C7_18  and  O5_5 
REMARK    5  A    between atoms: C8_19  and  O6_6 
REMARK    6  A    between atoms: C9_20  and  O8_8 
REMARK    7  A    between atoms: C18_29  and  O10_10 
REMARK    8  A    between atoms: C19_30  and  O11_11 
REMARK    9  A    between atoms: C3_14  and  C6_17 
REMARK   10  A    between atoms: C5_16  and  C7_18 
ROOT
HETATM    1  O7  UNK     1      19.332   2.059  30.050  1.00  0.00    -0.309 OA
HETATM    2  O9  UNK     1      18.451   1.142  33.939  1.00  0.00    -0.286 OA
HETATM    3  C6  UNK     1      17.861   5.092  32.497  1.00  0.00     0.041 A 
HETATM    4  C8  UNK     1      18.029   3.818  33.040  1.00  0.00     0.094 A 
HETATM    5  C9  UNK     1      18.184   5.332  31.160  1.00  0.00     0.080 A 
HETATM    6  C10 UNK     1      18.522   2.786  32.237  1.00  0.00     0.083 A 
HETATM    7  C11 UNK     1      18.845   3.021  30.900  1.00  0.00     0.095 A 
HETATM    8  C12 UNK     1      18.675   4.298  30.362  1.00  0.00     0.075 A 
HETATM    9  C13 UNK     1      18.708   1.432  32.781  1.00  0.00     0.200 A 
HETATM   10  C14 UNK     1      19.233   0.416  31.856  1.00  0.00     0.052 A 
HETATM   11  C15 UNK     1      19.514   0.789  30.542  1.00  0.00     0.093 A 
HETATM   12  C16 UNK     1      19.444  -0.897  32.283  1.00  0.00     0.057 A 
HETATM   13  C17 UNK     1      20.012  -0.160  29.647  1.00  0.00     0.077 A 
HETATM   14  C18 UNK     1      19.943  -1.841  31.384  1.00  0.00     0.099 A 
HETATM   15  C19 UNK     1      20.227  -1.473  30.068  1.00  0.00     0.101 A 
ENDROOT
BRANCH   3  16
HETATM   16  C3  UNK     1      17.329   6.223  33.356  1.00  0.00     0.192 C 
HETATM   17  C1  UNK     1      18.445   6.921  34.157  1.00  0.00     0.183 C 
HETATM   18  C2  UNK     1      17.886   8.091  34.974  1.00  0.00     0.181 C 
HETATM   19  C4  UNK     1      17.010   8.995  34.096  1.00  0.00     0.180 C 
HETATM   20  C5  UNK     1      15.972   8.188  33.308  1.00  0.00     0.177 C 
HETATM   21  O1  UNK     1      16.619   7.167  32.543  1.00  0.00    -0.368 OA
BRANCH  17  22
HETATM   22  O2  UNK     1      19.426   7.433  33.252  1.00  0.00    -0.390 OA
HETATM   23  H8  UNK     1      18.994   7.606  32.399  1.00  0.00     0.210 HD
ENDBRANCH  17  22
BRANCH  18  24
HETATM   24  O3  UNK     1      17.143   7.589  36.085  1.00  0.00    -0.390 OA
HETATM   25  H9  UNK     1      17.745   7.035  36.611  1.00  0.00     0.210 HD
ENDBRANCH  18  24
BRANCH  19  26
HETATM   26  O4  UNK     1      16.363   9.977  34.897  1.00  0.00    -0.390 OA
HETATM   27  H10 UNK     1      16.956  10.188  35.638  1.00  0.00     0.210 HD
ENDBRANCH  19  26
BRANCH  20  28
HETATM   28  C7  UNK     1      15.199   9.068  32.330  1.00  0.00     0.198 C 
BRANCH  28  29
HETATM   29  O5  UNK     1      15.573   8.713  31.011  1.00  0.00    -0.398 OA
HETATM   30  H12 UNK     1      16.249   8.018  31.083  1.00  0.00     0.209 HD
ENDBRANCH  28  29
ENDBRANCH  20  28
ENDBRANCH   3  16
BRANCH   4  31
HETATM   31  O6  UNK     1      17.706   3.618  34.349  1.00  0.00    -0.359 OA
HETATM   32  H13 UNK     1      17.200   4.368  34.697  1.00  0.00     0.217 HD
ENDBRANCH   4  31
BRANCH   5  33
HETATM   33  O8  UNK     1      18.028   6.572  30.617  1.00  0.00    -0.360 OA
HETATM   34  H14 UNK     1      18.359   7.237  31.244  1.00  0.00     0.217 HD
ENDBRANCH   5  33
BRANCH  14  35
HETATM   35  O10 UNK     1      20.148  -3.120  31.803  1.00  0.00    -0.358 OA
HETATM   36  H17 UNK     1      20.974  -3.158  32.314  1.00  0.00     0.217 HD
ENDBRANCH  14  35
BRANCH  15  37
HETATM   37  O11 UNK     1      20.712  -2.389  29.184  1.00  0.00    -0.358 OA
HETATM   38  H18 UNK     1      20.113  -3.155  29.177  1.00  0.00     0.217 HD
ENDBRANCH  15  37
TORSDOF 10
ENDMDL
MODEL 5
REMARK VINA RESULT:      -8.0      2.125      3.642
REMARK  10 active torsions:
REMARK  status: ('A' for Active; 'I' for Inactive)
REMARK    1  A    between atoms: C1_12  and  O2_2 
REMARK    2  A    between atoms: C2_13  and  O3_3 
REMARK    3  A    between atoms: C4_15  and  O4_4 
REMARK    4  A    between atoms: C7_18  and  O5_5 
REMARK    5  A    between atoms: C8_19  and  O6_6 
REMARK    6  A    between atoms: C9_20  and  O8_8 
REMARK    7  A    between atoms: C18_29  and  O10_10 
REMARK    8  A    between atoms: C19_30  and  O11_11 
REMARK    9  A    between atoms: C3_14  and  C6_17 
REMARK   10  A    between atoms: C5_16  and  C7_18 
ROOT
HETATM    1  O7  UNK     1      18.219  -1.711  17.154  1.00  0.00    -0.309 OA
HETATM    2  O9  UNK     1      19.927   1.238  14.891  1.00  0.00    -0.286 OA
HETATM    3  C6  UNK     1      19.019  -2.526  13.149  1.00  0.00     0.041 A 
HETATM    4  C8  UNK     1      19.344  -1.267  13.652  1.00  0.00     0.094 A 
HETATM    5  C9  UNK     1      18.438  -3.484  13.981  1.00  0.00     0.080 A 
HETATM    6  C10 UNK     1      19.085  -0.973  14.994  1.00  0.00     0.083 A 
HETATM    7  C11 UNK     1      18.504  -1.927  15.829  1.00  0.00     0.095 A 
HETATM    8  C12 UNK     1      18.180  -3.186  15.319  1.00  0.00     0.075 A 
HETATM    9  C13 UNK     1      19.416   0.347  15.552  1.00  0.00     0.200 A 
HETATM   10  C14 UNK     1      19.105   0.558  16.974  1.00  0.00     0.052 A 
HETATM   11  C15 UNK     1      18.523  -0.486  17.694  1.00  0.00     0.093 A 
HETATM   12  C16 UNK     1      19.385   1.779  17.594  1.00  0.00     0.057 A 
HETATM   13  C17 UNK     1      18.218  -0.306  19.045  1.00  0.00     0.077 A 
HETATM   14  C18 UNK     1      19.080   1.951  18.944  1.00  0.00     0.099 A 
HETATM   15  C19 UNK     1      18.497   0.910  19.669  1.00  0.00     0.101 A 
ENDROOT
BRANCH   3  16
HETATM   16  C3  UNK     1      19.295  -2.861  11.695  1.00  0.00     0.192 C 
HETATM   17  C1  UNK     1      20.702  -3.458  11.492  1.00  0.00     0.183 C 
HETATM   18  C2  UNK     1      20.933  -3.833  10.025  1.00  0.00     0.181 C 
HETATM   19  C4  UNK     1      19.758  -4.662   9.487  1.00  0.00     0.180 C 
HETATM   20  C5  UNK     1      18.409  -3.999   9.791  1.00  0.00     0.177 C 
HETATM   21  O1  UNK     1      18.289  -3.750  11.195  1.00  0.00    -0.368 OA
BRANCH  17  22
HETATM   22  O2  UNK     1      20.832  -4.639  12.286  1.00  0.00    -0.390 OA
HETATM   23  H8  UNK     1      20.005  -4.768  12.780  1.00  0.00     0.210 HD
ENDBRANCH  17  22
BRANCH  18  24
HETATM   24  O3  UNK     1      21.116  -2.650   9.248  1.00  0.00    -0.390 OA
HETATM   25  H9  UNK     1      22.050  -2.390   9.331  1.00  0.00     0.210 HD
ENDBRANCH  18  24
BRANCH  19  26
HETATM   26  O4  UNK     1      19.900  -4.862   8.085  1.00  0.00    -0.390 OA
HETATM   27  H10 UNK     1      19.007  -4.918   7.705  1.00  0.00     0.210 HD
ENDBRANCH  19  26
BRANCH  20  28
HETATM   28  C7  UNK     1      17.239  -4.889   9.384  1.00  0.00     0.198 C 
BRANCH  28  29
HETATM   29  O5  UNK     1      16.186  -4.066   8.917  1.00  0.00    -0.398 OA
HETATM   30  H12 UNK     1      16.589  -3.365   8.378  1.00  0.00     0.209 HD
ENDBRANCH  28  29
ENDBRANCH  20  28
ENDBRANCH   3  16
BRANCH   4  31
HETATM   31  O6  UNK     1      19.912  -0.354  12.813  1.00  0.00    -0.359 OA
HETATM   32  H13 UNK     1      19.239   0.071  12.260  1.00  0.00     0.217 HD
ENDBRANCH   4  31
BRANCH   5  33
HETATM   33  O8  UNK     1      18.117  -4.720  13.503  1.00  0.00    -0.360 OA
HETATM   34  H14 UNK     1      17.985  -5.326  14.253  1.00  0.00     0.217 HD
ENDBRANCH   5  33
BRANCH  14  35
HETATM   35  O10 UNK     1      19.354   3.142  19.545  1.00  0.00    -0.358 OA
HETATM   36  H17 UNK     1      19.473   2.997  20.499  1.00  0.00     0.217 HD
ENDBRANCH  14  35
BRANCH  15  37
HETATM   37  O11 UNK     1      18.195   1.072  20.987  1.00  0.00    -0.358 OA
HETATM   38  H18 UNK     1      18.720   1.813  21.333  1.00  0.00     0.217 HD
ENDBRANCH  15  37
TORSDOF 10
ENDMDL
MODEL 6
REMARK VINA RESULT:      -7.8     23.579     25.253
REMARK  10 active torsions:
REMARK  status: ('A' for Active; 'I' for Inactive)
REMARK    1  A    between atoms: C1_12  and  O2_2 
REMARK    2  A    between atoms: C2_13  and  O3_3 
REMARK    3  A    between atoms: C4_15  and  O4_4 
REMARK    4  A    between atoms: C7_18  and  O5_5 
REMARK    5  A    between atoms: C8_19  and  O6_6 
REMARK    6  A    between atoms: C9_20  and  O8_8 
REMARK    7  A    between atoms: C18_29  and  O10_10 
REMARK    8  A    between atoms: C19_30  and  O11_11 
REMARK    9  A    between atoms: C3_14  and  C6_17 
REMARK   10  A    between atoms: C5_16  and  C7_18 
ROOT
HETATM    1  O7  UNK     1      32.876  -5.690  37.484  1.00  0.00    -0.309 OA
HETATM    2  O9  UNK     1      30.038  -7.212  34.960  1.00  0.00    -0.286 OA
HETATM    3  C6  UNK     1      34.152  -7.996  34.260  1.00  0.00     0.041 A 
HETATM    4  C8  UNK     1      32.784  -7.781  34.427  1.00  0.00     0.094 A 
HETATM    5  C9  UNK     1      35.063  -7.444  35.161  1.00  0.00     0.080 A 
HETATM    6  C10 UNK     1      32.334  -7.009  35.502  1.00  0.00     0.083 A 
HETATM    7  C11 UNK     1      33.242  -6.456  36.406  1.00  0.00     0.095 A 
HETATM    8  C12 UNK     1      34.610  -6.675  36.233  1.00  0.00     0.075 A 
HETATM    9  C13 UNK     1      30.898  -6.766  35.704  1.00  0.00     0.200 A 
HETATM   10  C14 UNK     1      30.526  -5.941  36.864  1.00  0.00     0.052 A 
HETATM   11  C15 UNK     1      31.539  -5.451  37.689  1.00  0.00     0.093 A 
HETATM   12  C16 UNK     1      29.186  -5.655  37.137  1.00  0.00     0.057 A 
HETATM   13  C17 UNK     1      31.207  -4.667  38.796  1.00  0.00     0.077 A 
HETATM   14  C18 UNK     1      28.862  -4.870  38.244  1.00  0.00     0.099 A 
HETATM   15  C19 UNK     1      29.871  -4.376  39.072  1.00  0.00     0.101 A 
ENDROOT
BRANCH   3  16
HETATM   16  C3  UNK     1      34.656  -8.830  33.097  1.00  0.00     0.192 C 
HETATM   17  C1  UNK     1      35.028  -7.964  31.877  1.00  0.00     0.183 C 
HETATM   18  C2  UNK     1      35.581  -8.827  30.739  1.00  0.00     0.181 C 
HETATM   19  C4  UNK     1      36.672  -9.774  31.259  1.00  0.00     0.180 C 
HETATM   20  C5  UNK     1      36.210 -10.544  32.502  1.00  0.00     0.177 C 
HETATM   21  O1  UNK     1      35.771  -9.629  33.511  1.00  0.00    -0.368 OA
BRANCH  17  22
HETATM   22  O2  UNK     1      36.032  -7.021  32.256  1.00  0.00    -0.390 OA
HETATM   23  H8  UNK     1      35.592  -6.191  32.511  1.00  0.00     0.210 HD
ENDBRANCH  17  22
BRANCH  18  24
HETATM   24  O3  UNK     1      34.519  -9.562  30.132  1.00  0.00    -0.390 OA
HETATM   25  H9  UNK     1      33.923  -8.918  29.712  1.00  0.00     0.210 HD
ENDBRANCH  18  24
BRANCH  19  26
HETATM   26  O4  UNK     1      37.059 -10.684  30.236  1.00  0.00    -0.390 OA
HETATM   27  H10 UNK     1      37.559 -10.181  29.570  1.00  0.00     0.210 HD
ENDBRANCH  19  26
BRANCH  20  28
HETATM   28  C7  UNK     1      37.340 -11.376  33.101  1.00  0.00     0.198 C 
BRANCH  28  29
HETATM   29  O5  UNK     1      37.647 -10.862  34.384  1.00  0.00    -0.398 OA
HETATM   30  H12 UNK     1      38.095 -10.010  34.251  1.00  0.00     0.209 HD
ENDBRANCH  28  29
ENDBRANCH  20  28
ENDBRANCH   3  16
BRANCH   4  31
HETATM   31  O6  UNK     1      31.921  -8.332  33.527  1.00  0.00    -0.359 OA
HETATM   32  H13 UNK     1      31.175  -7.738  33.357  1.00  0.00     0.217 HD
ENDBRANCH   4  31
BRANCH   5  33
HETATM   33  O8  UNK     1      36.403  -7.644  35.009  1.00  0.00    -0.360 OA
HETATM   34  H14 UNK     1      36.665  -8.437  35.507  1.00  0.00     0.217 HD
ENDBRANCH   5  33
BRANCH  14  35
HETATM   35  O10 UNK     1      27.555  -4.592  38.507  1.00  0.00    -0.358 OA
HETATM   36  H17 UNK     1      27.360  -4.828  39.430  1.00  0.00     0.217 HD
ENDBRANCH  14  35
BRANCH  15  37
HETATM   37  O11 UNK     1      29.563  -3.610  40.155  1.00  0.00    -0.358 OA
HETATM   38  H18 UNK     1      30.094  -3.918  40.910  1.00  0.00     0.217 HD
ENDBRANCH  15  37
TORSDOF 10
ENDMDL
MODEL 7
REMARK VINA RESULT:      -7.7     23.176     25.165
REMARK  10 active torsions:
REMARK  status: ('A' for Active; 'I' for Inactive)
REMARK    1  A    between atoms: C1_12  and  O2_2 
REMARK    2  A    between atoms: C2_13  and  O3_3 
REMARK    3  A    between atoms: C4_15  and  O4_4 
REMARK    4  A    between atoms: C7_18  and  O5_5 
REMARK    5  A    between atoms: C8_19  and  O6_6 
REMARK    6  A    between atoms: C9_20  and  O8_8 
REMARK    7  A    between atoms: C18_29  and  O10_10 
REMARK    8  A    between atoms: C19_30  and  O11_11 
REMARK    9  A    between atoms: C3_14  and  C6_17 
REMARK   10  A    between atoms: C5_16  and  C7_18 
ROOT
HETATM    1  O7  UNK     1      33.184  -5.392  37.516  1.00  0.00    -0.309 OA
HETATM    2  O9  UNK     1      30.793  -7.136  34.691  1.00  0.00    -0.286 OA
HETATM    3  C6  UNK     1      35.018  -7.365  34.339  1.00  0.00     0.041 A 
HETATM    4  C8  UNK     1      33.624  -7.331  34.389  1.00  0.00     0.094 A 
HETATM    5  C9  UNK     1      35.770  -6.747  35.339  1.00  0.00     0.080 A 
HETATM    6  C10 UNK     1      32.989  -6.674  35.446  1.00  0.00     0.083 A 
HETATM    7  C11 UNK     1      33.737  -6.055  36.448  1.00  0.00     0.095 A 
HETATM    8  C12 UNK     1      35.132  -6.093  36.392  1.00  0.00     0.075 A 
HETATM    9  C13 UNK     1      31.521  -6.622  35.526  1.00  0.00     0.200 A 
HETATM   10  C14 UNK     1      30.948  -5.906  36.676  1.00  0.00     0.052 A 
HETATM   11  C15 UNK     1      31.815  -5.333  37.606  1.00  0.00     0.093 A 
HETATM   12  C16 UNK     1      29.564  -5.803  36.837  1.00  0.00     0.057 A 
HETATM   13  C17 UNK     1      31.293  -4.649  38.706  1.00  0.00     0.077 A 
HETATM   14  C18 UNK     1      29.049  -5.118  37.937  1.00  0.00     0.099 A 
HETATM   15  C19 UNK     1      29.911  -4.542  38.871  1.00  0.00     0.101 A 
ENDROOT
BRANCH   3  16
HETATM   16  C3  UNK     1      35.722  -8.074  33.197  1.00  0.00     0.192 C 
HETATM   17  C1  UNK     1      35.909  -9.579  33.472  1.00  0.00     0.183 C 
HETATM   18  C2  UNK     1      36.575 -10.276  32.281  1.00  0.00     0.181 C 
HETATM   19  C4  UNK     1      35.865  -9.907  30.971  1.00  0.00     0.180 C 
HETATM   20  C5  UNK     1      35.689  -8.390  30.829  1.00  0.00     0.177 C 
HETATM   21  O1  UNK     1      35.007  -7.865  31.973  1.00  0.00    -0.368 OA
BRANCH  17  22
HETATM   22  O2  UNK     1      34.631 -10.181  33.689  1.00  0.00    -0.390 OA
HETATM   23  H8  UNK     1      34.766 -11.033  34.136  1.00  0.00     0.210 HD
ENDBRANCH  17  22
BRANCH  18  24
HETATM   24  O3  UNK     1      37.956  -9.922  32.228  1.00  0.00    -0.390 OA
HETATM   25  H9  UNK     1      38.150  -9.648  31.314  1.00  0.00     0.210 HD
ENDBRANCH  18  24
BRANCH  19  26
HETATM   26  O4  UNK     1      36.590 -10.421  29.860  1.00  0.00    -0.390 OA
HETATM   27  H10 UNK     1      37.259  -9.759  29.615  1.00  0.00     0.210 HD
ENDBRANCH  19  26
BRANCH  20  28
HETATM   28  C7  UNK     1      34.860  -8.032  29.600  1.00  0.00     0.198 C 
BRANCH  28  29
HETATM   29  O5  UNK     1      35.741  -7.720  28.536  1.00  0.00    -0.398 OA
HETATM   30  H12 UNK     1      35.638  -8.416  27.866  1.00  0.00     0.209 HD
ENDBRANCH  28  29
ENDBRANCH  20  28
ENDBRANCH   3  16
BRANCH   4  31
HETATM   31  O6  UNK     1      32.919  -7.943  33.395  1.00  0.00    -0.359 OA
HETATM   32  H13 UNK     1      32.687  -8.850  33.646  1.00  0.00     0.217 HD
ENDBRANCH   4  31
BRANCH   5  33
HETATM   33  O8  UNK     1      37.133  -6.770  35.301  1.00  0.00    -0.360 OA
HETATM   34  H14 UNK     1      37.478  -6.634  36.200  1.00  0.00     0.217 HD
ENDBRANCH   5  33
BRANCH  14  35
HETATM   35  O10 UNK     1      27.699  -5.019  38.091  1.00  0.00    -0.358 OA
HETATM   36  H17 UNK     1      27.275  -5.084  37.219  1.00  0.00     0.217 HD
ENDBRANCH  14  35
BRANCH  15  37
HETATM   37  O11 UNK     1      29.415  -3.873  39.949  1.00  0.00    -0.358 OA
HETATM   38  H18 UNK     1      28.603  -4.321  40.240  1.00  0.00     0.217 HD
ENDBRANCH  15  37
TORSDOF 10
ENDMDL
MODEL 8
REMARK VINA RESULT:      -7.7     15.392     17.931
REMARK  10 active torsions:
REMARK  status: ('A' for Active; 'I' for Inactive)
REMARK    1  A    between atoms: C1_12  and  O2_2 
REMARK    2  A    between atoms: C2_13  and  O3_3 
REMARK    3  A    between atoms: C4_15  and  O4_4 
REMARK    4  A    between atoms: C7_18  and  O5_5 
REMARK    5  A    between atoms: C8_19  and  O6_6 
REMARK    6  A    between atoms: C9_20  and  O8_8 
REMARK    7  A    between atoms: C18_29  and  O10_10 
REMARK    8  A    between atoms: C19_30  and  O11_11 
REMARK    9  A    between atoms: C3_14  and  C6_17 
REMARK   10  A    between atoms: C5_16  and  C7_18 
ROOT
HETATM    1  O7  UNK     1      17.934   5.353  31.052  1.00  0.00    -0.309 OA
HETATM    2  O9  UNK     1      18.073   3.697  34.791  1.00  0.00    -0.286 OA
HETATM    3  C6  UNK     1      18.871   1.307  31.374  1.00  0.00     0.041 A 
HETATM    4  C8  UNK     1      18.621   2.030  32.541  1.00  0.00     0.094 A 
HETATM    5  C9  UNK     1      18.805   1.939  30.131  1.00  0.00     0.080 A 
HETATM    6  C10 UNK     1      18.304   3.388  32.455  1.00  0.00     0.083 A 
HETATM    7  C11 UNK     1      18.237   4.024  31.215  1.00  0.00     0.095 A 
HETATM    8  C12 UNK     1      18.489   3.295  30.051  1.00  0.00     0.075 A 
HETATM    9  C13 UNK     1      18.037   4.176  33.668  1.00  0.00     0.200 A 
HETATM   10  C14 UNK     1      17.712   5.597  33.473  1.00  0.00     0.052 A 
HETATM   11  C15 UNK     1      17.680   6.104  32.174  1.00  0.00     0.093 A 
HETATM   12  C16 UNK     1      17.441   6.425  34.565  1.00  0.00     0.057 A 
HETATM   13  C17 UNK     1      17.374   7.450  31.966  1.00  0.00     0.077 A 
HETATM   14  C18 UNK     1      17.135   7.769  34.351  1.00  0.00     0.099 A 
HETATM   15  C19 UNK     1      17.102   8.281  33.053  1.00  0.00     0.101 A 
ENDROOT
BRANCH   3  16
HETATM   16  C3  UNK     1      19.215  -0.168  31.450  1.00  0.00     0.192 C 
HETATM   17  C1  UNK     1      20.370  -0.547  30.501  1.00  0.00     0.183 C 
HETATM   18  C2  UNK     1      20.729  -2.030  30.638  1.00  0.00     0.181 C 
HETATM   19  C4  UNK     1      20.910  -2.409  32.115  1.00  0.00     0.180 C 
HETATM   20  C5  UNK     1      19.728  -1.939  32.970  1.00  0.00     0.177 C 
HETATM   21  O1  UNK     1      19.528  -0.532  32.801  1.00  0.00    -0.368 OA
BRANCH  17  22
HETATM   22  O2  UNK     1      21.524   0.229  30.830  1.00  0.00    -0.390 OA
HETATM   23  H8  UNK     1      21.230   1.049  31.261  1.00  0.00     0.210 HD
ENDBRANCH  17  22
BRANCH  18  24
HETATM   24  O3  UNK     1      19.715  -2.829  30.030  1.00  0.00    -0.390 OA
HETATM   25  H9  UNK     1      18.874  -2.349  30.121  1.00  0.00     0.210 HD
ENDBRANCH  18  24
BRANCH  19  26
HETATM   26  O4  UNK     1      21.076  -3.817  32.242  1.00  0.00    -0.390 OA
HETATM   27  H10 UNK     1      20.414  -4.133  32.880  1.00  0.00     0.210 HD
ENDBRANCH  19  26
BRANCH  20  28
HETATM   28  C7  UNK     1      19.973  -2.188  34.455  1.00  0.00     0.198 C 
BRANCH  28  29
HETATM   29  O5  UNK     1      21.367  -2.139  34.697  1.00  0.00    -0.398 OA
HETATM   30  H12 UNK     1      21.487  -1.952  35.643  1.00  0.00     0.209 HD
ENDBRANCH  28  29
ENDBRANCH  20  28
ENDBRANCH   3  16
BRANCH   4  31
HETATM   31  O6  UNK     1      18.693   1.382  33.738  1.00  0.00    -0.359 OA
HETATM   32  H13 UNK     1      19.182   0.550  33.651  1.00  0.00     0.217 HD
ENDBRANCH   4  31
BRANCH   5  33
HETATM   33  O8  UNK     1      19.044   1.245  28.982  1.00  0.00    -0.360 OA
HETATM   34  H14 UNK     1      19.810   1.636  28.528  1.00  0.00     0.217 HD
ENDBRANCH   5  33
BRANCH  14  35
HETATM   35  O10 UNK     1      16.872   8.574  35.418  1.00  0.00    -0.358 OA
HETATM   36  H17 UNK     1      15.936   8.835  35.395  1.00  0.00     0.217 HD
ENDBRANCH  14  35
BRANCH  15  37
HETATM   37  O11 UNK     1      16.805   9.593  32.836  1.00  0.00    -0.358 OA
HETATM   38  H18 UNK     1      16.293   9.659  32.012  1.00  0.00     0.217 HD
ENDBRANCH  15  37
TORSDOF 10
ENDMDL
MODEL 9
REMARK VINA RESULT:      -7.6     15.134     19.599
REMARK  10 active torsions:
REMARK  status: ('A' for Active; 'I' for Inactive)
REMARK    1  A    between atoms: C1_12  and  O2_2 
REMARK    2  A    between atoms: C2_13  and  O3_3 
REMARK    3  A    between atoms: C4_15  and  O4_4 
REMARK    4  A    between atoms: C7_18  and  O5_5 
REMARK    5  A    between atoms: C8_19  and  O6_6 
REMARK    6  A    between atoms: C9_20  and  O8_8 
REMARK    7  A    between atoms: C18_29  and  O10_10 
REMARK    8  A    between atoms: C19_30  and  O11_11 
REMARK    9  A    between atoms: C3_14  and  C6_17 
REMARK   10  A    between atoms: C5_16  and  C7_18 
ROOT
HETATM    1  O7  UNK     1      19.442   1.987  29.668  1.00  0.00    -0.309 OA
HETATM    2  O9  UNK     1      18.168   1.873  33.554  1.00  0.00    -0.286 OA
HETATM    3  C6  UNK     1      17.934   5.490  31.342  1.00  0.00     0.041 A 
HETATM    4  C8  UNK     1      17.980   4.339  32.129  1.00  0.00     0.094 A 
HETATM    5  C9  UNK     1      18.388   5.455  30.022  1.00  0.00     0.080 A 
HETATM    6  C10 UNK     1      18.483   3.153  31.587  1.00  0.00     0.083 A 
HETATM    7  C11 UNK     1      18.937   3.113  30.268  1.00  0.00     0.095 A 
HETATM    8  C12 UNK     1      18.888   4.269  29.486  1.00  0.00     0.075 A 
HETATM    9  C13 UNK     1      18.543   1.924  32.392  1.00  0.00     0.200 A 
HETATM   10  C14 UNK     1      19.089   0.729  31.731  1.00  0.00     0.052 A 
HETATM   11  C15 UNK     1      19.507   0.830  30.404  1.00  0.00     0.093 A 
HETATM   12  C16 UNK     1      19.187  -0.485  32.416  1.00  0.00     0.057 A 
HETATM   13  C17 UNK     1      20.028  -0.293  29.758  1.00  0.00     0.077 A 
HETATM   14  C18 UNK     1      19.709  -1.603  31.765  1.00  0.00     0.099 A 
HETATM   15  C19 UNK     1      20.129  -1.507  30.437  1.00  0.00     0.101 A 
ENDROOT
BRANCH   3  16
HETATM   16  C3  UNK     1      17.393   6.785  31.917  1.00  0.00     0.192 C 
HETATM   17  C1  UNK     1      15.871   6.923  31.709  1.00  0.00     0.183 C 
HETATM   18  C2  UNK     1      15.345   8.214  32.345  1.00  0.00     0.181 C 
HETATM   19  C4  UNK     1      15.850   8.352  33.788  1.00  0.00     0.180 C 
HETATM   20  C5  UNK     1      17.367   8.146  33.880  1.00  0.00     0.177 C 
HETATM   21  O1  UNK     1      17.727   6.885  33.307  1.00  0.00    -0.368 OA
BRANCH  17  22
HETATM   22  O2  UNK     1      15.209   5.816  32.325  1.00  0.00    -0.390 OA
HETATM   23  H8  UNK     1      14.276   5.827  32.052  1.00  0.00     0.210 HD
ENDBRANCH  17  22
BRANCH  18  24
HETATM   24  O3  UNK     1      15.744   9.335  31.558  1.00  0.00    -0.390 OA
HETATM   25  H9  UNK     1      14.958   9.646  31.076  1.00  0.00     0.210 HD
ENDBRANCH  18  24
BRANCH  19  26
HETATM   26  O4  UNK     1      15.497   9.628  34.310  1.00  0.00    -0.390 OA
HETATM   27  H10 UNK     1      15.948  10.300  33.771  1.00  0.00     0.210 HD
ENDBRANCH  19  26
BRANCH  20  28
HETATM   28  C7  UNK     1      17.848   8.142  35.328  1.00  0.00     0.198 C 
BRANCH  28  29
HETATM   29  O5  UNK     1      16.779   7.721  36.157  1.00  0.00    -0.398 OA
HETATM   30  H12 UNK     1      16.061   7.429  35.571  1.00  0.00     0.209 HD
ENDBRANCH  28  29
ENDBRANCH  20  28
ENDBRANCH   3  16
BRANCH   4  31
HETATM   31  O6  UNK     1      17.531   4.409  33.415  1.00  0.00    -0.359 OA
HETATM   32  H13 UNK     1      16.712   3.901  33.521  1.00  0.00     0.217 HD
ENDBRANCH   4  31
BRANCH   5  33
HETATM   33  O8  UNK     1      18.352   6.572  29.243  1.00  0.00    -0.360 OA
HETATM   34  H14 UNK     1      17.481   6.996  29.336  1.00  0.00     0.217 HD
ENDBRANCH   5  33
BRANCH  14  35
HETATM   35  O10 UNK     1      19.803  -2.784  32.436  1.00  0.00    -0.358 OA
HETATM   36  H17 UNK     1      20.448  -3.355  31.985  1.00  0.00     0.217 HD
ENDBRANCH  14  35
BRANCH  15  37
HETATM   37  O11 UNK     1      20.639  -2.594  29.794  1.00  0.00    -0.358 OA
HETATM   38  H18 UNK     1      20.944  -3.230  30.463  1.00  0.00     0.217 HD
ENDBRANCH  15  37
TORSDOF 10
ENDMDL
MODEL 10
REMARK VINA RESULT:      -7.6     14.074     20.123
REMARK  10 active torsions:
REMARK  status: ('A' for Active; 'I' for Inactive)
REMARK    1  A    between atoms: C1_12  and  O2_2 
REMARK    2  A    between atoms: C2_13  and  O3_3 
REMARK    3  A    between atoms: C4_15  and  O4_4 
REMARK    4  A    between atoms: C7_18  and  O5_5 
REMARK    5  A    between atoms: C8_19  and  O6_6 
REMARK    6  A    between atoms: C9_20  and  O8_8 
REMARK    7  A    between atoms: C18_29  and  O10_10 
REMARK    8  A    between atoms: C19_30  and  O11_11 
REMARK    9  A    between atoms: C3_14  and  C6_17 
REMARK   10  A    between atoms: C5_16  and  C7_18 
ROOT
HETATM    1  O7  UNK     1      18.832   1.758  32.461  1.00  0.00    -0.309 OA
HETATM    2  O9  UNK     1      18.490   3.664  28.856  1.00  0.00    -0.286 OA
HETATM    3  C6  UNK     1      17.799   5.793  32.464  1.00  0.00     0.041 A 
HETATM    4  C8  UNK     1      18.011   5.159  31.240  1.00  0.00     0.094 A 
HETATM    5  C9  UNK     1      17.933   5.079  33.656  1.00  0.00     0.080 A 
HETATM    6  C10 UNK     1      18.358   3.805  31.216  1.00  0.00     0.083 A 
HETATM    7  C11 UNK     1      18.493   3.088  32.405  1.00  0.00     0.095 A 
HETATM    8  C12 UNK     1      18.279   3.728  33.627  1.00  0.00     0.075 A 
HETATM    9  C13 UNK     1      18.589   3.110  29.941  1.00  0.00     0.200 A 
HETATM   10  C14 UNK     1      18.949   1.686  30.022  1.00  0.00     0.052 A 
HETATM   11  C15 UNK     1      19.050   1.092  31.280  1.00  0.00     0.093 A 
HETATM   12  C16 UNK     1      19.186   0.942  28.863  1.00  0.00     0.057 A 
HETATM   13  C17 UNK     1      19.391  -0.258  31.379  1.00  0.00     0.077 A 
HETATM   14  C18 UNK     1      19.525  -0.407  28.970  1.00  0.00     0.099 A 
HETATM   15  C19 UNK     1      19.628  -1.006  30.226  1.00  0.00     0.101 A 
ENDROOT
BRANCH   3  16
HETATM   16  C3  UNK     1      17.421   7.261  32.506  1.00  0.00     0.192 C 
HETATM   17  C1  UNK     1      15.931   7.470  32.845  1.00  0.00     0.183 C 
HETATM   18  C2  UNK     1      15.591   8.962  32.932  1.00  0.00     0.181 C 
HETATM   19  C4  UNK     1      16.601   9.696  33.825  1.00  0.00     0.180 C 
HETATM   20  C5  UNK     1      18.047   9.374  33.429  1.00  0.00     0.177 C 
HETATM   21  O1  UNK     1      18.256   7.959  33.439  1.00  0.00    -0.368 OA
BRANCH  17  22
HETATM   22  O2  UNK     1      15.646   6.869  34.110  1.00  0.00    -0.390 OA
HETATM   23  H8  UNK     1      16.472   6.825  34.621  1.00  0.00     0.210 HD
ENDBRANCH  17  22
BRANCH  18  24
HETATM   24  O3  UNK     1      15.567   9.527  31.622  1.00  0.00    -0.390 OA
HETATM   25  H9  UNK     1      15.167  10.410  31.694  1.00  0.00     0.210 HD
ENDBRANCH  18  24
BRANCH  19  26
HETATM   26  O4  UNK     1      16.378  11.100  33.764  1.00  0.00    -0.390 OA
HETATM   27  H10 UNK     1      16.491  11.454  34.663  1.00  0.00     0.210 HD
ENDBRANCH  19  26
BRANCH  20  28
HETATM   28  C7  UNK     1      19.048   9.989  34.403  1.00  0.00     0.198 C 
BRANCH  28  29
HETATM   29  O5  UNK     1      19.293  11.328  34.012  1.00  0.00    -0.398 OA
HETATM   30  H12 UNK     1      19.769  11.295  33.165  1.00  0.00     0.209 HD
ENDBRANCH  28  29
ENDBRANCH  20  28
ENDBRANCH   3  16
BRANCH   4  31
HETATM   31  O6  UNK     1      17.870   5.885  30.095  1.00  0.00    -0.359 OA
HETATM   32  H13 UNK     1      17.801   6.832  30.293  1.00  0.00     0.217 HD
ENDBRANCH   4  31
BRANCH   5  33
HETATM   33  O8  UNK     1      17.725   5.685  34.859  1.00  0.00    -0.360 OA
HETATM   34  H14 UNK     1      17.895   5.044  35.571  1.00  0.00     0.217 HD
ENDBRANCH   5  33
BRANCH  14  35
HETATM   35  O10 UNK     1      19.756  -1.130  27.838  1.00  0.00    -0.358 OA
HETATM   36  H17 UNK     1      19.189  -1.920  27.846  1.00  0.00     0.217 HD
ENDBRANCH  14  35
BRANCH  15  37
HETATM   37  O11 UNK     1      19.960  -2.323  30.338  1.00  0.00    -0.358 OA
HETATM   38  H18 UNK     1      20.605  -2.536  29.642  1.00  0.00     0.217 HD
ENDBRANCH  15  37
TORSDOF 10
ENDMDL
