MODEL 1
REMARK VINA RESULT:      -7.0      0.000      0.000
REMARK  6 active torsions:
REMARK  status: ('A' for Active; 'I' for Inactive)
REMARK    1  A    between atoms: C1_4  and  N1_3 
REMARK       I    between atoms: C8_11  and  N1_3 
REMARK    2  A    between atoms: C1_4  and  C2_5 
REMARK    3  A    between atoms: C1_4  and  C3_6 
REMARK    4  A    between atoms: C8_11  and  C9_12 
REMARK    5  A    between atoms: C10_13  and  C9_12 
REMARK    6  A    between atoms: C11_14  and  C12_15 
ROOT
HETATM    1  C9  UNK     1      13.274   8.402   9.775  1.00  0.00     0.043 C 
HETATM    2  C11 UNK     1      14.346   8.403   8.956  1.00  0.00     0.031 C 
ENDROOT
BRANCH   1   3
HETATM    3  C10 UNK     1      13.053   9.460  10.778  1.00  0.00    -0.021 A 
HETATM    4  C13 UNK     1      13.717   9.391  11.992  1.00  0.00     0.012 A 
HETATM    5  C15 UNK     1      13.507  10.391  12.941  1.00  0.00     0.001 A 
HETATM    6  C19 UNK     1      12.638  11.446  12.663  1.00  0.00     0.000 A 
HETATM    7  C16 UNK     1      11.977  11.500  11.434  1.00  0.00     0.001 A 
HETATM    8  C14 UNK     1      12.187  10.500  10.486  1.00  0.00     0.012 A 
ENDBRANCH   1   3
BRANCH   1   9
HETATM    9  C8  UNK     1      12.324   7.240   9.622  1.00  0.00     0.252 C 
HETATM   10  O1  UNK     1      12.452   6.210  10.281  1.00  0.00    -0.268 OA
HETATM   11  N1  UNK     1      11.329   7.445   8.684  1.00  0.00    -0.352 N 
HETATM   12  H4  UNK     1      11.279   8.309   8.156  1.00  0.00     0.163 HD
BRANCH  11  13
HETATM   13  C1  UNK     1      10.327   6.438   8.390  1.00  0.00     0.091 C 
BRANCH  13  14
HETATM   14  C2  UNK     1      10.478   5.947   6.925  1.00  0.00     0.001 C 
HETATM   15  C4  UNK     1       9.279   6.382   6.069  1.00  0.00     0.011 C 
HETATM   16  C5  UNK     1      11.762   6.455   6.261  1.00  0.00     0.011 C 
ENDBRANCH  13  14
BRANCH  13  17
HETATM   17  C3  UNK     1       8.909   6.947   8.773  1.00  0.00     0.001 C 
HETATM   18  C6  UNK     1       8.909   8.321   9.448  1.00  0.00     0.011 C 
HETATM   19  C7  UNK     1       8.173   5.935   9.661  1.00  0.00     0.011 C 
ENDBRANCH  13  17
ENDBRANCH  11  13
ENDBRANCH   1   9
BRANCH   2  20
HETATM   20  C12 UNK     1      15.419   9.408   8.944  1.00  0.00    -0.013 A 
HETATM   21  C17 UNK     1      16.578   9.250   9.690  1.00  0.00     0.044 A 
HETATM   22 Cl1  UNK     1      16.854   7.863  10.688  1.00  0.00    -0.083 Cl
HETATM   23  C20 UNK     1      17.566  10.234   9.646  1.00  0.00     0.024 A 
HETATM   24  C22 UNK     1      17.385  11.368   8.855  1.00  0.00     0.002 A 
HETATM   25  C21 UNK     1      16.216  11.519   8.109  1.00  0.00     0.001 A 
HETATM   26  C18 UNK     1      15.228  10.535   8.153  1.00  0.00     0.013 A 
ENDBRANCH   2  20
TORSDOF 6
ENDMDL
MODEL 2
REMARK VINA RESULT:      -6.9     32.337     34.442
REMARK  6 active torsions:
REMARK  status: ('A' for Active; 'I' for Inactive)
REMARK    1  A    between atoms: C1_4  and  N1_3 
REMARK       I    between atoms: C8_11  and  N1_3 
REMARK    2  A    between atoms: C1_4  and  C2_5 
REMARK    3  A    between atoms: C1_4  and  C3_6 
REMARK    4  A    between atoms: C8_11  and  C9_12 
REMARK    5  A    between atoms: C10_13  and  C9_12 
REMARK    6  A    between atoms: C11_14  and  C12_15 
ROOT
HETATM    1  C9  UNK     1      29.124  -7.178  34.173  1.00  0.00     0.043 C 
HETATM    2  C11 UNK     1      28.303  -7.120  33.104  1.00  0.00     0.031 C 
ENDROOT
BRANCH   1   3
HETATM    3  C10 UNK     1      30.520  -7.644  34.065  1.00  0.00    -0.021 A 
HETATM    4  C13 UNK     1      31.499  -6.756  33.650  1.00  0.00     0.012 A 
HETATM    5  C15 UNK     1      32.818  -7.196  33.548  1.00  0.00     0.001 A 
HETATM    6  C19 UNK     1      33.140  -8.517  33.862  1.00  0.00     0.000 A 
HETATM    7  C16 UNK     1      32.141  -9.398  34.278  1.00  0.00     0.001 A 
HETATM    8  C14 UNK     1      30.821  -8.958  34.380  1.00  0.00     0.012 A 
ENDBRANCH   1   3
BRANCH   1   9
HETATM    9  C8  UNK     1      28.524  -6.761  35.493  1.00  0.00     0.252 C 
HETATM   10  O1  UNK     1      27.345  -6.980  35.764  1.00  0.00    -0.268 OA
HETATM   11  N1  UNK     1      29.411  -6.119  36.337  1.00  0.00    -0.352 N 
HETATM   12  H4  UNK     1      30.370  -5.949  36.057  1.00  0.00     0.163 HD
BRANCH  11  13
HETATM   13  C1  UNK     1      29.015  -5.635  37.646  1.00  0.00     0.091 C 
BRANCH  13  14
HETATM   14  C2  UNK     1      29.621  -4.228  37.901  1.00  0.00     0.001 C 
HETATM   15  C4  UNK     1      29.662  -3.907  39.403  1.00  0.00     0.011 C 
HETATM   16  C5  UNK     1      31.037  -4.084  37.333  1.00  0.00     0.011 C 
ENDBRANCH  13  14
BRANCH  13  17
HETATM   17  C3  UNK     1      29.326  -6.695  38.740  1.00  0.00     0.001 C 
HETATM   18  C6  UNK     1      30.311  -7.776  38.287  1.00  0.00     0.011 C 
HETATM   19  C7  UNK     1      28.041  -7.353  39.262  1.00  0.00     0.011 C 
ENDBRANCH  13  17
ENDBRANCH  11  13
ENDBRANCH   1   9
BRANCH   2  20
HETATM   20  C12 UNK     1      28.654  -7.506  31.729  1.00  0.00    -0.013 A 
HETATM   21  C17 UNK     1      29.195  -6.598  30.830  1.00  0.00     0.044 A 
HETATM   22 Cl1  UNK     1      29.500  -4.948  31.253  1.00  0.00    -0.083 Cl
HETATM   23  C20 UNK     1      29.510  -7.013  29.536  1.00  0.00     0.024 A 
HETATM   24  C22 UNK     1      29.280  -8.333  29.152  1.00  0.00     0.002 A 
HETATM   25  C21 UNK     1      28.735  -9.239  30.063  1.00  0.00     0.001 A 
HETATM   26  C18 UNK     1      28.420  -8.824  31.357  1.00  0.00     0.013 A 
ENDBRANCH   2  20
TORSDOF 6
ENDMDL
MODEL 3
REMARK VINA RESULT:      -6.9     22.592     25.173
REMARK  6 active torsions:
REMARK  status: ('A' for Active; 'I' for Inactive)
REMARK    1  A    between atoms: C1_4  and  N1_3 
REMARK       I    between atoms: C8_11  and  N1_3 
REMARK    2  A    between atoms: C1_4  and  C2_5 
REMARK    3  A    between atoms: C1_4  and  C3_6 
REMARK    4  A    between atoms: C8_11  and  C9_12 
REMARK    5  A    between atoms: C10_13  and  C9_12 
REMARK    6  A    between atoms: C11_14  and  C12_15 
ROOT
HETATM    1  C9  UNK     1      18.312   4.658  33.662  1.00  0.00     0.043 C 
HETATM    2  C11 UNK     1      17.452   5.477  34.303  1.00  0.00     0.031 C 
ENDROOT
BRANCH   1   3
HETATM    3  C10 UNK     1      18.966   5.044  32.397  1.00  0.00    -0.021 A 
HETATM    4  C13 UNK     1      20.123   5.805  32.439  1.00  0.00     0.012 A 
HETATM    5  C15 UNK     1      20.741   6.170  31.243  1.00  0.00     0.001 A 
HETATM    6  C19 UNK     1      20.195   5.769  30.024  1.00  0.00     0.000 A 
HETATM    7  C16 UNK     1      19.028   5.003  30.000  1.00  0.00     0.001 A 
HETATM    8  C14 UNK     1      18.410   4.638  31.196  1.00  0.00     0.012 A 
ENDBRANCH   1   3
BRANCH   1   9
HETATM    9  C8  UNK     1      18.548   3.313  34.302  1.00  0.00     0.252 C 
HETATM   10  O1  UNK     1      19.263   3.187  35.294  1.00  0.00    -0.268 OA
HETATM   11  N1  UNK     1      17.904   2.267  33.669  1.00  0.00    -0.352 N 
HETATM   12  H4  UNK     1      17.338   2.424  32.843  1.00  0.00     0.163 HD
BRANCH  11  13
HETATM   13  C1  UNK     1      18.019   0.897  34.133  1.00  0.00     0.091 C 
BRANCH  13  14
HETATM   14  C2  UNK     1      18.317  -0.048  32.938  1.00  0.00     0.001 C 
HETATM   15  C4  UNK     1      18.975   0.716  31.778  1.00  0.00     0.011 C 
HETATM   16  C5  UNK     1      19.223  -1.221  33.325  1.00  0.00     0.011 C 
ENDBRANCH  13  14
BRANCH  13  17
HETATM   17  C3  UNK     1      16.785   0.503  34.994  1.00  0.00     0.001 C 
HETATM   18  C6  UNK     1      17.008   0.669  36.499  1.00  0.00     0.011 C 
HETATM   19  C7  UNK     1      16.330  -0.931  34.694  1.00  0.00     0.011 C 
ENDBRANCH  13  17
ENDBRANCH  11  13
ENDBRANCH   1   9
BRANCH   2  20
HETATM   20  C12 UNK     1      17.043   6.816  33.854  1.00  0.00    -0.013 A 
HETATM   21  C17 UNK     1      17.748   7.956  34.215  1.00  0.00     0.044 A 
HETATM   22 Cl1  UNK     1      19.158   7.892  35.216  1.00  0.00    -0.083 Cl
HETATM   23  C20 UNK     1      17.319   9.204  33.763  1.00  0.00     0.024 A 
HETATM   24  C22 UNK     1      16.187   9.301  32.954  1.00  0.00     0.002 A 
HETATM   25  C21 UNK     1      15.484   8.150  32.597  1.00  0.00     0.001 A 
HETATM   26  C18 UNK     1      15.914   6.902  33.049  1.00  0.00     0.013 A 
ENDBRANCH   2  20
TORSDOF 6
ENDMDL
MODEL 4
REMARK VINA RESULT:      -6.9     32.286     34.181
REMARK  6 active torsions:
REMARK  status: ('A' for Active; 'I' for Inactive)
REMARK    1  A    between atoms: C1_4  and  N1_3 
REMARK       I    between atoms: C8_11  and  N1_3 
REMARK    2  A    between atoms: C1_4  and  C2_5 
REMARK    3  A    between atoms: C1_4  and  C3_6 
REMARK    4  A    between atoms: C8_11  and  C9_12 
REMARK    5  A    between atoms: C10_13  and  C9_12 
REMARK    6  A    between atoms: C11_14  and  C12_15 
ROOT
HETATM    1  C9  UNK     1      30.970  -6.319  33.720  1.00  0.00     0.043 C 
HETATM    2  C11 UNK     1      30.310  -7.094  34.604  1.00  0.00     0.031 C 
ENDROOT
BRANCH   1   3
HETATM    3  C10 UNK     1      32.323  -5.796  33.993  1.00  0.00    -0.021 A 
HETATM    4  C13 UNK     1      33.426  -6.546  33.621  1.00  0.00     0.012 A 
HETATM    5  C15 UNK     1      34.704  -6.051  33.880  1.00  0.00     0.001 A 
HETATM    6  C19 UNK     1      34.861  -4.814  34.506  1.00  0.00     0.000 A 
HETATM    7  C16 UNK     1      33.737  -4.072  34.874  1.00  0.00     0.001 A 
HETATM    8  C14 UNK     1      32.459  -4.567  34.616  1.00  0.00     0.012 A 
ENDBRANCH   1   3
BRANCH   1   9
HETATM    9  C8  UNK     1      30.236  -5.998  32.442  1.00  0.00     0.252 C 
HETATM   10  O1  UNK     1      29.673  -4.917  32.274  1.00  0.00    -0.268 OA
HETATM   11  N1  UNK     1      30.255  -7.018  31.509  1.00  0.00    -0.352 N 
HETATM   12  H4  UNK     1      30.721  -7.897  31.705  1.00  0.00     0.163 HD
BRANCH  11  13
HETATM   13  C1  UNK     1      29.595  -6.899  30.223  1.00  0.00     0.091 C 
BRANCH  13  14
HETATM   14  C2  UNK     1      28.281  -7.728  30.218  1.00  0.00     0.001 C 
HETATM   15  C4  UNK     1      28.280  -8.771  31.346  1.00  0.00     0.011 C 
HETATM   16  C5  UNK     1      27.031  -6.853  30.361  1.00  0.00     0.011 C 
ENDBRANCH  13  14
BRANCH  13  17
HETATM   17  C3  UNK     1      30.582  -7.221  29.067  1.00  0.00     0.001 C 
HETATM   18  C6  UNK     1      30.413  -8.628  28.487  1.00  0.00     0.011 C 
HETATM   19  C7  UNK     1      32.039  -7.013  29.502  1.00  0.00     0.011 C 
ENDBRANCH  13  17
ENDBRANCH  11  13
ENDBRANCH   1   9
BRANCH   2  20
HETATM   20  C12 UNK     1      30.808  -7.510  35.924  1.00  0.00    -0.013 A 
HETATM   21  C17 UNK     1      30.640  -6.719  37.052  1.00  0.00     0.044 A 
HETATM   22 Cl1  UNK     1      29.834  -5.188  36.996  1.00  0.00    -0.083 Cl
HETATM   23  C20 UNK     1      31.131  -7.158  38.281  1.00  0.00     0.024 A 
HETATM   24  C22 UNK     1      31.787  -8.385  38.371  1.00  0.00     0.002 A 
HETATM   25  C21 UNK     1      31.952  -9.173  37.232  1.00  0.00     0.001 A 
HETATM   26  C18 UNK     1      31.461  -8.734  36.003  1.00  0.00     0.013 A 
ENDBRANCH   2  20
TORSDOF 6
ENDMDL
MODEL 5
REMARK VINA RESULT:      -6.8     32.309     34.364
REMARK  6 active torsions:
REMARK  status: ('A' for Active; 'I' for Inactive)
REMARK    1  A    between atoms: C1_4  and  N1_3 
REMARK       I    between atoms: C8_11  and  N1_3 
REMARK    2  A    between atoms: C1_4  and  C2_5 
REMARK    3  A    between atoms: C1_4  and  C3_6 
REMARK    4  A    between atoms: C8_11  and  C9_12 
REMARK    5  A    between atoms: C10_13  and  C9_12 
REMARK    6  A    between atoms: C11_14  and  C12_15 
ROOT
HETATM    1  C9  UNK     1      29.411  -7.208  33.969  1.00  0.00     0.043 C 
HETATM    2  C11 UNK     1      30.526  -7.955  34.112  1.00  0.00     0.031 C 
ENDROOT
BRANCH   1   3
HETATM    3  C10 UNK     1      28.880  -6.839  32.642  1.00  0.00    -0.021 A 
HETATM    4  C13 UNK     1      29.350  -5.695  32.020  1.00  0.00     0.012 A 
HETATM    5  C15 UNK     1      28.847  -5.346  30.767  1.00  0.00     0.001 A 
HETATM    6  C19 UNK     1      27.882  -6.145  30.154  1.00  0.00     0.000 A 
HETATM    7  C16 UNK     1      27.420  -7.295  30.796  1.00  0.00     0.001 A 
HETATM    8  C14 UNK     1      27.922  -7.644  32.049  1.00  0.00     0.012 A 
ENDBRANCH   1   3
BRANCH   1   9
HETATM    9  C8  UNK     1      28.751  -6.750  35.245  1.00  0.00     0.252 C 
HETATM   10  O1  UNK     1      27.532  -6.800  35.396  1.00  0.00    -0.268 OA
HETATM   11  N1  UNK     1      29.634  -6.275  36.197  1.00  0.00    -0.352 N 
HETATM   12  H4  UNK     1      30.631  -6.241  36.015  1.00  0.00     0.163 HD
BRANCH  11  13
HETATM   13  C1  UNK     1      29.186  -5.781  37.485  1.00  0.00     0.091 C 
BRANCH  13  14
HETATM   14  C2  UNK     1      29.768  -4.365  37.746  1.00  0.00     0.001 C 
HETATM   15  C4  UNK     1      29.657  -3.986  39.231  1.00  0.00     0.011 C 
HETATM   16  C5  UNK     1      31.234  -4.242  37.320  1.00  0.00     0.011 C 
ENDBRANCH  13  14
BRANCH  13  17
HETATM   17  C3  UNK     1      29.467  -6.826  38.602  1.00  0.00     0.001 C 
HETATM   18  C6  UNK     1      30.441  -7.929  38.180  1.00  0.00     0.011 C 
HETATM   19  C7  UNK     1      28.166  -7.455  39.119  1.00  0.00     0.011 C 
ENDBRANCH  13  17
ENDBRANCH  11  13
ENDBRANCH   1   9
BRANCH   2  20
HETATM   20  C12 UNK     1      31.353  -8.484  33.017  1.00  0.00    -0.013 A 
HETATM   21  C17 UNK     1      31.069  -9.697  32.406  1.00  0.00     0.044 A 
HETATM   22 Cl1  UNK     1      29.725 -10.679  32.879  1.00  0.00    -0.083 Cl
HETATM   23  C20 UNK     1      31.885 -10.156  31.372  1.00  0.00     0.024 A 
HETATM   24  C22 UNK     1      32.979  -9.396  30.959  1.00  0.00     0.002 A 
HETATM   25  C21 UNK     1      33.257  -8.178  31.580  1.00  0.00     0.001 A 
HETATM   26  C18 UNK     1      32.441  -7.720  32.614  1.00  0.00     0.013 A 
ENDBRANCH   2  20
TORSDOF 6
ENDMDL
MODEL 6
REMARK VINA RESULT:      -6.8     33.418     35.382
REMARK  6 active torsions:
REMARK  status: ('A' for Active; 'I' for Inactive)
REMARK    1  A    between atoms: C1_4  and  N1_3 
REMARK       I    between atoms: C8_11  and  N1_3 
REMARK    2  A    between atoms: C1_4  and  C2_5 
REMARK    3  A    between atoms: C1_4  and  C3_6 
REMARK    4  A    between atoms: C8_11  and  C9_12 
REMARK    5  A    between atoms: C10_13  and  C9_12 
REMARK    6  A    between atoms: C11_14  and  C12_15 
ROOT
HETATM    1  C9  UNK     1      29.681  -7.595  36.091  1.00  0.00     0.043 C 
HETATM    2  C11 UNK     1      29.084  -8.774  36.358  1.00  0.00     0.031 C 
ENDROOT
BRANCH   1   3
HETATM    3  C10 UNK     1      29.829  -6.541  37.113  1.00  0.00    -0.021 A 
HETATM    4  C13 UNK     1      28.723  -5.788  37.473  1.00  0.00     0.012 A 
HETATM    5  C15 UNK     1      28.863  -4.793  38.439  1.00  0.00     0.001 A 
HETATM    6  C19 UNK     1      30.105  -4.564  39.032  1.00  0.00     0.000 A 
HETATM    7  C16 UNK     1      31.208  -5.332  38.657  1.00  0.00     0.001 A 
HETATM    8  C14 UNK     1      31.069  -6.328  37.691  1.00  0.00     0.012 A 
ENDBRANCH   1   3
BRANCH   1   9
HETATM    9  C8  UNK     1      30.170  -7.404  34.676  1.00  0.00     0.252 C 
HETATM   10  O1  UNK     1      31.321  -7.046  34.433  1.00  0.00    -0.268 OA
HETATM   11  N1  UNK     1      29.214  -7.657  33.711  1.00  0.00    -0.352 N 
HETATM   12  H4  UNK     1      28.273  -7.934  33.967  1.00  0.00     0.163 HD
BRANCH  11  13
HETATM   13  C1  UNK     1      29.493  -7.518  32.294  1.00  0.00     0.091 C 
BRANCH  13  14
HETATM   14  C2  UNK     1      28.682  -6.333  31.703  1.00  0.00     0.001 C 
HETATM   15  C4  UNK     1      27.576  -5.883  32.670  1.00  0.00     0.011 C 
HETATM   16  C5  UNK     1      29.562  -5.124  31.371  1.00  0.00     0.011 C 
ENDBRANCH  13  14
BRANCH  13  17
HETATM   17  C3  UNK     1      29.305  -8.877  31.562  1.00  0.00     0.001 C 
HETATM   18  C6  UNK     1      28.171  -8.869  30.533  1.00  0.00     0.011 C 
HETATM   19  C7  UNK     1      29.092 -10.024  32.558  1.00  0.00     0.011 C 
ENDBRANCH  13  17
ENDBRANCH  11  13
ENDBRANCH   1   9
BRANCH   2  20
HETATM   20  C12 UNK     1      28.503  -9.172  37.649  1.00  0.00    -0.013 A 
HETATM   21  C17 UNK     1      29.272  -9.744  38.652  1.00  0.00     0.044 A 
HETATM   22 Cl1  UNK     1      30.968 -10.034  38.466  1.00  0.00    -0.083 Cl
HETATM   23  C20 UNK     1      28.673 -10.104  39.859  1.00  0.00     0.024 A 
HETATM   24  C22 UNK     1      27.309  -9.889  40.052  1.00  0.00     0.002 A 
HETATM   25  C21 UNK     1      26.544  -9.313  39.037  1.00  0.00     0.001 A 
HETATM   26  C18 UNK     1      27.143  -8.953  37.830  1.00  0.00     0.013 A 
ENDBRANCH   2  20
TORSDOF 6
ENDMDL
MODEL 7
REMARK VINA RESULT:      -6.8     32.469     34.628
REMARK  6 active torsions:
REMARK  status: ('A' for Active; 'I' for Inactive)
REMARK    1  A    between atoms: C1_4  and  N1_3 
REMARK       I    between atoms: C8_11  and  N1_3 
REMARK    2  A    between atoms: C1_4  and  C2_5 
REMARK    3  A    between atoms: C1_4  and  C3_6 
REMARK    4  A    between atoms: C8_11  and  C9_12 
REMARK    5  A    between atoms: C10_13  and  C9_12 
REMARK    6  A    between atoms: C11_14  and  C12_15 
ROOT
HETATM    1  C9  UNK     1      30.217  -6.663  33.964  1.00  0.00     0.043 C 
HETATM    2  C11 UNK     1      30.049  -6.404  32.651  1.00  0.00     0.031 C 
ENDROOT
BRANCH   1   3
HETATM    3  C10 UNK     1      29.354  -7.614  34.692  1.00  0.00    -0.021 A 
HETATM    4  C13 UNK     1      28.277  -7.131  35.416  1.00  0.00     0.012 A 
HETATM    5  C15 UNK     1      27.462  -8.030  36.104  1.00  0.00     0.001 A 
HETATM    6  C19 UNK     1      27.736  -9.397  36.059  1.00  0.00     0.000 A 
HETATM    7  C16 UNK     1      28.826  -9.865  35.324  1.00  0.00     0.001 A 
HETATM    8  C14 UNK     1      29.641  -8.967  34.636  1.00  0.00     0.012 A 
ENDBRANCH   1   3
BRANCH   1   9
HETATM    9  C8  UNK     1      31.325  -5.907  34.653  1.00  0.00     0.252 C 
HETATM   10  O1  UNK     1      32.158  -5.262  34.018  1.00  0.00    -0.268 OA
HETATM   11  N1  UNK     1      31.311  -6.018  36.030  1.00  0.00    -0.352 N 
HETATM   12  H4  UNK     1      30.610  -6.576  36.503  1.00  0.00     0.163 HD
BRANCH  11  13
HETATM   13  C1  UNK     1      32.304  -5.368  36.866  1.00  0.00     0.091 C 
BRANCH  13  14
HETATM   14  C2  UNK     1      32.846  -6.366  37.926  1.00  0.00     0.001 C 
HETATM   15  C4  UNK     1      31.809  -7.455  38.241  1.00  0.00     0.011 C 
HETATM   16  C5  UNK     1      34.147  -7.045  37.486  1.00  0.00     0.011 C 
ENDBRANCH  13  14
BRANCH  13  17
HETATM   17  C3  UNK     1      31.750  -4.034  37.439  1.00  0.00     0.001 C 
HETATM   18  C6  UNK     1      30.244  -4.059  37.712  1.00  0.00     0.011 C 
HETATM   19  C7  UNK     1      32.089  -2.849  36.524  1.00  0.00     0.011 C 
ENDBRANCH  13  17
ENDBRANCH  11  13
ENDBRANCH   1   9
BRANCH   2  20
HETATM   20  C12 UNK     1      29.019  -6.993  31.782  1.00  0.00    -0.013 A 
HETATM   21  C17 UNK     1      29.244  -8.160  31.067  1.00  0.00     0.044 A 
HETATM   22 Cl1  UNK     1      30.748  -9.013  31.141  1.00  0.00    -0.083 Cl
HETATM   23  C20 UNK     1      28.234  -8.679  30.257  1.00  0.00     0.024 A 
HETATM   24  C22 UNK     1      27.007  -8.023  30.168  1.00  0.00     0.002 A 
HETATM   25  C21 UNK     1      26.789  -6.849  30.890  1.00  0.00     0.001 A 
HETATM   26  C18 UNK     1      27.799  -6.331  31.701  1.00  0.00     0.013 A 
ENDBRANCH   2  20
TORSDOF 6
ENDMDL
MODEL 8
REMARK VINA RESULT:      -6.8     32.610     34.543
REMARK  6 active torsions:
REMARK  status: ('A' for Active; 'I' for Inactive)
REMARK    1  A    between atoms: C1_4  and  N1_3 
REMARK       I    between atoms: C8_11  and  N1_3 
REMARK    2  A    between atoms: C1_4  and  C2_5 
REMARK    3  A    between atoms: C1_4  and  C3_6 
REMARK    4  A    between atoms: C8_11  and  C9_12 
REMARK    5  A    between atoms: C10_13  and  C9_12 
REMARK    6  A    between atoms: C11_14  and  C12_15 
ROOT
HETATM    1  C9  UNK     1      31.037  -6.694  34.817  1.00  0.00     0.043 C 
HETATM    2  C11 UNK     1      29.870  -6.368  35.410  1.00  0.00     0.031 C 
ENDROOT
BRANCH   1   3
HETATM    3  C10 UNK     1      32.335  -6.533  35.499  1.00  0.00    -0.021 A 
HETATM    4  C13 UNK     1      33.141  -5.454  35.175  1.00  0.00     0.012 A 
HETATM    5  C15 UNK     1      34.368  -5.303  35.820  1.00  0.00     0.001 A 
HETATM    6  C19 UNK     1      34.772  -6.232  36.779  1.00  0.00     0.000 A 
HETATM    7  C16 UNK     1      33.948  -7.314  37.092  1.00  0.00     0.001 A 
HETATM    8  C14 UNK     1      32.721  -7.465  36.447  1.00  0.00     0.012 A 
ENDBRANCH   1   3
BRANCH   1   9
HETATM    9  C8  UNK     1      30.940  -7.211  33.403  1.00  0.00     0.252 C 
HETATM   10  O1  UNK     1      31.831  -7.894  32.903  1.00  0.00    -0.268 OA
HETATM   11  N1  UNK     1      29.783  -6.839  32.745  1.00  0.00    -0.352 N 
HETATM   12  H4  UNK     1      29.086  -6.260  33.200  1.00  0.00     0.163 HD
BRANCH  11  13
HETATM   13  C1  UNK     1      29.515  -7.233  31.375  1.00  0.00     0.091 C 
BRANCH  13  14
HETATM   14  C2  UNK     1      29.793  -6.045  30.414  1.00  0.00     0.001 C 
HETATM   15  C4  UNK     1      29.871  -4.717  31.183  1.00  0.00     0.011 C 
HETATM   16  C5  UNK     1      31.088  -6.224  29.615  1.00  0.00     0.011 C 
ENDBRANCH  13  14
BRANCH  13  17
HETATM   17  C3  UNK     1      28.099  -7.864  31.251  1.00  0.00     0.001 C 
HETATM   18  C6  UNK     1      27.966  -8.854  30.091  1.00  0.00     0.011 C 
HETATM   19  C7  UNK     1      27.014  -6.784  31.136  1.00  0.00     0.011 C 
ENDBRANCH  13  17
ENDBRANCH  11  13
ENDBRANCH   1   9
BRANCH   2  20
HETATM   20  C12 UNK     1      29.719  -5.816  36.764  1.00  0.00    -0.013 A 
HETATM   21  C17 UNK     1      29.098  -6.530  37.780  1.00  0.00     0.044 A 
HETATM   22 Cl1  UNK     1      28.458  -8.119  37.536  1.00  0.00    -0.083 Cl
HETATM   23  C20 UNK     1      28.979  -5.961  39.049  1.00  0.00     0.024 A 
HETATM   24  C22 UNK     1      29.481  -4.683  39.289  1.00  0.00     0.002 A 
HETATM   25  C21 UNK     1      30.103  -3.973  38.262  1.00  0.00     0.001 A 
HETATM   26  C18 UNK     1      30.222  -4.541  36.994  1.00  0.00     0.013 A 
ENDBRANCH   2  20
TORSDOF 6
ENDMDL
MODEL 9
REMARK VINA RESULT:      -6.8     32.753     34.478
REMARK  6 active torsions:
REMARK  status: ('A' for Active; 'I' for Inactive)
REMARK    1  A    between atoms: C1_4  and  N1_3 
REMARK       I    between atoms: C8_11  and  N1_3 
REMARK    2  A    between atoms: C1_4  and  C2_5 
REMARK    3  A    between atoms: C1_4  and  C3_6 
REMARK    4  A    between atoms: C8_11  and  C9_12 
REMARK    5  A    between atoms: C10_13  and  C9_12 
REMARK    6  A    between atoms: C11_14  and  C12_15 
ROOT
HETATM    1  C9  UNK     1      30.234  -6.439  35.050  1.00  0.00     0.043 C 
HETATM    2  C11 UNK     1      31.465  -6.535  34.506  1.00  0.00     0.031 C 
ENDROOT
BRANCH   1   3
HETATM    3  C10 UNK     1      30.026  -6.017  36.449  1.00  0.00    -0.021 A 
HETATM    4  C13 UNK     1      29.582  -6.944  37.376  1.00  0.00     0.012 A 
HETATM    5  C15 UNK     1      29.385  -6.545  38.698  1.00  0.00     0.001 A 
HETATM    6  C19 UNK     1      29.635  -5.225  39.073  1.00  0.00     0.000 A 
HETATM    7  C16 UNK     1      30.082  -4.304  38.125  1.00  0.00     0.001 A 
HETATM    8  C14 UNK     1      30.279  -4.703  36.804  1.00  0.00     0.012 A 
ENDBRANCH   1   3
BRANCH   1   9
HETATM    9  C8  UNK     1      29.081  -6.812  34.152  1.00  0.00     0.252 C 
HETATM   10  O1  UNK     1      27.915  -6.580  34.468  1.00  0.00    -0.268 OA
HETATM   11  N1  UNK     1      29.460  -7.432  32.976  1.00  0.00    -0.352 N 
HETATM   12  H4  UNK     1      30.436  -7.614  32.772  1.00  0.00     0.163 HD
BRANCH  11  13
HETATM   13  C1  UNK     1      28.492  -7.872  31.990  1.00  0.00     0.091 C 
BRANCH  13  14
HETATM   14  C2  UNK     1      28.779  -9.342  31.579  1.00  0.00     0.001 C 
HETATM   15  C4  UNK     1      29.390  -9.413  30.171  1.00  0.00     0.011 C 
HETATM   16  C5  UNK     1      29.720 -10.055  32.556  1.00  0.00     0.011 C 
ENDBRANCH  13  14
BRANCH  13  17
HETATM   17  C3  UNK     1      28.409  -6.862  30.812  1.00  0.00     0.001 C 
HETATM   18  C6  UNK     1      29.135  -5.541  31.082  1.00  0.00     0.011 C 
HETATM   19  C7  UNK     1      26.952  -6.580  30.419  1.00  0.00     0.011 C 
ENDBRANCH  13  17
ENDBRANCH  11  13
ENDBRANCH   1   9
BRANCH   2  20
HETATM   20  C12 UNK     1      32.734  -6.257  35.195  1.00  0.00    -0.013 A 
HETATM   21  C17 UNK     1      33.316  -7.176  36.056  1.00  0.00     0.044 A 
HETATM   22 Cl1  UNK     1      32.599  -8.716  36.386  1.00  0.00    -0.083 Cl
HETATM   23  C20 UNK     1      34.521  -6.864  36.686  1.00  0.00     0.024 A 
HETATM   24  C22 UNK     1      35.133  -5.634  36.448  1.00  0.00     0.002 A 
HETATM   25  C21 UNK     1      34.541  -4.716  35.581  1.00  0.00     0.001 A 
HETATM   26  C18 UNK     1      33.336  -5.028  34.951  1.00  0.00     0.013 A 
ENDBRANCH   2  20
TORSDOF 6
ENDMDL
MODEL 10
REMARK VINA RESULT:      -6.7     33.022     34.912
REMARK  6 active torsions:
REMARK  status: ('A' for Active; 'I' for Inactive)
REMARK    1  A    between atoms: C1_4  and  N1_3 
REMARK       I    between atoms: C8_11  and  N1_3 
REMARK    2  A    between atoms: C1_4  and  C2_5 
REMARK    3  A    between atoms: C1_4  and  C3_6 
REMARK    4  A    between atoms: C8_11  and  C9_12 
REMARK    5  A    between atoms: C10_13  and  C9_12 
REMARK    6  A    between atoms: C11_14  and  C12_15 
ROOT
HETATM    1  C9  UNK     1      31.263  -6.664  34.705  1.00  0.00     0.043 C 
HETATM    2  C11 UNK     1      30.086  -6.429  35.321  1.00  0.00     0.031 C 
ENDROOT
BRANCH   1   3
HETATM    3  C10 UNK     1      32.557  -6.383  35.355  1.00  0.00    -0.021 A 
HETATM    4  C13 UNK     1      33.221  -5.204  35.058  1.00  0.00     0.012 A 
HETATM    5  C15 UNK     1      34.445  -4.939  35.672  1.00  0.00     0.001 A 
HETATM    6  C19 UNK     1      34.987  -5.856  36.573  1.00  0.00     0.000 A 
HETATM    7  C16 UNK     1      34.304  -7.039  36.860  1.00  0.00     0.001 A 
HETATM    8  C14 UNK     1      33.081  -7.304  36.246  1.00  0.00     0.012 A 
ENDBRANCH   1   3
BRANCH   1   9
HETATM    9  C8  UNK     1      31.179  -7.208  33.300  1.00  0.00     0.252 C 
HETATM   10  O1  UNK     1      32.161  -7.242  32.561  1.00  0.00    -0.268 OA
HETATM   11  N1  UNK     1      29.918  -7.643  32.939  1.00  0.00    -0.352 N 
HETATM   12  H4  UNK     1      29.137  -7.577  33.582  1.00  0.00     0.163 HD
BRANCH  11  13
HETATM   13  C1  UNK     1      29.639  -8.190  31.624  1.00  0.00     0.091 C 
BRANCH  13  14
HETATM   14  C2  UNK     1      28.452  -7.431  30.971  1.00  0.00     0.001 C 
HETATM   15  C4  UNK     1      27.496  -8.402  30.262  1.00  0.00     0.011 C 
HETATM   16  C5  UNK     1      27.649  -6.608  31.984  1.00  0.00     0.011 C 
ENDBRANCH  13  14
BRANCH  13  17
HETATM   17  C3  UNK     1      29.474  -9.735  31.696  1.00  0.00     0.001 C 
HETATM   18  C6  UNK     1      29.082 -10.248  33.084  1.00  0.00     0.011 C 
HETATM   19  C7  UNK     1      30.742 -10.454  31.218  1.00  0.00     0.011 C 
ENDBRANCH  13  17
ENDBRANCH  11  13
ENDBRANCH   1   9
BRANCH   2  20
HETATM   20  C12 UNK     1      29.917  -5.872  36.671  1.00  0.00    -0.013 A 
HETATM   21  C17 UNK     1      29.432  -6.636  37.723  1.00  0.00     0.044 A 
HETATM   22 Cl1  UNK     1      28.988  -8.298  37.531  1.00  0.00    -0.083 Cl
HETATM   23  C20 UNK     1      29.290  -6.061  38.985  1.00  0.00     0.024 A 
HETATM   24  C22 UNK     1      29.635  -4.724  39.185  1.00  0.00     0.002 A 
HETATM   25  C21 UNK     1      30.122  -3.964  38.121  1.00  0.00     0.001 A 
HETATM   26  C18 UNK     1      30.264  -4.539  36.859  1.00  0.00     0.013 A 
ENDBRANCH   2  20
TORSDOF 6
ENDMDL
