MODEL 1
REMARK VINA RESULT:      -7.4      0.000      0.000
REMARK  0 active torsions:
REMARK  status: ('A' for Active; 'I' for Inactive)
ROOT
HETATM    1  O1  UNK     1      18.915   0.359  32.743  1.00  0.00    -0.274 OA
HETATM    2  O2  UNK     1      18.035   1.957  34.102  1.00  0.00    -0.258 OA
HETATM    3  N1  UNK     1      17.418   4.929  32.291  1.00  0.00    -0.191 NA
HETATM    4  C1  UNK     1      19.299   0.837  30.387  1.00  0.00     0.005 A 
HETATM    5  C2  UNK     1      18.773   2.201  30.596  1.00  0.00    -0.022 A 
HETATM    6  C3  UNK     1      19.352  -0.037  31.469  1.00  0.00     0.090 A 
HETATM    7  C4  UNK     1      18.357   2.563  31.827  1.00  0.00     0.126 A 
HETATM    8  C5  UNK     1      19.756   0.356  29.150  1.00  0.00     0.015 A 
HETATM    9  C6  UNK     1      18.733   3.119  29.397  1.00  0.00     0.051 C 
HETATM   10  C7  UNK     1      19.834  -1.344  31.357  1.00  0.00     0.038 A 
HETATM   11  C8  UNK     1      18.413   1.629  32.981  1.00  0.00     0.309 A 
HETATM   12  C9  UNK     1      20.243  -0.950  29.020  1.00  0.00     0.001 A 
HETATM   13  C10 UNK     1      20.283  -1.800  30.122  1.00  0.00     0.003 A 
HETATM   14  C11 UNK     1      17.838   3.869  32.083  1.00  0.00     0.106 C 
ENDROOT
TORSDOF 0
ENDMDL
MODEL 2
REMARK VINA RESULT:      -7.1      1.840      2.714
REMARK  0 active torsions:
REMARK  status: ('A' for Active; 'I' for Inactive)
ROOT
HETATM    1  O1  UNK     1      19.326   1.415  28.994  1.00  0.00    -0.274 OA
HETATM    2  O2  UNK     1      18.549   3.552  28.948  1.00  0.00    -0.258 OA
HETATM    3  N1  UNK     1      17.514   4.570  32.171  1.00  0.00    -0.191 NA
HETATM    4  C1  UNK     1      19.358   0.173  31.088  1.00  0.00     0.005 A 
HETATM    5  C2  UNK     1      18.783   1.347  31.773  1.00  0.00    -0.022 A 
HETATM    6  C3  UNK     1      19.609   0.247  29.720  1.00  0.00     0.090 A 
HETATM    7  C4  UNK     1      18.519   2.460  31.058  1.00  0.00     0.126 A 
HETATM    8  C5  UNK     1      19.673  -1.033  31.733  1.00  0.00     0.015 A 
HETATM    9  C6  UNK     1      18.525   1.226  33.256  1.00  0.00     0.051 C 
HETATM   10  C7  UNK     1      20.153  -0.817  28.996  1.00  0.00     0.038 A 
HETATM   11  C8  UNK     1      18.789   2.540  29.599  1.00  0.00     0.309 A 
HETATM   12  C9  UNK     1      20.217  -2.111  31.023  1.00  0.00     0.001 A 
HETATM   13  C10 UNK     1      20.457  -2.003  29.656  1.00  0.00     0.003 A 
HETATM   14  C11 UNK     1      17.964   3.625  31.672  1.00  0.00     0.106 C 
ENDROOT
TORSDOF 0
ENDMDL
MODEL 3
REMARK VINA RESULT:      -7.0      5.601      6.884
REMARK  0 active torsions:
REMARK  status: ('A' for Active; 'I' for Inactive)
ROOT
HETATM    1  O1  UNK     1      16.985   7.410  31.102  1.00  0.00    -0.274 OA
HETATM    2  O2  UNK     1      15.211   8.567  31.932  1.00  0.00    -0.258 OA
HETATM    3  N1  UNK     1      15.824   9.564  35.266  1.00  0.00    -0.191 NA
HETATM    4  C1  UNK     1      18.947   7.023  32.491  1.00  0.00     0.005 A 
HETATM    5  C2  UNK     1      18.290   7.755  33.592  1.00  0.00    -0.022 A 
HETATM    6  C3  UNK     1      18.270   6.875  31.283  1.00  0.00     0.090 A 
HETATM    7  C4  UNK     1      17.055   8.263  33.398  1.00  0.00     0.126 A 
HETATM    8  C5  UNK     1      20.228   6.457  32.583  1.00  0.00     0.015 A 
HETATM    9  C6  UNK     1      19.056   7.893  34.886  1.00  0.00     0.051 C 
HETATM   10  C7  UNK     1      18.820   6.198  30.192  1.00  0.00     0.038 A 
HETATM   11  C8  UNK     1      16.335   8.106  32.109  1.00  0.00     0.309 A 
HETATM   12  C9  UNK     1      20.794   5.774  31.499  1.00  0.00     0.001 A 
HETATM   13  C10 UNK     1      20.091   5.644  30.305  1.00  0.00     0.003 A 
HETATM   14  C11 UNK     1      16.376   8.981  34.429  1.00  0.00     0.106 C 
ENDROOT
TORSDOF 0
ENDMDL
MODEL 4
REMARK VINA RESULT:      -6.8      1.874      3.026
REMARK  0 active torsions:
REMARK  status: ('A' for Active; 'I' for Inactive)
ROOT
HETATM    1  O1  UNK     1      18.746   1.812  31.038  1.00  0.00    -0.274 OA
HETATM    2  O2  UNK     1      17.815   3.137  32.635  1.00  0.00    -0.258 OA
HETATM    3  N1  UNK     1      17.531   1.390  35.694  1.00  0.00    -0.191 NA
HETATM    4  C1  UNK     1      19.392  -0.474  31.574  1.00  0.00     0.005 A 
HETATM    5  C2  UNK     1      18.913  -0.266  32.955  1.00  0.00    -0.022 A 
HETATM    6  C3  UNK     1      19.291   0.573  30.663  1.00  0.00     0.090 A 
HETATM    7  C4  UNK     1      18.393   0.930  33.298  1.00  0.00     0.126 A 
HETATM    8  C5  UNK     1      19.950  -1.676  31.112  1.00  0.00     0.015 A 
HETATM    9  C6  UNK     1      19.039  -1.427  33.914  1.00  0.00     0.051 C 
HETATM   10  C7  UNK     1      19.721   0.461  29.338  1.00  0.00     0.038 A 
HETATM   11  C8  UNK     1      18.288   2.048  32.324  1.00  0.00     0.309 A 
HETATM   12  C9  UNK     1      20.386  -1.807  29.788  1.00  0.00     0.001 A 
HETATM   13  C10 UNK     1      20.271  -0.739  28.901  1.00  0.00     0.003 A 
HETATM   14  C11 UNK     1      17.918   1.185  34.620  1.00  0.00     0.106 C 
ENDROOT
TORSDOF 0
ENDMDL
MODEL 5
REMARK VINA RESULT:      -6.8      3.019      4.464
REMARK  0 active torsions:
REMARK  status: ('A' for Active; 'I' for Inactive)
ROOT
HETATM    1  O1  UNK     1      18.886   0.249  32.556  1.00  0.00    -0.274 OA
HETATM    2  O2  UNK     1      18.719  -0.268  34.765  1.00  0.00    -0.258 OA
HETATM    3  N1  UNK     1      20.325  -3.341  35.450  1.00  0.00    -0.191 NA
HETATM    4  C1  UNK     1      20.059  -1.251  31.038  1.00  0.00     0.005 A 
HETATM    5  C2  UNK     1      20.335  -2.155  32.172  1.00  0.00    -0.022 A 
HETATM    6  C3  UNK     1      19.343  -0.080  31.270  1.00  0.00     0.090 A 
HETATM    7  C4  UNK     1      19.888  -1.822  33.401  1.00  0.00     0.126 A 
HETATM    8  C5  UNK     1      20.477  -1.498  29.721  1.00  0.00     0.015 A 
HETATM    9  C6  UNK     1      21.113  -3.416  31.879  1.00  0.00     0.051 C 
HETATM   10  C7  UNK     1      19.041   0.831  30.253  1.00  0.00     0.038 A 
HETATM   11  C8  UNK     1      19.126  -0.571  33.647  1.00  0.00     0.309 A 
HETATM   12  C9  UNK     1      20.182  -0.597  28.690  1.00  0.00     0.001 A 
HETATM   13  C10 UNK     1      19.464   0.566  28.955  1.00  0.00     0.003 A 
HETATM   14  C11 UNK     1      20.129  -2.660  34.532  1.00  0.00     0.106 C 
ENDROOT
TORSDOF 0
ENDMDL
MODEL 6
REMARK VINA RESULT:      -6.8      6.078      8.177
REMARK  0 active torsions:
REMARK  status: ('A' for Active; 'I' for Inactive)
ROOT
HETATM    1  O1  UNK     1      18.446   6.648  33.110  1.00  0.00    -0.274 OA
HETATM    2  O2  UNK     1      16.935   5.181  32.251  1.00  0.00    -0.258 OA
HETATM    3  N1  UNK     1      13.817   6.763  31.739  1.00  0.00    -0.191 NA
HETATM    4  C1  UNK     1      17.798   8.955  33.542  1.00  0.00     0.005 A 
HETATM    5  C2  UNK     1      16.441   8.648  33.048  1.00  0.00    -0.022 A 
HETATM    6  C3  UNK     1      18.754   7.944  33.556  1.00  0.00     0.090 A 
HETATM    7  C4  UNK     1      16.164   7.398  32.624  1.00  0.00     0.126 A 
HETATM    8  C5  UNK     1      18.195  10.220  34.005  1.00  0.00     0.015 A 
HETATM    9  C6  UNK     1      15.432   9.772  33.050  1.00  0.00     0.051 C 
HETATM   10  C7  UNK     1      20.061   8.150  34.006  1.00  0.00     0.038 A 
HETATM   11  C8  UNK     1      17.186   6.319  32.638  1.00  0.00     0.309 A 
HETATM   12  C9  UNK     1      19.499  10.445  34.460  1.00  0.00     0.001 A 
HETATM   13  C10 UNK     1      20.432   9.411  34.461  1.00  0.00     0.003 A 
HETATM   14  C11 UNK     1      14.869   7.047  32.135  1.00  0.00     0.106 C 
ENDROOT
TORSDOF 0
ENDMDL
MODEL 7
REMARK VINA RESULT:      -6.7      6.602      8.632
REMARK  0 active torsions:
REMARK  status: ('A' for Active; 'I' for Inactive)
ROOT
HETATM    1  O1  UNK     1      16.664  10.206  33.476  1.00  0.00    -0.274 OA
HETATM    2  O2  UNK     1      14.497  10.078  32.794  1.00  0.00    -0.258 OA
HETATM    3  N1  UNK     1      13.701   6.786  31.785  1.00  0.00    -0.191 NA
HETATM    4  C1  UNK     1      18.073   8.221  33.439  1.00  0.00     0.005 A 
HETATM    5  C2  UNK     1      16.934   7.443  32.913  1.00  0.00    -0.022 A 
HETATM    6  C3  UNK     1      17.899   9.577  33.702  1.00  0.00     0.090 A 
HETATM    7  C4  UNK     1      15.756   8.065  32.703  1.00  0.00     0.126 A 
HETATM    8  C5  UNK     1      19.341   7.675  33.695  1.00  0.00     0.015 A 
HETATM    9  C6  UNK     1      17.164   5.975  32.639  1.00  0.00     0.051 C 
HETATM   10  C7  UNK     1      18.924  10.384  34.202  1.00  0.00     0.038 A 
HETATM   11  C8  UNK     1      15.569   9.512  32.985  1.00  0.00     0.309 A 
HETATM   12  C9  UNK     1      20.380   8.469  34.196  1.00  0.00     0.001 A 
HETATM   13  C10 UNK     1      20.172   9.823  34.449  1.00  0.00     0.003 A 
HETATM   14  C11 UNK     1      14.621   7.359  32.197  1.00  0.00     0.106 C 
ENDROOT
TORSDOF 0
ENDMDL
MODEL 8
REMARK VINA RESULT:      -6.7      9.642     11.640
REMARK  0 active torsions:
REMARK  status: ('A' for Active; 'I' for Inactive)
ROOT
HETATM    1  O1  UNK     1      21.194  -9.835  36.557  1.00  0.00    -0.274 OA
HETATM    2  O2  UNK     1      21.736 -10.109  34.365  1.00  0.00    -0.258 OA
HETATM    3  N1  UNK     1      21.081  -7.152  32.542  1.00  0.00    -0.191 NA
HETATM    4  C1  UNK     1      20.299  -7.709  37.337  1.00  0.00     0.005 A 
HETATM    5  C2  UNK     1      20.395  -7.184  35.960  1.00  0.00    -0.022 A 
HETATM    6  C3  UNK     1      20.701  -9.018  37.587  1.00  0.00     0.090 A 
HETATM    7  C4  UNK     1      20.872  -7.984  34.984  1.00  0.00     0.126 A 
HETATM    8  C5  UNK     1      19.820  -6.965  38.427  1.00  0.00     0.015 A 
HETATM    9  C6  UNK     1      19.948  -5.760  35.730  1.00  0.00     0.051 C 
HETATM   10  C7  UNK     1      20.643  -9.592  38.861  1.00  0.00     0.038 A 
HETATM   11  C8  UNK     1      21.302  -9.380  35.253  1.00  0.00     0.309 A 
HETATM   12  C9  UNK     1      19.755  -7.523  39.709  1.00  0.00     0.001 A 
HETATM   13  C10 UNK     1      20.165  -8.836  39.926  1.00  0.00     0.003 A 
HETATM   14  C11 UNK     1      20.988  -7.525  33.636  1.00  0.00     0.106 C 
ENDROOT
TORSDOF 0
ENDMDL
MODEL 9
REMARK VINA RESULT:      -6.6      9.381     11.347
REMARK  0 active torsions:
REMARK  status: ('A' for Active; 'I' for Inactive)
ROOT
HETATM    1  O1  UNK     1      21.325  -5.827  36.955  1.00  0.00    -0.274 OA
HETATM    2  O2  UNK     1      19.977  -5.219  35.227  1.00  0.00    -0.258 OA
HETATM    3  N1  UNK     1      17.305  -7.503  34.867  1.00  0.00    -0.191 NA
HETATM    4  C1  UNK     1      20.813  -7.819  38.258  1.00  0.00     0.005 A 
HETATM    5  C2  UNK     1      19.629  -8.050  37.408  1.00  0.00    -0.022 A 
HETATM    6  C3  UNK     1      21.621  -6.715  38.002  1.00  0.00     0.090 A 
HETATM    7  C4  UNK     1      19.360  -7.185  36.409  1.00  0.00     0.126 A 
HETATM    8  C5  UNK     1      21.186  -8.653  39.325  1.00  0.00     0.015 A 
HETATM    9  C6  UNK     1      18.778  -9.259  37.719  1.00  0.00     0.051 C 
HETATM   10  C7  UNK     1      22.759  -6.424  38.759  1.00  0.00     0.038 A 
HETATM   11  C8  UNK     1      20.222  -6.006  36.136  1.00  0.00     0.309 A 
HETATM   12  C9  UNK     1      22.323  -8.377  40.093  1.00  0.00     0.001 A 
HETATM   13  C10 UNK     1      23.110  -7.264  39.811  1.00  0.00     0.003 A 
HETATM   14  C11 UNK     1      18.225  -7.360  35.558  1.00  0.00     0.106 C 
ENDROOT
TORSDOF 0
ENDMDL
MODEL 10
REMARK VINA RESULT:      -6.5     13.172     14.809
REMARK  0 active torsions:
REMARK  status: ('A' for Active; 'I' for Inactive)
ROOT
HETATM    1  O1  UNK     1      28.219  -4.766  38.708  1.00  0.00    -0.274 OA
HETATM    2  O2  UNK     1      25.956  -4.940  38.861  1.00  0.00    -0.258 OA
HETATM    3  N1  UNK     1      24.952  -8.324  38.695  1.00  0.00    -0.191 NA
HETATM    4  C1  UNK     1      29.583  -6.769  38.470  1.00  0.00     0.005 A 
HETATM    5  C2  UNK     1      28.354  -7.588  38.500  1.00  0.00    -0.022 A 
HETATM    6  C3  UNK     1      29.472  -5.385  38.575  1.00  0.00     0.090 A 
HETATM    7  C4  UNK     1      27.160  -6.975  38.630  1.00  0.00     0.126 A 
HETATM    8  C5  UNK     1      30.875  -7.301  38.341  1.00  0.00     0.015 A 
HETATM    9  C6  UNK     1      28.517  -9.085  38.383  1.00  0.00     0.051 C 
HETATM   10  C7  UNK     1      30.583  -4.538  38.557  1.00  0.00     0.038 A 
HETATM   11  C8  UNK     1      27.043  -5.498  38.743  1.00  0.00     0.309 A 
HETATM   12  C9  UNK     1      32.000  -6.468  38.320  1.00  0.00     0.001 A 
HETATM   13  C10 UNK     1      31.855  -5.087  38.427  1.00  0.00     0.003 A 
HETATM   14  C11 UNK     1      25.941  -7.720  38.666  1.00  0.00     0.106 C 
ENDROOT
TORSDOF 0
ENDMDL
