MODEL 1
REMARK VINA RESULT:      -8.8      0.000      0.000
REMARK  4 active torsions:
REMARK  status: ('A' for Active; 'I' for Inactive)
REMARK    1  A    between atoms: C10_17  and  O1_1 
REMARK    2  A    between atoms: C3_10  and  O1_1 
REMARK    3  A    between atoms: C14_21  and  N1_7 
REMARK    4  A    between atoms: C10_17  and  C7_14 
ROOT
HETATM    1  O1  UNK     1      19.185  -4.744  36.771  1.00  0.00    -0.274 OA
ENDROOT
BRANCH   1   2
HETATM    2  C10 UNK     1      19.972  -3.645  36.589  1.00  0.00     0.298 C 
HETATM    3  O3  UNK     1      21.159  -3.530  36.857  1.00  0.00    -0.259 OA
BRANCH   2   4
HETATM    4  C7  UNK     1      19.166  -2.534  36.020  1.00  0.00     0.040 A 
HETATM    5  C12 UNK     1      18.071  -2.079  36.722  1.00  0.00     0.020 A 
HETATM    6  C15 UNK     1      17.315  -1.035  36.188  1.00  0.00     0.037 A 
HETATM    7  C14 UNK     1      17.672  -0.472  34.963  1.00  0.00     0.102 A 
HETATM    8  C16 UNK     1      18.785  -0.950  34.273  1.00  0.00     0.037 A 
HETATM    9  C13 UNK     1      19.542  -1.994  34.807  1.00  0.00     0.020 A 
BRANCH   7  10
HETATM   10  N1  UNK     1      16.902   0.591  34.420  1.00  0.00    -0.116 N 
HETATM   11  O5  UNK     1      15.655   0.571  34.557  1.00  0.00    -0.532 OA
HETATM   12  O6  UNK     1      17.491   1.521  33.816  1.00  0.00    -0.532 OA
ENDBRANCH   7  10
ENDBRANCH   2   4
ENDBRANCH   1   2
BRANCH   1  13
HETATM   13  C3  UNK     1      19.721  -5.916  36.276  1.00  0.00     0.098 A 
HETATM   14  C1  UNK     1      20.048  -7.019  37.186  1.00  0.00     0.032 A 
HETATM   15  C2  UNK     1      20.620  -8.168  36.633  1.00  0.00     0.092 A 
HETATM   16  C4  UNK     1      19.820  -7.014  38.568  1.00  0.00     0.017 A 
HETATM   17  O2  UNK     1      20.863  -8.268  35.246  1.00  0.00    -0.275 OA
HETATM   18  C5  UNK     1      20.973  -9.276  37.406  1.00  0.00     0.038 A 
HETATM   19  C11 UNK     1      20.533  -7.245  34.369  1.00  0.00     0.290 A 
HETATM   20  O4  UNK     1      20.724  -7.335  33.161  1.00  0.00    -0.260 OA
HETATM   21  C6  UNK     1      19.945  -6.034  34.963  1.00  0.00     0.120 A 
HETATM   22  C9  UNK     1      20.745  -9.245  38.777  1.00  0.00     0.003 A 
HETATM   23  C8  UNK     1      20.166  -8.118  39.357  1.00  0.00     0.001 A 
ENDBRANCH   1  13
TORSDOF 4
ENDMDL
MODEL 2
REMARK VINA RESULT:      -8.7      9.753     13.847
REMARK  4 active torsions:
REMARK  status: ('A' for Active; 'I' for Inactive)
REMARK    1  A    between atoms: C10_17  and  O1_1 
REMARK    2  A    between atoms: C3_10  and  O1_1 
REMARK    3  A    between atoms: C14_21  and  N1_7 
REMARK    4  A    between atoms: C10_17  and  C7_14 
ROOT
HETATM    1  O1  UNK     1      18.203   7.720  32.386  1.00  0.00    -0.274 OA
ENDROOT
BRANCH   1   2
HETATM    2  C10 UNK     1      18.625   6.572  32.991  1.00  0.00     0.298 C 
HETATM    3  O3  UNK     1      18.975   6.431  34.154  1.00  0.00    -0.259 OA
BRANCH   2   4
HETATM    4  C7  UNK     1      18.632   5.456  32.010  1.00  0.00     0.040 A 
HETATM    5  C12 UNK     1      19.087   5.699  30.732  1.00  0.00     0.020 A 
HETATM    6  C15 UNK     1      19.096   4.651  29.810  1.00  0.00     0.037 A 
HETATM    7  C14 UNK     1      18.647   3.386  30.189  1.00  0.00     0.102 A 
HETATM    8  C16 UNK     1      18.191   3.167  31.489  1.00  0.00     0.037 A 
HETATM    9  C13 UNK     1      18.183   4.215  32.410  1.00  0.00     0.020 A 
BRANCH   7  10
HETATM   10  N1  UNK     1      18.655   2.320  29.251  1.00  0.00    -0.116 N 
HETATM   11  O5  UNK     1      19.337   1.296  29.499  1.00  0.00    -0.532 OA
HETATM   12  O6  UNK     1      17.979   2.431  28.199  1.00  0.00    -0.532 OA
ENDBRANCH   7  10
ENDBRANCH   2   4
ENDBRANCH   1   2
BRANCH   1  13
HETATM   13  C3  UNK     1      16.870   8.014  32.589  1.00  0.00     0.098 A 
HETATM   14  C1  UNK     1      16.485   9.201  33.358  1.00  0.00     0.032 A 
HETATM   15  C2  UNK     1      15.122   9.430  33.561  1.00  0.00     0.092 A 
HETATM   16  C4  UNK     1      17.382  10.133  33.899  1.00  0.00     0.017 A 
HETATM   17  O2  UNK     1      14.148   8.554  33.032  1.00  0.00    -0.275 OA
HETATM   18  C5  UNK     1      14.643  10.527  34.280  1.00  0.00     0.038 A 
HETATM   19  C11 UNK     1      14.495   7.444  32.277  1.00  0.00     0.290 A 
HETATM   20  O4  UNK     1      13.653   6.691  31.799  1.00  0.00    -0.260 OA
HETATM   21  C6  UNK     1      15.934   7.204  32.083  1.00  0.00     0.120 A 
HETATM   22  C9  UNK     1      15.552  11.434  34.814  1.00  0.00     0.003 A 
HETATM   23  C8  UNK     1      16.918  11.239  34.621  1.00  0.00     0.001 A 
ENDBRANCH   1  13
TORSDOF 4
ENDMDL
MODEL 3
REMARK VINA RESULT:      -8.7     18.341     21.133
REMARK  4 active torsions:
REMARK  status: ('A' for Active; 'I' for Inactive)
REMARK    1  A    between atoms: C10_17  and  O1_1 
REMARK    2  A    between atoms: C3_10  and  O1_1 
REMARK    3  A    between atoms: C14_21  and  N1_7 
REMARK    4  A    between atoms: C10_17  and  C7_14 
ROOT
HETATM    1  O1  UNK     1      19.273  -1.396  17.008  1.00  0.00    -0.274 OA
ENDROOT
BRANCH   1   2
HETATM    2  C10 UNK     1      18.102  -1.874  16.495  1.00  0.00     0.298 C 
HETATM    3  O3  UNK     1      16.977  -1.723  16.947  1.00  0.00    -0.259 OA
BRANCH   2   4
HETATM    4  C7  UNK     1      18.375  -2.666  15.267  1.00  0.00     0.040 A 
HETATM    5  C12 UNK     1      18.803  -2.008  14.134  1.00  0.00     0.020 A 
HETATM    6  C15 UNK     1      19.060  -2.751  12.981  1.00  0.00     0.037 A 
HETATM    7  C14 UNK     1      18.881  -4.134  12.989  1.00  0.00     0.102 A 
HETATM    8  C16 UNK     1      18.447  -4.775  14.149  1.00  0.00     0.037 A 
HETATM    9  C13 UNK     1      18.190  -4.032  15.302  1.00  0.00     0.020 A 
BRANCH   7  10
HETATM   10  N1  UNK     1      19.142  -4.890  11.816  1.00  0.00    -0.116 N 
HETATM   11  O5  UNK     1      18.177  -5.277  11.113  1.00  0.00    -0.532 OA
HETATM   12  O6  UNK     1      20.332  -5.151  11.512  1.00  0.00    -0.532 OA
ENDBRANCH   7  10
ENDBRANCH   2   4
ENDBRANCH   1   2
BRANCH   1  13
HETATM   13  C3  UNK     1      19.277  -0.036  17.244  1.00  0.00     0.098 A 
HETATM   14  C1  UNK     1      19.283   0.474  18.619  1.00  0.00     0.032 A 
HETATM   15  C2  UNK     1      19.252   1.859  18.797  1.00  0.00     0.092 A 
HETATM   16  C4  UNK     1      19.327  -0.323  19.771  1.00  0.00     0.017 A 
HETATM   17  O2  UNK     1      19.229   2.738  17.692  1.00  0.00    -0.275 OA
HETATM   18  C5  UNK     1      19.252   2.453  20.061  1.00  0.00     0.038 A 
HETATM   19  C11 UNK     1      19.253   2.272  16.386  1.00  0.00     0.290 A 
HETATM   20  O4  UNK     1      19.253   3.030  15.423  1.00  0.00    -0.260 OA
HETATM   21  C6  UNK     1      19.270   0.811  16.209  1.00  0.00     0.120 A 
HETATM   22  C9  UNK     1      19.288   1.642  21.190  1.00  0.00     0.003 A 
HETATM   23  C8  UNK     1      19.329   0.257  21.045  1.00  0.00     0.001 A 
ENDBRANCH   1  13
TORSDOF 4
ENDMDL
MODEL 4
REMARK VINA RESULT:      -8.5      6.215      8.906
REMARK  4 active torsions:
REMARK  status: ('A' for Active; 'I' for Inactive)
REMARK    1  A    between atoms: C10_17  and  O1_1 
REMARK    2  A    between atoms: C3_10  and  O1_1 
REMARK    3  A    between atoms: C14_21  and  N1_7 
REMARK    4  A    between atoms: C10_17  and  C7_14 
ROOT
HETATM    1  O1  UNK     1      19.200   2.465  31.170  1.00  0.00    -0.274 OA
ENDROOT
BRANCH   1   2
HETATM    2  C10 UNK     1      18.011   3.134  31.189  1.00  0.00     0.298 C 
HETATM    3  O3  UNK     1      16.934   2.745  30.763  1.00  0.00    -0.259 OA
BRANCH   2   4
HETATM    4  C7  UNK     1      18.196   4.475  31.802  1.00  0.00     0.040 A 
HETATM    5  C12 UNK     1      18.591   5.524  30.999  1.00  0.00     0.020 A 
HETATM    6  C15 UNK     1      18.762   6.784  31.573  1.00  0.00     0.037 A 
HETATM    7  C14 UNK     1      18.537   6.964  32.937  1.00  0.00     0.102 A 
HETATM    8  C16 UNK     1      18.138   5.887  33.728  1.00  0.00     0.037 A 
HETATM    9  C13 UNK     1      17.966   4.627  33.153  1.00  0.00     0.020 A 
BRANCH   7  10
HETATM   10  N1  UNK     1      18.712   8.247  33.522  1.00  0.00    -0.116 N 
HETATM   11  O5  UNK     1      19.615   8.406  34.379  1.00  0.00    -0.532 OA
HETATM   12  O6  UNK     1      17.960   9.186  33.165  1.00  0.00    -0.532 OA
ENDBRANCH   7  10
ENDBRANCH   2   4
ENDBRANCH   1   2
BRANCH   1  13
HETATM   13  C3  UNK     1      19.147   1.192  31.703  1.00  0.00     0.098 A 
HETATM   14  C1  UNK     1      19.687   0.055  30.952  1.00  0.00     0.032 A 
HETATM   15  C2  UNK     1      19.575  -1.214  31.526  1.00  0.00     0.092 A 
HETATM   16  C4  UNK     1      20.320   0.144  29.705  1.00  0.00     0.017 A 
HETATM   17  O2  UNK     1      18.972  -1.393  32.790  1.00  0.00    -0.275 OA
HETATM   18  C5  UNK     1      20.052  -2.366  30.898  1.00  0.00     0.038 A 
HETATM   19  C11 UNK     1      18.482  -0.324  33.525  1.00  0.00     0.290 A 
HETATM   20  O4  UNK     1      17.976  -0.471  34.632  1.00  0.00    -0.260 OA
HETATM   21  C6  UNK     1      18.592   1.006  32.905  1.00  0.00     0.120 A 
HETATM   22  C9  UNK     1      20.669  -2.255  29.658  1.00  0.00     0.003 A 
HETATM   23  C8  UNK     1      20.806  -1.002  29.063  1.00  0.00     0.001 A 
ENDBRANCH   1  13
TORSDOF 4
ENDMDL
MODEL 5
REMARK VINA RESULT:      -8.5      9.785     13.652
REMARK  4 active torsions:
REMARK  status: ('A' for Active; 'I' for Inactive)
REMARK    1  A    between atoms: C10_17  and  O1_1 
REMARK    2  A    between atoms: C3_10  and  O1_1 
REMARK    3  A    between atoms: C14_21  and  N1_7 
REMARK    4  A    between atoms: C10_17  and  C7_14 
ROOT
HETATM    1  O1  UNK     1      18.585   6.746  34.015  1.00  0.00    -0.274 OA
ENDROOT
BRANCH   1   2
HETATM    2  C10 UNK     1      19.612   6.496  33.152  1.00  0.00     0.298 C 
HETATM    3  O3  UNK     1      20.704   7.042  33.121  1.00  0.00    -0.259 OA
BRANCH   2   4
HETATM    4  C7  UNK     1      19.214   5.439  32.185  1.00  0.00     0.040 A 
HETATM    5  C12 UNK     1      19.639   5.540  30.878  1.00  0.00     0.020 A 
HETATM    6  C15 UNK     1      19.267   4.548  29.971  1.00  0.00     0.037 A 
HETATM    7  C14 UNK     1      18.477   3.479  30.392  1.00  0.00     0.102 A 
HETATM    8  C16 UNK     1      18.060   3.400  31.721  1.00  0.00     0.037 A 
HETATM    9  C13 UNK     1      18.433   4.393  32.628  1.00  0.00     0.020 A 
BRANCH   7  10
HETATM   10  N1  UNK     1      18.098   2.469  29.469  1.00  0.00    -0.116 N 
HETATM   11  O5  UNK     1      18.009   2.760  28.251  1.00  0.00    -0.532 OA
HETATM   12  O6  UNK     1      17.862   1.312  29.895  1.00  0.00    -0.532 OA
ENDBRANCH   7  10
ENDBRANCH   2   4
ENDBRANCH   1   2
BRANCH   1  13
HETATM   13  C3  UNK     1      18.034   8.006  33.894  1.00  0.00     0.098 A 
HETATM   14  C1  UNK     1      16.620   8.162  33.540  1.00  0.00     0.032 A 
HETATM   15  C2  UNK     1      16.126   9.461  33.398  1.00  0.00     0.092 A 
HETATM   16  C4  UNK     1      15.721   7.105  33.342  1.00  0.00     0.017 A 
HETATM   17  O2  UNK     1      16.957  10.585  33.601  1.00  0.00    -0.275 OA
HETATM   18  C5  UNK     1      14.797   9.726  33.060  1.00  0.00     0.038 A 
HETATM   19  C11 UNK     1      18.288  10.454  33.966  1.00  0.00     0.290 A 
HETATM   20  O4  UNK     1      19.009  11.426  34.162  1.00  0.00    -0.260 OA
HETATM   21  C6  UNK     1      18.802   9.081  34.097  1.00  0.00     0.120 A 
HETATM   22  C9  UNK     1      13.925   8.662  32.861  1.00  0.00     0.003 A 
HETATM   23  C8  UNK     1      14.384   7.354  33.005  1.00  0.00     0.001 A 
ENDBRANCH   1  13
TORSDOF 4
ENDMDL
MODEL 6
REMARK VINA RESULT:      -8.4      8.004     11.966
REMARK  4 active torsions:
REMARK  status: ('A' for Active; 'I' for Inactive)
REMARK    1  A    between atoms: C10_17  and  O1_1 
REMARK    2  A    between atoms: C3_10  and  O1_1 
REMARK    3  A    between atoms: C14_21  and  N1_7 
REMARK    4  A    between atoms: C10_17  and  C7_14 
ROOT
HETATM    1  O1  UNK     1      17.628   4.477  31.945  1.00  0.00    -0.274 OA
ENDROOT
BRANCH   1   2
HETATM    2  C10 UNK     1      17.917   3.265  32.503  1.00  0.00     0.298 C 
HETATM    3  O3  UNK     1      17.825   2.950  33.680  1.00  0.00    -0.259 OA
BRANCH   2   4
HETATM    4  C7  UNK     1      18.406   2.330  31.457  1.00  0.00     0.040 A 
HETATM    5  C12 UNK     1      18.237   2.668  30.132  1.00  0.00     0.020 A 
HETATM    6  C15 UNK     1      18.698   1.791  29.149  1.00  0.00     0.037 A 
HETATM    7  C14 UNK     1      19.315   0.595  29.517  1.00  0.00     0.102 A 
HETATM    8  C16 UNK     1      19.473   0.277  30.865  1.00  0.00     0.037 A 
HETATM    9  C13 UNK     1      19.013   1.155  31.847  1.00  0.00     0.020 A 
BRANCH   7  10
HETATM   10  N1  UNK     1      19.784  -0.298  28.517  1.00  0.00    -0.116 N 
HETATM   11  O5  UNK     1      19.089  -0.478  27.487  1.00  0.00    -0.532 OA
HETATM   12  O6  UNK     1      20.880  -0.883  28.690  1.00  0.00    -0.532 OA
ENDBRANCH   7  10
ENDBRANCH   2   4
ENDBRANCH   1   2
BRANCH   1  13
HETATM   13  C3  UNK     1      18.381   5.524  32.437  1.00  0.00     0.098 A 
HETATM   14  C1  UNK     1      17.722   6.674  33.064  1.00  0.00     0.032 A 
HETATM   15  C2  UNK     1      18.533   7.721  33.512  1.00  0.00     0.092 A 
HETATM   16  C4  UNK     1      16.340   6.801  33.258  1.00  0.00     0.017 A 
HETATM   17  O2  UNK     1      19.937   7.666  33.378  1.00  0.00    -0.275 OA
HETATM   18  C5  UNK     1      18.012   8.864  34.121  1.00  0.00     0.038 A 
HETATM   19  C11 UNK     1      20.577   6.572  32.814  1.00  0.00     0.290 A 
HETATM   20  O4  UNK     1      21.797   6.511  32.713  1.00  0.00    -0.260 OA
HETATM   21  C6  UNK     1      19.713   5.483  32.331  1.00  0.00     0.120 A 
HETATM   22  C9  UNK     1      16.637   8.972  34.296  1.00  0.00     0.003 A 
HETATM   23  C8  UNK     1      15.803   7.941  33.868  1.00  0.00     0.001 A 
ENDBRANCH   1  13
TORSDOF 4
ENDMDL
MODEL 7
REMARK VINA RESULT:      -8.4      7.371     10.259
REMARK  4 active torsions:
REMARK  status: ('A' for Active; 'I' for Inactive)
REMARK    1  A    between atoms: C10_17  and  O1_1 
REMARK    2  A    between atoms: C3_10  and  O1_1 
REMARK    3  A    between atoms: C14_21  and  N1_7 
REMARK    4  A    between atoms: C10_17  and  C7_14 
ROOT
HETATM    1  O1  UNK     1      18.078   4.142  30.867  1.00  0.00    -0.274 OA
ENDROOT
BRANCH   1   2
HETATM    2  C10 UNK     1      19.071   5.075  30.946  1.00  0.00     0.298 C 
HETATM    3  O3  UNK     1      20.194   5.005  30.471  1.00  0.00    -0.259 OA
BRANCH   2   4
HETATM    4  C7  UNK     1      18.606   6.241  31.742  1.00  0.00     0.040 A 
HETATM    5  C12 UNK     1      17.404   6.832  31.416  1.00  0.00     0.020 A 
HETATM    6  C15 UNK     1      16.967   7.925  32.164  1.00  0.00     0.037 A 
HETATM    7  C14 UNK     1      17.744   8.403  33.220  1.00  0.00     0.102 A 
HETATM    8  C16 UNK     1      18.956   7.787  33.529  1.00  0.00     0.037 A 
HETATM    9  C13 UNK     1      19.393   6.692  32.781  1.00  0.00     0.020 A 
BRANCH   7  10
HETATM   10  N1  UNK     1      17.299   9.516  33.981  1.00  0.00    -0.116 N 
HETATM   11  O5  UNK     1      17.672  10.667  33.650  1.00  0.00    -0.532 OA
HETATM   12  O6  UNK     1      16.544   9.318  34.964  1.00  0.00    -0.532 OA
ENDBRANCH   7  10
ENDBRANCH   2   4
ENDBRANCH   1   2
BRANCH   1  13
HETATM   13  C3  UNK     1      18.312   2.999  31.607  1.00  0.00     0.098 A 
HETATM   14  C1  UNK     1      18.850   1.799  30.958  1.00  0.00     0.032 A 
HETATM   15  C2  UNK     1      19.034   0.661  31.749  1.00  0.00     0.092 A 
HETATM   16  C4  UNK     1      19.206   1.708  29.606  1.00  0.00     0.017 A 
HETATM   17  O2  UNK     1      18.724   0.672  33.126  1.00  0.00    -0.275 OA
HETATM   18  C5  UNK     1      19.537  -0.536  31.236  1.00  0.00     0.038 A 
HETATM   19  C11 UNK     1      18.242   1.807  33.760  1.00  0.00     0.290 A 
HETATM   20  O4  UNK     1      17.990   1.827  34.960  1.00  0.00    -0.260 OA
HETATM   21  C6  UNK     1      18.038   2.995  32.915  1.00  0.00     0.120 A 
HETATM   22  C9  UNK     1      19.876  -0.605  29.889  1.00  0.00     0.003 A 
HETATM   23  C8  UNK     1      19.713   0.515  29.076  1.00  0.00     0.001 A 
ENDBRANCH   1  13
TORSDOF 4
ENDMDL
MODEL 8
REMARK VINA RESULT:      -8.4     18.694     20.837
REMARK  4 active torsions:
REMARK  status: ('A' for Active; 'I' for Inactive)
REMARK    1  A    between atoms: C10_17  and  O1_1 
REMARK    2  A    between atoms: C3_10  and  O1_1 
REMARK    3  A    between atoms: C14_21  and  N1_7 
REMARK    4  A    between atoms: C10_17  and  C7_14 
ROOT
HETATM    1  O1  UNK     1      19.623  -1.972  15.860  1.00  0.00    -0.274 OA
ENDROOT
BRANCH   1   2
HETATM    2  C10 UNK     1      18.529  -1.577  16.574  1.00  0.00     0.298 C 
HETATM    3  O3  UNK     1      17.401  -2.044  16.522  1.00  0.00    -0.259 OA
BRANCH   2   4
HETATM    4  C7  UNK     1      18.885  -0.433  17.453  1.00  0.00     0.040 A 
HETATM    5  C12 UNK     1      19.211  -0.682  18.769  1.00  0.00     0.020 A 
HETATM    6  C15 UNK     1      19.547   0.391  19.594  1.00  0.00     0.037 A 
HETATM    7  C14 UNK     1      19.547   1.689  19.084  1.00  0.00     0.102 A 
HETATM    8  C16 UNK     1      19.214   1.914  17.749  1.00  0.00     0.037 A 
HETATM    9  C13 UNK     1      18.878   0.840  16.923  1.00  0.00     0.020 A 
BRANCH   7  10
HETATM   10  N1  UNK     1      19.889   2.782  19.924  1.00  0.00    -0.116 N 
HETATM   11  O5  UNK     1      19.704   2.680  21.161  1.00  0.00    -0.532 OA
HETATM   12  O6  UNK     1      20.366   3.821  19.406  1.00  0.00    -0.532 OA
ENDBRANCH   7  10
ENDBRANCH   2   4
ENDBRANCH   1   2
BRANCH   1  13
HETATM   13  C3  UNK     1      19.359  -2.286  14.542  1.00  0.00     0.098 A 
HETATM   14  C1  UNK     1      19.291  -3.688  14.117  1.00  0.00     0.032 A 
HETATM   15  C2  UNK     1      19.055  -3.945  12.764  1.00  0.00     0.092 A 
HETATM   16  C4  UNK     1      19.434  -4.793  14.968  1.00  0.00     0.017 A 
HETATM   17  O2  UNK     1      18.875  -2.892  11.841  1.00  0.00    -0.275 OA
HETATM   18  C5  UNK     1      18.973  -5.241  12.250  1.00  0.00     0.038 A 
HETATM   19  C11 UNK     1      18.908  -1.562  12.232  1.00  0.00     0.290 A 
HETATM   20  O4  UNK     1      18.733  -0.644  11.438  1.00  0.00    -0.260 OA
HETATM   21  C6  UNK     1      19.172  -1.302  13.656  1.00  0.00     0.120 A 
HETATM   22  C9  UNK     1      19.126  -6.322  13.112  1.00  0.00     0.003 A 
HETATM   23  C8  UNK     1      19.353  -6.098  14.468  1.00  0.00     0.001 A 
ENDBRANCH   1  13
TORSDOF 4
ENDMDL
MODEL 9
REMARK VINA RESULT:      -8.3      1.571      1.946
REMARK  4 active torsions:
REMARK  status: ('A' for Active; 'I' for Inactive)
REMARK    1  A    between atoms: C10_17  and  O1_1 
REMARK    2  A    between atoms: C3_10  and  O1_1 
REMARK    3  A    between atoms: C14_21  and  N1_7 
REMARK    4  A    between atoms: C10_17  and  C7_14 
ROOT
HETATM    1  O1  UNK     1      20.206  -3.728  37.437  1.00  0.00    -0.274 OA
ENDROOT
BRANCH   1   2
HETATM    2  C10 UNK     1      20.506  -2.812  36.471  1.00  0.00     0.298 C 
HETATM    3  O3  UNK     1      21.583  -2.641  35.919  1.00  0.00    -0.259 OA
BRANCH   2   4
HETATM    4  C7  UNK     1      19.310  -1.983  36.171  1.00  0.00     0.040 A 
HETATM    5  C12 UNK     1      19.120  -1.532  34.883  1.00  0.00     0.020 A 
HETATM    6  C15 UNK     1      17.996  -0.755  34.600  1.00  0.00     0.037 A 
HETATM    7  C14 UNK     1      17.090  -0.447  35.614  1.00  0.00     0.102 A 
HETATM    8  C16 UNK     1      17.305  -0.915  36.909  1.00  0.00     0.037 A 
HETATM    9  C13 UNK     1      18.429  -1.693  37.191  1.00  0.00     0.020 A 
BRANCH   7  10
HETATM   10  N1  UNK     1      15.946   0.345  35.326  1.00  0.00    -0.116 N 
HETATM   11  O5  UNK     1      15.128   0.589  36.246  1.00  0.00    -0.532 OA
HETATM   12  O6  UNK     1      15.784   0.779  34.159  1.00  0.00    -0.532 OA
ENDBRANCH   7  10
ENDBRANCH   2   4
ENDBRANCH   1   2
BRANCH   1  13
HETATM   13  C3  UNK     1      20.282  -5.042  37.018  1.00  0.00     0.098 A 
HETATM   14  C1  UNK     1      21.287  -5.941  37.593  1.00  0.00     0.032 A 
HETATM   15  C2  UNK     1      21.340  -7.250  37.106  1.00  0.00     0.092 A 
HETATM   16  C4  UNK     1      22.193  -5.593  38.603  1.00  0.00     0.017 A 
HETATM   17  O2  UNK     1      20.449  -7.694  36.105  1.00  0.00    -0.275 OA
HETATM   18  C5  UNK     1      22.258  -8.190  37.580  1.00  0.00     0.038 A 
HETATM   19  C11 UNK     1      19.474  -6.863  35.572  1.00  0.00     0.290 A 
HETATM   20  O4  UNK     1      18.686  -7.249  34.716  1.00  0.00    -0.260 OA
HETATM   21  C6  UNK     1      19.437  -5.483  36.080  1.00  0.00     0.120 A 
HETATM   22  C9  UNK     1      23.153  -7.819  38.577  1.00  0.00     0.003 A 
HETATM   23  C8  UNK     1      23.119  -6.524  39.090  1.00  0.00     0.001 A 
ENDBRANCH   1  13
TORSDOF 4
ENDMDL
MODEL 10
REMARK VINA RESULT:      -8.3      8.209     12.465
REMARK  4 active torsions:
REMARK  status: ('A' for Active; 'I' for Inactive)
REMARK    1  A    between atoms: C10_17  and  O1_1 
REMARK    2  A    between atoms: C3_10  and  O1_1 
REMARK    3  A    between atoms: C14_21  and  N1_7 
REMARK    4  A    between atoms: C10_17  and  C7_14 
ROOT
HETATM    1  O1  UNK     1      18.715   4.992  31.782  1.00  0.00    -0.274 OA
ENDROOT
BRANCH   1   2
HETATM    2  C10 UNK     1      18.277   3.785  32.242  1.00  0.00     0.298 C 
HETATM    3  O3  UNK     1      17.707   3.555  33.298  1.00  0.00    -0.259 OA
BRANCH   2   4
HETATM    4  C7  UNK     1      18.615   2.718  31.264  1.00  0.00     0.040 A 
HETATM    5  C12 UNK     1      18.477   2.982  29.918  1.00  0.00     0.020 A 
HETATM    6  C15 UNK     1      18.795   1.982  29.000  1.00  0.00     0.037 A 
HETATM    7  C14 UNK     1      19.244   0.740  29.449  1.00  0.00     0.102 A 
HETATM    8  C16 UNK     1      19.375   0.498  30.817  1.00  0.00     0.037 A 
HETATM    9  C13 UNK     1      19.057   1.500  31.735  1.00  0.00     0.020 A 
BRANCH   7  10
HETATM   10  N1  UNK     1      19.568  -0.279  28.514  1.00  0.00    -0.116 N 
HETATM   11  O5  UNK     1      18.892  -0.377  27.462  1.00  0.00    -0.532 OA
HETATM   12  O6  UNK     1      20.523  -1.053  28.766  1.00  0.00    -0.532 OA
ENDBRANCH   7  10
ENDBRANCH   2   4
ENDBRANCH   1   2
BRANCH   1  13
HETATM   13  C3  UNK     1      17.883   6.052  32.084  1.00  0.00     0.098 A 
HETATM   14  C1  UNK     1      18.382   7.177  32.880  1.00  0.00     0.032 A 
HETATM   15  C2  UNK     1      17.486   8.206  33.185  1.00  0.00     0.092 A 
HETATM   16  C4  UNK     1      19.696   7.307  33.352  1.00  0.00     0.017 A 
HETATM   17  O2  UNK     1      16.150   8.168  32.730  1.00  0.00    -0.275 OA
HETATM   18  C5  UNK     1      17.853   9.322  33.938  1.00  0.00     0.038 A 
HETATM   19  C11 UNK     1      15.671   7.125  31.952  1.00  0.00     0.290 A 
HETATM   20  O4  UNK     1      14.517   7.096  31.538  1.00  0.00    -0.260 OA
HETATM   21  C6  UNK     1      16.618   6.040  31.650  1.00  0.00     0.120 A 
HETATM   22  C9  UNK     1      19.160   9.426  34.402  1.00  0.00     0.003 A 
HETATM   23  C8  UNK     1      20.080   8.422  34.107  1.00  0.00     0.001 A 
ENDBRANCH   1  13
TORSDOF 4
ENDMDL
