MODEL 1
REMARK VINA RESULT:      -9.0      0.000      0.000
REMARK  6 active torsions:
REMARK  status: ('A' for Active; 'I' for Inactive)
REMARK    1  A    between atoms: C2_8  and  O1_1 
REMARK    2  A    between atoms: C5_11  and  O1_1 
REMARK       I    between atoms: C18_24  and  N1_5 
REMARK    3  A    between atoms: N1_5  and  N2_6 
REMARK    4  A    between atoms: C1_7  and  C2_8 
REMARK    5  A    between atoms: C18_24  and  C9_15 
REMARK    6  A    between atoms: C14_20  and  C21_27 
ROOT
HETATM    1  O4  UNK     1      21.251  -3.406  32.177  1.00  0.00    -0.266 OA
HETATM    2  N1  UNK     1      20.102  -2.650  34.039  1.00  0.00    -0.243 N 
HETATM    3  C18 UNK     1      20.542  -2.570  32.731  1.00  0.00     0.271 C 
HETATM    4  H20 UNK     1      19.564  -1.925  34.503  1.00  0.00     0.192 HD
ENDROOT
BRANCH   2   5
HETATM    5  N2  UNK     1      20.469  -3.723  34.780  1.00  0.00    -0.183 NA
HETATM    6  C21 UNK     1      19.666  -3.985  35.761  1.00  0.00     0.156 C 
BRANCH   6   7
HETATM    7  C14 UNK     1      19.886  -5.103  36.678  1.00  0.00     0.056 A 
HETATM    8  C13 UNK     1      19.194  -6.405  36.564  1.00  0.00     0.198 A 
HETATM    9  O3  UNK     1      18.378  -6.634  35.682  1.00  0.00    -0.286 OA
HETATM   10  C6  UNK     1      19.547  -7.414  37.581  1.00  0.00     0.049 A 
HETATM   11  C10 UNK     1      20.484  -7.090  38.563  1.00  0.00     0.089 A 
HETATM   12  C15 UNK     1      18.951  -8.678  37.565  1.00  0.00     0.018 A 
HETATM   13  O2  UNK     1      21.100  -5.864  38.627  1.00  0.00    -0.321 OA
HETATM   14  C16 UNK     1      20.830  -8.028  39.535  1.00  0.00     0.038 A 
HETATM   15  C17 UNK     1      20.764  -4.932  37.673  1.00  0.00     0.159 A 
HETATM   16  C20 UNK     1      20.237  -9.291  39.522  1.00  0.00     0.003 A 
HETATM   17  C19 UNK     1      19.301  -9.615  38.539  1.00  0.00     0.001 A 
ENDBRANCH   6   7
ENDBRANCH   2   5
BRANCH   3  18
HETATM   18  C9  UNK     1      20.122  -1.357  31.981  1.00  0.00     0.033 A 
HETATM   19  C11 UNK     1      20.762  -1.053  30.797  1.00  0.00     0.020 A 
HETATM   20  C7  UNK     1      20.368   0.084  30.092  1.00  0.00     0.038 A 
HETATM   21  C5  UNK     1      19.344   0.892  30.588  1.00  0.00     0.068 A 
HETATM   22  C8  UNK     1      18.714   0.562  31.787  1.00  0.00     0.038 A 
HETATM   23  C12 UNK     1      19.107  -0.575  32.493  1.00  0.00     0.020 A 
BRANCH  21  24
HETATM   24  O1  UNK     1      18.958   2.000  29.899  1.00  0.00    -0.351 OA
BRANCH  24  25
HETATM   25  C2  UNK     1      18.085   2.909  30.568  1.00  0.00     0.179 C 
BRANCH  25  26
HETATM   26  C1  UNK     1      18.881   4.107  31.094  1.00  0.00     0.002 C 
HETATM   27  C3  UNK     1      18.126   4.790  32.232  1.00  0.00     0.011 C 
HETATM   28  C4  UNK     1      19.183   5.109  29.978  1.00  0.00     0.011 C 
ENDBRANCH  25  26
ENDBRANCH  24  25
ENDBRANCH  21  24
ENDBRANCH   3  18
TORSDOF 6
ENDMDL
MODEL 2
REMARK VINA RESULT:      -8.9      2.366      3.247
REMARK  6 active torsions:
REMARK  status: ('A' for Active; 'I' for Inactive)
REMARK    1  A    between atoms: C2_8  and  O1_1 
REMARK    2  A    between atoms: C5_11  and  O1_1 
REMARK       I    between atoms: C18_24  and  N1_5 
REMARK    3  A    between atoms: N1_5  and  N2_6 
REMARK    4  A    between atoms: C1_7  and  C2_8 
REMARK    5  A    between atoms: C18_24  and  C9_15 
REMARK    6  A    between atoms: C14_20  and  C21_27 
ROOT
HETATM    1  O4  UNK     1      17.840  -0.530  37.331  1.00  0.00    -0.266 OA
HETATM    2  N1  UNK     1      19.312  -1.643  35.933  1.00  0.00    -0.243 N 
HETATM    3  C18 UNK     1      18.490  -0.590  36.291  1.00  0.00     0.271 C 
HETATM    4  H20 UNK     1      19.799  -1.706  35.045  1.00  0.00     0.192 HD
ENDROOT
BRANCH   2   5
HETATM    5  N2  UNK     1      19.419  -2.695  36.779  1.00  0.00    -0.183 NA
HETATM    6  C21 UNK     1      19.686  -3.818  36.192  1.00  0.00     0.156 C 
BRANCH   6   7
HETATM    7  C14 UNK     1      19.842  -5.071  36.930  1.00  0.00     0.056 A 
HETATM    8  C13 UNK     1      21.083  -5.457  37.638  1.00  0.00     0.198 A 
HETATM    9  O3  UNK     1      22.075  -4.741  37.650  1.00  0.00    -0.286 OA
HETATM   10  C6  UNK     1      21.052  -6.760  38.328  1.00  0.00     0.049 A 
HETATM   11  C10 UNK     1      19.890  -7.530  38.274  1.00  0.00     0.089 A 
HETATM   12  C15 UNK     1      22.171  -7.220  39.027  1.00  0.00     0.018 A 
HETATM   13  O2  UNK     1      18.762  -7.128  37.602  1.00  0.00    -0.321 OA
HETATM   14  C16 UNK     1      19.841  -8.766  38.919  1.00  0.00     0.038 A 
HETATM   15  C17 UNK     1      18.801  -5.911  36.964  1.00  0.00     0.159 A 
HETATM   16  C20 UNK     1      20.956  -9.229  39.617  1.00  0.00     0.003 A 
HETATM   17  C19 UNK     1      22.118  -8.457  39.671  1.00  0.00     0.001 A 
ENDBRANCH   6   7
ENDBRANCH   2   5
BRANCH   3  18
HETATM   18  C9  UNK     1      18.400   0.522  35.309  1.00  0.00     0.033 A 
HETATM   19  C11 UNK     1      18.312   0.218  33.966  1.00  0.00     0.020 A 
HETATM   20  C7  UNK     1      18.227   1.260  33.044  1.00  0.00     0.038 A 
HETATM   21  C5  UNK     1      18.230   2.584  33.485  1.00  0.00     0.068 A 
HETATM   22  C8  UNK     1      18.319   2.864  34.848  1.00  0.00     0.038 A 
HETATM   23  C12 UNK     1      18.405   1.822  35.771  1.00  0.00     0.020 A 
BRANCH  21  24
HETATM   24  O1  UNK     1      18.144   3.601  32.586  1.00  0.00    -0.351 OA
BRANCH  24  25
HETATM   25  C2  UNK     1      18.172   4.930  33.104  1.00  0.00     0.179 C 
BRANCH  25  26
HETATM   26  C1  UNK     1      18.983   5.837  32.173  1.00  0.00     0.002 C 
HETATM   27  C3  UNK     1      19.411   5.071  30.922  1.00  0.00     0.011 C 
HETATM   28  C4  UNK     1      20.205   6.417  32.886  1.00  0.00     0.011 C 
ENDBRANCH  25  26
ENDBRANCH  24  25
ENDBRANCH  21  24
ENDBRANCH   3  18
TORSDOF 6
ENDMDL
MODEL 3
REMARK VINA RESULT:      -8.9      2.388      3.038
REMARK  6 active torsions:
REMARK  status: ('A' for Active; 'I' for Inactive)
REMARK    1  A    between atoms: C2_8  and  O1_1 
REMARK    2  A    between atoms: C5_11  and  O1_1 
REMARK       I    between atoms: C18_24  and  N1_5 
REMARK    3  A    between atoms: N1_5  and  N2_6 
REMARK    4  A    between atoms: C1_7  and  C2_8 
REMARK    5  A    between atoms: C18_24  and  C9_15 
REMARK    6  A    between atoms: C14_20  and  C21_27 
ROOT
HETATM    1  O4  UNK     1      17.963  -0.511  37.582  1.00  0.00    -0.266 OA
HETATM    2  N1  UNK     1      19.237  -1.698  36.056  1.00  0.00    -0.243 N 
HETATM    3  C18 UNK     1      18.518  -0.599  36.490  1.00  0.00     0.271 C 
HETATM    4  H20 UNK     1      19.642  -1.781  35.129  1.00  0.00     0.192 HD
ENDROOT
BRANCH   2   5
HETATM    5  N2  UNK     1      19.350  -2.764  36.884  1.00  0.00    -0.183 NA
HETATM    6  C21 UNK     1      20.094  -3.715  36.418  1.00  0.00     0.156 C 
BRANCH   6   7
HETATM    7  C14 UNK     1      20.342  -4.952  37.160  1.00  0.00     0.056 A 
HETATM    8  C13 UNK     1      19.403  -6.095  37.183  1.00  0.00     0.198 A 
HETATM    9  O3  UNK     1      18.341  -6.078  36.576  1.00  0.00    -0.286 OA
HETATM   10  C6  UNK     1      19.824  -7.258  37.986  1.00  0.00     0.049 A 
HETATM   11  C10 UNK     1      21.047  -7.213  38.658  1.00  0.00     0.089 A 
HETATM   12  C15 UNK     1      19.012  -8.392  38.077  1.00  0.00     0.018 A 
HETATM   13  O2  UNK     1      21.885  -6.127  38.605  1.00  0.00    -0.321 OA
HETATM   14  C16 UNK     1      21.463  -8.302  39.424  1.00  0.00     0.038 A 
HETATM   15  C17 UNK     1      21.482  -5.048  37.852  1.00  0.00     0.159 A 
HETATM   16  C20 UNK     1      20.655  -9.435  39.516  1.00  0.00     0.003 A 
HETATM   17  C19 UNK     1      19.432  -9.479  38.844  1.00  0.00     0.001 A 
ENDBRANCH   6   7
ENDBRANCH   2   5
BRANCH   3  18
HETATM   18  C9  UNK     1      18.414   0.527  35.525  1.00  0.00     0.033 A 
HETATM   19  C11 UNK     1      18.548   1.818  35.994  1.00  0.00     0.020 A 
HETATM   20  C7  UNK     1      18.451   2.875  35.089  1.00  0.00     0.038 A 
HETATM   21  C5  UNK     1      18.222   2.618  33.738  1.00  0.00     0.068 A 
HETATM   22  C8  UNK     1      18.090   1.304  33.290  1.00  0.00     0.038 A 
HETATM   23  C12 UNK     1      18.187   0.245  34.194  1.00  0.00     0.020 A 
BRANCH  21  24
HETATM   24  O1  UNK     1      18.130   3.649  32.855  1.00  0.00    -0.351 OA
BRANCH  24  25
HETATM   25  C2  UNK     1      18.268   4.968  33.381  1.00  0.00     0.179 C 
BRANCH  25  26
HETATM   26  C1  UNK     1      18.942   5.875  32.347  1.00  0.00     0.002 C 
HETATM   27  C3  UNK     1      19.230   5.098  31.063  1.00  0.00     0.011 C 
HETATM   28  C4  UNK     1      20.231   6.487  32.899  1.00  0.00     0.011 C 
ENDBRANCH  25  26
ENDBRANCH  24  25
ENDBRANCH  21  24
ENDBRANCH   3  18
TORSDOF 6
ENDMDL
MODEL 4
REMARK VINA RESULT:      -8.8      2.427      3.099
REMARK  6 active torsions:
REMARK  status: ('A' for Active; 'I' for Inactive)
REMARK    1  A    between atoms: C2_8  and  O1_1 
REMARK    2  A    between atoms: C5_11  and  O1_1 
REMARK       I    between atoms: C18_24  and  N1_5 
REMARK    3  A    between atoms: N1_5  and  N2_6 
REMARK    4  A    between atoms: C1_7  and  C2_8 
REMARK    5  A    between atoms: C18_24  and  C9_15 
REMARK    6  A    between atoms: C14_20  and  C21_27 
ROOT
HETATM    1  O4  UNK     1      18.207  -2.126  36.856  1.00  0.00    -0.266 OA
HETATM    2  N1  UNK     1      20.096  -2.444  35.556  1.00  0.00    -0.243 N 
HETATM    3  C18 UNK     1      18.971  -1.755  35.969  1.00  0.00     0.271 C 
HETATM    4  H20 UNK     1      20.687  -2.155  34.783  1.00  0.00     0.192 HD
ENDROOT
BRANCH   2   5
HETATM    5  N2  UNK     1      20.394  -3.617  36.164  1.00  0.00    -0.183 NA
HETATM    6  C21 UNK     1      19.863  -4.653  35.598  1.00  0.00     0.156 C 
BRANCH   6   7
HETATM    7  C14 UNK     1      20.064  -6.012  36.102  1.00  0.00     0.056 A 
HETATM    8  C13 UNK     1      20.596  -7.120  35.279  1.00  0.00     0.198 A 
HETATM    9  O3  UNK     1      20.905  -6.970  34.105  1.00  0.00    -0.286 OA
HETATM   10  C6  UNK     1      20.730  -8.422  35.960  1.00  0.00     0.049 A 
HETATM   11  C10 UNK     1      20.358  -8.528  37.301  1.00  0.00     0.089 A 
HETATM   12  C15 UNK     1      21.223  -9.536  35.275  1.00  0.00     0.018 A 
HETATM   13  O2  UNK     1      19.868  -7.468  38.023  1.00  0.00    -0.321 OA
HETATM   14  C16 UNK     1      20.475  -9.750  37.964  1.00  0.00     0.038 A 
HETATM   15  C17 UNK     1      19.749  -6.259  37.378  1.00  0.00     0.159 A 
HETATM   16  C20 UNK     1      20.967 -10.863  37.282  1.00  0.00     0.003 A 
HETATM   17  C19 UNK     1      21.339 -10.756  35.941  1.00  0.00     0.001 A 
ENDBRANCH   6   7
ENDBRANCH   2   5
BRANCH   3  18
HETATM   18  C9  UNK     1      18.688  -0.487  35.246  1.00  0.00     0.033 A 
HETATM   19  C11 UNK     1      18.632   0.689  35.965  1.00  0.00     0.020 A 
HETATM   20  C7  UNK     1      18.367   1.880  35.288  1.00  0.00     0.038 A 
HETATM   21  C5  UNK     1      18.165   1.867  33.908  1.00  0.00     0.068 A 
HETATM   22  C8  UNK     1      18.229   0.664  33.205  1.00  0.00     0.038 A 
HETATM   23  C12 UNK     1      18.493  -0.527  33.881  1.00  0.00     0.020 A 
BRANCH  21  24
HETATM   24  O1  UNK     1      17.910   3.028  33.246  1.00  0.00    -0.351 OA
BRANCH  24  25
HETATM   25  C2  UNK     1      18.485   4.219  33.780  1.00  0.00     0.179 C 
BRANCH  25  26
HETATM   26  C1  UNK     1      18.606   5.279  32.681  1.00  0.00     0.002 C 
HETATM   27  C3  UNK     1      18.691   4.616  31.308  1.00  0.00     0.011 C 
HETATM   28  C4  UNK     1      19.816   6.186  32.911  1.00  0.00     0.011 C 
ENDBRANCH  25  26
ENDBRANCH  24  25
ENDBRANCH  21  24
ENDBRANCH   3  18
TORSDOF 6
ENDMDL
MODEL 5
REMARK VINA RESULT:      -8.8      6.455     10.045
REMARK  6 active torsions:
REMARK  status: ('A' for Active; 'I' for Inactive)
REMARK    1  A    between atoms: C2_8  and  O1_1 
REMARK    2  A    between atoms: C5_11  and  O1_1 
REMARK       I    between atoms: C18_24  and  N1_5 
REMARK    3  A    between atoms: N1_5  and  N2_6 
REMARK    4  A    between atoms: C1_7  and  C2_8 
REMARK    5  A    between atoms: C18_24  and  C9_15 
REMARK    6  A    between atoms: C14_20  and  C21_27 
ROOT
HETATM    1  O4  UNK     1      19.443   5.921  33.620  1.00  0.00    -0.266 OA
HETATM    2  N1  UNK     1      17.990   5.814  31.821  1.00  0.00    -0.243 N 
HETATM    3  C18 UNK     1      18.456   6.332  33.016  1.00  0.00     0.271 C 
HETATM    4  H20 UNK     1      17.140   6.125  31.362  1.00  0.00     0.192 HD
ENDROOT
BRANCH   2   5
HETATM    5  N2  UNK     1      18.658   4.778  31.261  1.00  0.00    -0.183 NA
HETATM    6  C21 UNK     1      18.038   3.645  31.343  1.00  0.00     0.156 C 
BRANCH   6   7
HETATM    7  C14 UNK     1      18.592   2.406  30.799  1.00  0.00     0.056 A 
HETATM    8  C13 UNK     1      18.898   1.215  31.621  1.00  0.00     0.198 A 
HETATM    9  O3  UNK     1      18.706   1.190  32.828  1.00  0.00    -0.286 OA
HETATM   10  C6  UNK     1      19.452   0.056  30.895  1.00  0.00     0.049 A 
HETATM   11  C10 UNK     1      19.651   0.149  29.517  1.00  0.00     0.089 A 
HETATM   12  C15 UNK     1      19.777  -1.120  31.576  1.00  0.00     0.018 A 
HETATM   13  O2  UNK     1      19.351   1.279  28.797  1.00  0.00    -0.321 OA
HETATM   14  C16 UNK     1      20.175  -0.934  28.812  1.00  0.00     0.038 A 
HETATM   15  C17 UNK     1      18.833   2.353  29.484  1.00  0.00     0.159 A 
HETATM   16  C20 UNK     1      20.500  -2.110  29.489  1.00  0.00     0.003 A 
HETATM   17  C19 UNK     1      20.301  -2.202  30.867  1.00  0.00     0.001 A 
ENDBRANCH   6   7
ENDBRANCH   2   5
BRANCH   3  18
HETATM   18  C9  UNK     1      17.664   7.452  33.588  1.00  0.00     0.033 A 
HETATM   19  C11 UNK     1      18.213   8.717  33.598  1.00  0.00     0.020 A 
HETATM   20  C7  UNK     1      17.471   9.769  34.134  1.00  0.00     0.038 A 
HETATM   21  C5  UNK     1      16.196   9.532  34.648  1.00  0.00     0.068 A 
HETATM   22  C8  UNK     1      15.664   8.243  34.625  1.00  0.00     0.038 A 
HETATM   23  C12 UNK     1      16.406   7.191  34.089  1.00  0.00     0.020 A 
BRANCH  21  24
HETATM   24  O1  UNK     1      15.470  10.559  35.169  1.00  0.00    -0.351 OA
BRANCH  24  25
HETATM   25  C2  UNK     1      14.102  10.652  34.775  1.00  0.00     0.179 C 
BRANCH  25  26
HETATM   26  C1  UNK     1      13.999  11.308  33.395  1.00  0.00     0.002 C 
HETATM   27  C3  UNK     1      14.570  12.724  33.434  1.00  0.00     0.011 C 
HETATM   28  C4  UNK     1      12.553  11.331  32.896  1.00  0.00     0.011 C 
ENDBRANCH  25  26
ENDBRANCH  24  25
ENDBRANCH  21  24
ENDBRANCH   3  18
TORSDOF 6
ENDMDL
MODEL 6
REMARK VINA RESULT:      -8.6      6.410     10.331
REMARK  6 active torsions:
REMARK  status: ('A' for Active; 'I' for Inactive)
REMARK    1  A    between atoms: C2_8  and  O1_1 
REMARK    2  A    between atoms: C5_11  and  O1_1 
REMARK       I    between atoms: C18_24  and  N1_5 
REMARK    3  A    between atoms: N1_5  and  N2_6 
REMARK    4  A    between atoms: C1_7  and  C2_8 
REMARK    5  A    between atoms: C18_24  and  C9_15 
REMARK    6  A    between atoms: C14_20  and  C21_27 
ROOT
HETATM    1  O4  UNK     1      19.513   6.693  34.158  1.00  0.00    -0.266 OA
HETATM    2  N1  UNK     1      17.553   5.720  33.403  1.00  0.00    -0.243 N 
HETATM    3  C18 UNK     1      18.325   6.773  33.857  1.00  0.00     0.271 C 
HETATM    4  H20 UNK     1      16.558   5.787  33.212  1.00  0.00     0.192 HD
ENDROOT
BRANCH   2   5
HETATM    5  N2  UNK     1      18.132   4.503  33.273  1.00  0.00    -0.183 NA
HETATM    6  C21 UNK     1      17.859   3.906  32.157  1.00  0.00     0.156 C 
BRANCH   6   7
HETATM    7  C14 UNK     1      18.387   2.583  31.826  1.00  0.00     0.056 A 
HETATM    8  C13 UNK     1      18.861   2.205  30.477  1.00  0.00     0.198 A 
HETATM    9  O3  UNK     1      18.841   2.986  29.536  1.00  0.00    -0.286 OA
HETATM   10  C6  UNK     1      19.361   0.824  30.333  1.00  0.00     0.049 A 
HETATM   11  C10 UNK     1      19.356  -0.019  31.445  1.00  0.00     0.089 A 
HETATM   12  C15 UNK     1      19.833   0.363  29.101  1.00  0.00     0.018 A 
HETATM   13  O2  UNK     1      18.904   0.379  32.678  1.00  0.00    -0.321 OA
HETATM   14  C16 UNK     1      19.822  -1.329  31.330  1.00  0.00     0.038 A 
HETATM   15  C17 UNK     1      18.442   1.669  32.801  1.00  0.00     0.159 A 
HETATM   16  C20 UNK     1      20.294  -1.792  30.102  1.00  0.00     0.003 A 
HETATM   17  C19 UNK     1      20.300  -0.947  28.990  1.00  0.00     0.001 A 
ENDBRANCH   6   7
ENDBRANCH   2   5
BRANCH   3  18
HETATM   18  C9  UNK     1      17.624   8.076  33.998  1.00  0.00     0.033 A 
HETATM   19  C11 UNK     1      16.285   8.078  34.328  1.00  0.00     0.020 A 
HETATM   20  C7  UNK     1      15.626   9.300  34.461  1.00  0.00     0.038 A 
HETATM   21  C5  UNK     1      16.322  10.493  34.260  1.00  0.00     0.068 A 
HETATM   22  C8  UNK     1      17.675  10.463  33.927  1.00  0.00     0.038 A 
HETATM   23  C12 UNK     1      18.335   9.241  33.794  1.00  0.00     0.020 A 
BRANCH  21  24
HETATM   24  O1  UNK     1      15.680  11.686  34.392  1.00  0.00    -0.351 OA
BRANCH  24  25
HETATM   25  C2  UNK     1      14.253  11.661  34.369  1.00  0.00     0.179 C 
BRANCH  25  26
HETATM   26  C1  UNK     1      13.749  11.918  32.946  1.00  0.00     0.002 C 
HETATM   27  C3  UNK     1      13.871  13.399  32.596  1.00  0.00     0.011 C 
HETATM   28  C4  UNK     1      12.304  11.447  32.774  1.00  0.00     0.011 C 
ENDBRANCH  25  26
ENDBRANCH  24  25
ENDBRANCH  21  24
ENDBRANCH   3  18
TORSDOF 6
ENDMDL
MODEL 7
REMARK VINA RESULT:      -8.6      1.800     10.671
REMARK  6 active torsions:
REMARK  status: ('A' for Active; 'I' for Inactive)
REMARK    1  A    between atoms: C2_8  and  O1_1 
REMARK    2  A    between atoms: C5_11  and  O1_1 
REMARK       I    between atoms: C18_24  and  N1_5 
REMARK    3  A    between atoms: N1_5  and  N2_6 
REMARK    4  A    between atoms: C1_7  and  C2_8 
REMARK    5  A    between atoms: C18_24  and  C9_15 
REMARK    6  A    between atoms: C14_20  and  C21_27 
ROOT
HETATM    1  O4  UNK     1      20.434  -3.817  34.710  1.00  0.00    -0.266 OA
HETATM    2  N1  UNK     1      19.582  -2.428  36.353  1.00  0.00    -0.243 N 
HETATM    3  C18 UNK     1      20.003  -3.643  35.846  1.00  0.00     0.271 C 
HETATM    4  H20 UNK     1      19.174  -2.308  37.275  1.00  0.00     0.192 HD
ENDROOT
BRANCH   2   5
HETATM    5  N2  UNK     1      19.642  -1.338  35.552  1.00  0.00    -0.183 NA
HETATM    6  C21 UNK     1      18.705  -1.288  34.660  1.00  0.00     0.156 C 
BRANCH   6   7
HETATM    7  C14 UNK     1      18.594  -0.191  33.698  1.00  0.00     0.056 A 
HETATM    8  C13 UNK     1      19.002  -0.300  32.280  1.00  0.00     0.198 A 
HETATM    9  O3  UNK     1      19.466  -1.331  31.814  1.00  0.00    -0.286 OA
HETATM   10  C6  UNK     1      18.815   0.912  31.461  1.00  0.00     0.049 A 
HETATM   11  C10 UNK     1      18.282   2.058  32.054  1.00  0.00     0.089 A 
HETATM   12  C15 UNK     1      19.167   0.918  30.108  1.00  0.00     0.018 A 
HETATM   13  O2  UNK     1      17.919   2.109  33.377  1.00  0.00    -0.321 OA
HETATM   14  C16 UNK     1      18.099   3.215  31.298  1.00  0.00     0.038 A 
HETATM   15  C17 UNK     1      18.096   0.972  34.131  1.00  0.00     0.159 A 
HETATM   16  C20 UNK     1      18.450   3.224  29.947  1.00  0.00     0.003 A 
HETATM   17  C19 UNK     1      18.982   2.078  29.355  1.00  0.00     0.001 A 
ENDBRANCH   6   7
ENDBRANCH   2   5
BRANCH   3  18
HETATM   18  C9  UNK     1      19.891  -4.803  36.769  1.00  0.00     0.033 A 
HETATM   19  C11 UNK     1      20.870  -4.991  37.723  1.00  0.00     0.020 A 
HETATM   20  C7  UNK     1      20.765  -6.079  38.590  1.00  0.00     0.038 A 
HETATM   21  C5  UNK     1      19.683  -6.953  38.484  1.00  0.00     0.068 A 
HETATM   22  C8  UNK     1      18.706  -6.739  37.512  1.00  0.00     0.038 A 
HETATM   23  C12 UNK     1      18.811  -5.652  36.644  1.00  0.00     0.020 A 
BRANCH  21  24
HETATM   24  O1  UNK     1      19.579  -8.012  39.331  1.00  0.00    -0.351 OA
BRANCH  24  25
HETATM   25  C2  UNK     1      20.526  -9.067  39.171  1.00  0.00     0.179 C 
BRANCH  25  26
HETATM   26  C1  UNK     1      20.332  -9.740  37.809  1.00  0.00     0.002 C 
HETATM   27  C3  UNK     1      19.649 -11.097  37.977  1.00  0.00     0.011 C 
HETATM   28  C4  UNK     1      21.663  -9.902  37.073  1.00  0.00     0.011 C 
ENDBRANCH  25  26
ENDBRANCH  24  25
ENDBRANCH  21  24
ENDBRANCH   3  18
TORSDOF 6
ENDMDL
MODEL 8
REMARK VINA RESULT:      -8.5      2.264     10.787
REMARK  6 active torsions:
REMARK  status: ('A' for Active; 'I' for Inactive)
REMARK    1  A    between atoms: C2_8  and  O1_1 
REMARK    2  A    between atoms: C5_11  and  O1_1 
REMARK       I    between atoms: C18_24  and  N1_5 
REMARK    3  A    between atoms: N1_5  and  N2_6 
REMARK    4  A    between atoms: C1_7  and  C2_8 
REMARK    5  A    between atoms: C18_24  and  C9_15 
REMARK    6  A    between atoms: C14_20  and  C21_27 
ROOT
HETATM    1  O4  UNK     1      21.305  -2.943  36.116  1.00  0.00    -0.266 OA
HETATM    2  N1  UNK     1      19.032  -2.783  35.704  1.00  0.00    -0.243 N 
HETATM    3  C18 UNK     1      20.165  -3.390  36.214  1.00  0.00     0.271 C 
HETATM    4  H20 UNK     1      18.104  -3.191  35.742  1.00  0.00     0.192 HD
ENDROOT
BRANCH   2   5
HETATM    5  N2  UNK     1      19.170  -1.609  35.043  1.00  0.00    -0.183 NA
HETATM    6  C21 UNK     1      18.342  -0.690  35.425  1.00  0.00     0.156 C 
BRANCH   6   7
HETATM    7  C14 UNK     1      18.329   0.649  34.834  1.00  0.00     0.056 A 
HETATM    8  C13 UNK     1      18.323   0.901  33.377  1.00  0.00     0.198 A 
HETATM    9  O3  UNK     1      18.331  -0.007  32.558  1.00  0.00    -0.286 OA
HETATM   10  C6  UNK     1      18.310   2.319  32.969  1.00  0.00     0.049 A 
HETATM   11  C10 UNK     1      18.305   3.309  33.952  1.00  0.00     0.089 A 
HETATM   12  C15 UNK     1      18.303   2.669  31.616  1.00  0.00     0.018 A 
HETATM   13  O2  UNK     1      18.311   3.023  35.295  1.00  0.00    -0.321 OA
HETATM   14  C16 UNK     1      18.293   4.655  33.588  1.00  0.00     0.038 A 
HETATM   15  C17 UNK     1      18.322   1.698  35.664  1.00  0.00     0.159 A 
HETATM   16  C20 UNK     1      18.287   5.008  32.238  1.00  0.00     0.003 A 
HETATM   17  C19 UNK     1      18.291   4.017  31.255  1.00  0.00     0.001 A 
ENDBRANCH   6   7
ENDBRANCH   2   5
BRANCH   3  18
HETATM   18  C9  UNK     1      19.947  -4.686  36.908  1.00  0.00     0.033 A 
HETATM   19  C11 UNK     1      18.923  -5.506  36.480  1.00  0.00     0.020 A 
HETATM   20  C7  UNK     1      18.719  -6.722  37.131  1.00  0.00     0.038 A 
HETATM   21  C5  UNK     1      19.543  -7.092  38.194  1.00  0.00     0.068 A 
HETATM   22  C8  UNK     1      20.571  -6.245  38.606  1.00  0.00     0.038 A 
HETATM   23  C12 UNK     1      20.776  -5.028  37.956  1.00  0.00     0.020 A 
BRANCH  21  24
HETATM   24  O1  UNK     1      19.345  -8.280  38.827  1.00  0.00    -0.351 OA
BRANCH  24  25
HETATM   25  C2  UNK     1      20.502  -9.064  39.114  1.00  0.00     0.179 C 
BRANCH  25  26
HETATM   26  C1  UNK     1      20.714 -10.105  38.011  1.00  0.00     0.002 C 
HETATM   27  C3  UNK     1      21.633  -9.550  36.924  1.00  0.00     0.011 C 
HETATM   28  C4  UNK     1      19.384 -10.554  37.405  1.00  0.00     0.011 C 
ENDBRANCH  25  26
ENDBRANCH  24  25
ENDBRANCH  21  24
ENDBRANCH   3  18
TORSDOF 6
ENDMDL
MODEL 9
REMARK VINA RESULT:      -8.4      1.965     10.877
REMARK  6 active torsions:
REMARK  status: ('A' for Active; 'I' for Inactive)
REMARK    1  A    between atoms: C2_8  and  O1_1 
REMARK    2  A    between atoms: C5_11  and  O1_1 
REMARK       I    between atoms: C18_24  and  N1_5 
REMARK    3  A    between atoms: N1_5  and  N2_6 
REMARK    4  A    between atoms: C1_7  and  C2_8 
REMARK    5  A    between atoms: C18_24  and  C9_15 
REMARK    6  A    between atoms: C14_20  and  C21_27 
ROOT
HETATM    1  O4  UNK     1      21.315  -2.767  35.713  1.00  0.00    -0.266 OA
HETATM    2  N1  UNK     1      19.072  -2.277  36.002  1.00  0.00    -0.243 N 
HETATM    3  C18 UNK     1      20.197  -3.071  36.120  1.00  0.00     0.271 C 
HETATM    4  H20 UNK     1      18.142  -2.563  36.292  1.00  0.00     0.192 HD
ENDROOT
BRANCH   2   5
HETATM    5  N2  UNK     1      19.192  -1.072  35.396  1.00  0.00    -0.183 NA
HETATM    6  C21 UNK     1      18.510  -0.963  34.300  1.00  0.00     0.156 C 
BRANCH   6   7
HETATM    7  C14 UNK     1      18.506   0.259  33.496  1.00  0.00     0.056 A 
HETATM    8  C13 UNK     1      18.254   1.605  34.054  1.00  0.00     0.198 A 
HETATM    9  O3  UNK     1      18.027   1.786  35.242  1.00  0.00    -0.286 OA
HETATM   10  C6  UNK     1      18.291   2.720  33.089  1.00  0.00     0.049 A 
HETATM   11  C10 UNK     1      18.553   2.447  31.745  1.00  0.00     0.089 A 
HETATM   12  C15 UNK     1      18.066   4.033  33.510  1.00  0.00     0.018 A 
HETATM   13  O2  UNK     1      18.781   1.177  31.276  1.00  0.00    -0.321 OA
HETATM   14  C16 UNK     1      18.591   3.486  30.816  1.00  0.00     0.038 A 
HETATM   15  C17 UNK     1      18.745   0.145  32.185  1.00  0.00     0.159 A 
HETATM   16  C20 UNK     1      18.367   4.798  31.233  1.00  0.00     0.003 A 
HETATM   17  C19 UNK     1      18.105   5.071  32.577  1.00  0.00     0.001 A 
ENDBRANCH   6   7
ENDBRANCH   2   5
BRANCH   3  18
HETATM   18  C9  UNK     1      19.992  -4.389  36.776  1.00  0.00     0.033 A 
HETATM   19  C11 UNK     1      20.840  -4.763  37.798  1.00  0.00     0.020 A 
HETATM   20  C7  UNK     1      20.649  -5.999  38.414  1.00  0.00     0.038 A 
HETATM   21  C5  UNK     1      19.613  -6.834  37.993  1.00  0.00     0.068 A 
HETATM   22  C8  UNK     1      18.770  -6.433  36.958  1.00  0.00     0.038 A 
HETATM   23  C12 UNK     1      18.961  -5.196  36.341  1.00  0.00     0.020 A 
BRANCH  21  24
HETATM   24  O1  UNK     1      19.424  -8.040  38.596  1.00  0.00    -0.351 OA
BRANCH  24  25
HETATM   25  C2  UNK     1      20.592  -8.781  38.946  1.00  0.00     0.179 C 
BRANCH  25  26
HETATM   26  C1  UNK     1      20.746  -9.985  38.013  1.00  0.00     0.002 C 
HETATM   27  C3  UNK     1      21.641  -9.630  36.827  1.00  0.00     0.011 C 
HETATM   28  C4  UNK     1      19.387 -10.488  37.522  1.00  0.00     0.011 C 
ENDBRANCH  25  26
ENDBRANCH  24  25
ENDBRANCH  21  24
ENDBRANCH   3  18
TORSDOF 6
ENDMDL
MODEL 10
REMARK VINA RESULT:      -8.4      6.348     10.315
REMARK  6 active torsions:
REMARK  status: ('A' for Active; 'I' for Inactive)
REMARK    1  A    between atoms: C2_8  and  O1_1 
REMARK    2  A    between atoms: C5_11  and  O1_1 
REMARK       I    between atoms: C18_24  and  N1_5 
REMARK    3  A    between atoms: N1_5  and  N2_6 
REMARK    4  A    between atoms: C1_7  and  C2_8 
REMARK    5  A    between atoms: C18_24  and  C9_15 
REMARK    6  A    between atoms: C14_20  and  C21_27 
ROOT
HETATM    1  O4  UNK     1      19.799   6.567  33.603  1.00  0.00    -0.266 OA
HETATM    2  N1  UNK     1      17.698   5.598  33.651  1.00  0.00    -0.243 N 
HETATM    3  C18 UNK     1      18.579   6.663  33.697  1.00  0.00     0.271 C 
HETATM    4  H20 UNK     1      16.696   5.684  33.788  1.00  0.00     0.192 HD
ENDROOT
BRANCH   2   5
HETATM    5  N2  UNK     1      18.200   4.350  33.491  1.00  0.00    -0.183 NA
HETATM    6  C21 UNK     1      18.002   3.850  32.313  1.00  0.00     0.156 C 
BRANCH   6   7
HETATM    7  C14 UNK     1      18.467   2.515  31.940  1.00  0.00     0.056 A 
HETATM    8  C13 UNK     1      18.919   2.156  30.578  1.00  0.00     0.198 A 
HETATM    9  O3  UNK     1      18.932   2.966  29.661  1.00  0.00    -0.286 OA
HETATM   10  C6  UNK     1      19.354   0.759  30.390  1.00  0.00     0.049 A 
HETATM   11  C10 UNK     1      19.312  -0.117  31.476  1.00  0.00     0.089 A 
HETATM   12  C15 UNK     1      19.800   0.314  29.143  1.00  0.00     0.018 A 
HETATM   13  O2  UNK     1      18.882   0.265  32.723  1.00  0.00    -0.321 OA
HETATM   14  C16 UNK     1      19.717  -1.443  31.320  1.00  0.00     0.038 A 
HETATM   15  C17 UNK     1      18.481   1.570  32.887  1.00  0.00     0.159 A 
HETATM   16  C20 UNK     1      20.163  -1.889  30.076  1.00  0.00     0.003 A 
HETATM   17  C19 UNK     1      20.205  -1.013  28.991  1.00  0.00     0.001 A 
ENDBRANCH   6   7
ENDBRANCH   2   5
BRANCH   3  18
HETATM   18  C9  UNK     1      17.965   8.001  33.897  1.00  0.00     0.033 A 
HETATM   19  C11 UNK     1      16.604   8.084  34.108  1.00  0.00     0.020 A 
HETATM   20  C7  UNK     1      16.027   9.340  34.296  1.00  0.00     0.038 A 
HETATM   21  C5  UNK     1      16.825  10.485  34.270  1.00  0.00     0.068 A 
HETATM   22  C8  UNK     1      18.198  10.373  34.056  1.00  0.00     0.038 A 
HETATM   23  C12 UNK     1      18.775   9.117  33.867  1.00  0.00     0.020 A 
BRANCH  21  24
HETATM   24  O1  UNK     1      16.263  11.710  34.456  1.00  0.00    -0.351 OA
BRANCH  24  25
HETATM   25  C2  UNK     1      17.139  12.780  34.804  1.00  0.00     0.179 C 
BRANCH  25  26
HETATM   26  C1  UNK     1      17.103  13.859  33.717  1.00  0.00     0.002 C 
HETATM   27  C3  UNK     1      18.480  14.013  33.074  1.00  0.00     0.011 C 
HETATM   28  C4  UNK     1      16.624  15.199  34.278  1.00  0.00     0.011 C 
ENDBRANCH  25  26
ENDBRANCH  24  25
ENDBRANCH  21  24
ENDBRANCH   3  18
TORSDOF 6
ENDMDL
