MODEL 1
REMARK VINA RESULT:      -8.9      0.000      0.000
REMARK  9 active torsions:
REMARK  status: ('A' for Active; 'I' for Inactive)
REMARK    1  A    between atoms: C19_26  and  O1_1 
REMARK    2  A    between atoms: C6_13  and  O1_1 
REMARK    3  A    between atoms: C20_27  and  O2_2 
REMARK    4  A    between atoms: C7_14  and  O2_2 
REMARK    5  A    between atoms: C17_24  and  O5_5 
REMARK       I    between atoms: C11_18  and  N1_7 
REMARK    6  A    between atoms: C3_10  and  N1_7 
REMARK    7  A    between atoms: C1_8  and  C2_9 
REMARK    8  A    between atoms: C1_8  and  C3_10 
REMARK    9  A    between atoms: C11_18  and  C9_16 
ROOT
HETATM    1  O4  UNK     1      17.453   3.607  31.819  1.00  0.00    -0.267 OA
HETATM    2  N1  UNK     1      18.982   4.548  30.332  1.00  0.00    -0.356 N 
HETATM    3  C11 UNK     1      18.321   3.504  30.954  1.00  0.00     0.257 C 
HETATM    4  H7  UNK     1      19.679   4.345  29.621  1.00  0.00     0.162 HD
ENDROOT
BRANCH   2   5
HETATM    5  C3  UNK     1      18.722   5.937  30.635  1.00  0.00     0.127 C 
BRANCH   5   6
HETATM    6  C1  UNK     1      19.423   6.399  31.910  1.00  0.00     0.058 C 
BRANCH   6   7
HETATM    7  C2  UNK     1      18.523   7.194  32.823  1.00  0.00    -0.054 A 
HETATM    8  C4  UNK     1      17.194   6.809  33.001  1.00  0.00     0.046 A 
HETATM    9  C6  UNK     1      16.361   7.544  33.844  1.00  0.00     0.102 A 
HETATM   10  C7  UNK     1      16.858   8.664  34.511  1.00  0.00     0.102 A 
HETATM   11  C8  UNK     1      18.187   9.049  34.334  1.00  0.00     0.040 A 
HETATM   12  C5  UNK     1      19.019   8.314  33.490  1.00  0.00     0.010 A 
BRANCH   9  13
HETATM   13  O1  UNK     1      15.065   7.157  34.010  1.00  0.00    -0.349 OA
BRANCH  13  14
HETATM   14  C19 UNK     1      14.086   7.818  33.210  1.00  0.00     0.171 C 
HETATM   15  C21 UNK     1      13.954   7.089  31.890  1.00  0.00     0.034 C 
ENDBRANCH  13  14
ENDBRANCH   9  13
BRANCH  10  16
HETATM   16  O2  UNK     1      16.054   9.390  35.338  1.00  0.00    -0.349 OA
BRANCH  16  17
HETATM   17  C20 UNK     1      15.660  10.684  34.887  1.00  0.00     0.171 C 
HETATM   18  C22 UNK     1      14.210  10.914  35.257  1.00  0.00     0.034 C 
ENDBRANCH  16  17
ENDBRANCH  10  16
ENDBRANCH   6   7
ENDBRANCH   5   6
ENDBRANCH   2   5
BRANCH   3  19
HETATM   19  C9  UNK     1      18.756   2.186  30.475  1.00  0.00     0.108 A 
HETATM   20  C12 UNK     1      19.237   1.350  31.401  1.00  0.00     0.037 A 
HETATM   21  C10 UNK     1      19.693   0.020  31.024  1.00  0.00     0.002 A 
HETATM   22  C13 UNK     1      19.619  -0.361  29.688  1.00  0.00     0.089 A 
HETATM   23  C14 UNK     1      20.203  -0.885  31.957  1.00  0.00     0.051 A 
HETATM   24  O3  UNK     1      19.110   0.524  28.717  1.00  0.00    -0.274 OA
HETATM   25  C16 UNK     1      20.040  -1.619  29.260  1.00  0.00     0.041 A 
HETATM   26  C15 UNK     1      18.668   1.802  29.048  1.00  0.00     0.304 A 
HETATM   27  O6  UNK     1      18.227   2.566  28.196  1.00  0.00    -0.259 OA
HETATM   28  C18 UNK     1      20.548  -2.516  30.197  1.00  0.00     0.039 A 
HETATM   29  C17 UNK     1      20.628  -2.151  31.543  1.00  0.00     0.069 A 
BRANCH  29  30
HETATM   30  O5  UNK     1      21.124  -3.031  32.456  1.00  0.00    -0.356 OA
HETATM   31  C23 UNK     1      20.679  -2.889  33.804  1.00  0.00     0.210 C 
ENDBRANCH  29  30
ENDBRANCH   3  19
TORSDOF 9
ENDMDL
MODEL 2
REMARK VINA RESULT:      -8.8      1.407      2.583
REMARK  9 active torsions:
REMARK  status: ('A' for Active; 'I' for Inactive)
REMARK    1  A    between atoms: C19_26  and  O1_1 
REMARK    2  A    between atoms: C6_13  and  O1_1 
REMARK    3  A    between atoms: C20_27  and  O2_2 
REMARK    4  A    between atoms: C7_14  and  O2_2 
REMARK    5  A    between atoms: C17_24  and  O5_5 
REMARK       I    between atoms: C11_18  and  N1_7 
REMARK    6  A    between atoms: C3_10  and  N1_7 
REMARK    7  A    between atoms: C1_8  and  C2_9 
REMARK    8  A    between atoms: C1_8  and  C3_10 
REMARK    9  A    between atoms: C11_18  and  C9_16 
ROOT
HETATM    1  O4  UNK     1      17.219   2.547  30.550  1.00  0.00    -0.267 OA
HETATM    2  N1  UNK     1      19.346   3.374  30.077  1.00  0.00    -0.356 N 
HETATM    3  C11 UNK     1      18.423   2.384  30.363  1.00  0.00     0.257 C 
HETATM    4  H7  UNK     1      20.320   3.121  29.932  1.00  0.00     0.162 HD
ENDROOT
BRANCH   2   5
HETATM    5  C3  UNK     1      18.994   4.770  29.960  1.00  0.00     0.127 C 
BRANCH   5   6
HETATM    6  C1  UNK     1      19.806   5.660  30.897  1.00  0.00     0.058 C 
BRANCH   6   7
HETATM    7  C2  UNK     1      18.984   6.235  32.024  1.00  0.00    -0.054 A 
HETATM    8  C4  UNK     1      19.586   7.053  32.980  1.00  0.00     0.046 A 
HETATM    9  C6  UNK     1      18.826   7.584  34.022  1.00  0.00     0.102 A 
HETATM   10  C7  UNK     1      17.464   7.297  34.108  1.00  0.00     0.102 A 
HETATM   11  C8  UNK     1      16.862   6.479  33.152  1.00  0.00     0.040 A 
HETATM   12  C5  UNK     1      17.622   5.948  32.111  1.00  0.00     0.010 A 
BRANCH   9  13
HETATM   13  O1  UNK     1      19.426   8.382  34.950  1.00  0.00    -0.349 OA
BRANCH  13  14
HETATM   14  C19 UNK     1      20.129   9.523  34.464  1.00  0.00     0.171 C 
HETATM   15  C21 UNK     1      19.127  10.560  34.003  1.00  0.00     0.034 C 
ENDBRANCH  13  14
ENDBRANCH   9  13
BRANCH  10  16
HETATM   16  O2  UNK     1      16.711   7.809  35.122  1.00  0.00    -0.349 OA
BRANCH  16  17
HETATM   17  C20 UNK     1      15.972   8.996  34.845  1.00  0.00     0.171 C 
HETATM   18  C22 UNK     1      14.708   8.627  34.098  1.00  0.00     0.034 C 
ENDBRANCH  16  17
ENDBRANCH  10  16
ENDBRANCH   6   7
ENDBRANCH   5   6
ENDBRANCH   2   5
BRANCH   3  19
HETATM   19  C9  UNK     1      19.022   1.045  30.427  1.00  0.00     0.108 A 
HETATM   20  C12 UNK     1      19.161   0.519  31.649  1.00  0.00     0.037 A 
HETATM   21  C10 UNK     1      19.744  -0.804  31.816  1.00  0.00     0.002 A 
HETATM   22  C13 UNK     1      20.151  -1.506  30.686  1.00  0.00     0.089 A 
HETATM   23  C14 UNK     1      19.911  -1.392  33.072  1.00  0.00     0.051 A 
HETATM   24  O3  UNK     1      20.000  -0.947  29.402  1.00  0.00    -0.274 OA
HETATM   25  C16 UNK     1      20.717  -2.777  30.776  1.00  0.00     0.041 A 
HETATM   26  C15 UNK     1      19.447   0.316  29.211  1.00  0.00     0.304 A 
HETATM   27  O6  UNK     1      19.320   0.796  28.090  1.00  0.00    -0.259 OA
HETATM   28  C18 UNK     1      20.880  -3.356  32.033  1.00  0.00     0.039 A 
HETATM   29  C17 UNK     1      20.476  -2.666  33.178  1.00  0.00     0.069 A 
BRANCH  29  30
HETATM   30  O5  UNK     1      20.635  -3.237  34.404  1.00  0.00    -0.356 OA
HETATM   31  C23 UNK     1      20.365  -2.418  35.541  1.00  0.00     0.210 C 
ENDBRANCH  29  30
ENDBRANCH   3  19
TORSDOF 9
ENDMDL
MODEL 3
REMARK VINA RESULT:      -8.3      2.519      3.383
REMARK  9 active torsions:
REMARK  status: ('A' for Active; 'I' for Inactive)
REMARK    1  A    between atoms: C19_26  and  O1_1 
REMARK    2  A    between atoms: C6_13  and  O1_1 
REMARK    3  A    between atoms: C20_27  and  O2_2 
REMARK    4  A    between atoms: C7_14  and  O2_2 
REMARK    5  A    between atoms: C17_24  and  O5_5 
REMARK       I    between atoms: C11_18  and  N1_7 
REMARK    6  A    between atoms: C3_10  and  N1_7 
REMARK    7  A    between atoms: C1_8  and  C2_9 
REMARK    8  A    between atoms: C1_8  and  C3_10 
REMARK    9  A    between atoms: C11_18  and  C9_16 
ROOT
HETATM    1  O4  UNK     1      18.105   1.925  29.382  1.00  0.00    -0.267 OA
HETATM    2  N1  UNK     1      19.187   3.435  30.791  1.00  0.00    -0.356 N 
HETATM    3  C11 UNK     1      18.651   2.207  30.447  1.00  0.00     0.257 C 
HETATM    4  H7  UNK     1      19.624   3.552  31.701  1.00  0.00     0.162 HD
ENDROOT
BRANCH   2   5
HETATM    5  C3  UNK     1      19.168   4.578  29.907  1.00  0.00     0.127 C 
BRANCH   5   6
HETATM    6  C1  UNK     1      19.941   5.767  30.471  1.00  0.00     0.058 C 
BRANCH   6   7
HETATM    7  C2  UNK     1      19.146   6.564  31.476  1.00  0.00    -0.054 A 
HETATM    8  C4  UNK     1      17.845   6.966  31.175  1.00  0.00     0.046 A 
HETATM    9  C6  UNK     1      17.110   7.703  32.103  1.00  0.00     0.102 A 
HETATM   10  C7  UNK     1      17.677   8.037  33.334  1.00  0.00     0.102 A 
HETATM   11  C8  UNK     1      18.978   7.635  33.635  1.00  0.00     0.040 A 
HETATM   12  C5  UNK     1      19.712   6.899  32.706  1.00  0.00     0.010 A 
BRANCH   9  13
HETATM   13  O1  UNK     1      15.840   8.090  31.798  1.00  0.00    -0.349 OA
BRANCH  13  14
HETATM   14  C19 UNK     1      14.817   7.103  31.915  1.00  0.00     0.171 C 
HETATM   15  C21 UNK     1      13.863   7.510  33.018  1.00  0.00     0.034 C 
ENDBRANCH  13  14
ENDBRANCH   9  13
BRANCH  10  16
HETATM   16  O2  UNK     1      16.969   8.758  34.249  1.00  0.00    -0.349 OA
BRANCH  16  17
HETATM   17  C20 UNK     1      17.157  10.171  34.248  1.00  0.00     0.171 C 
HETATM   18  C22 UNK     1      15.846  10.843  33.903  1.00  0.00     0.034 C 
ENDBRANCH  16  17
ENDBRANCH  10  16
ENDBRANCH   6   7
ENDBRANCH   5   6
ENDBRANCH   2   5
BRANCH   3  19
HETATM   19  C9  UNK     1      18.793   1.204  31.510  1.00  0.00     0.108 A 
HETATM   20  C12 UNK     1      18.266   1.522  32.698  1.00  0.00     0.037 A 
HETATM   21  C10 UNK     1      18.356   0.592  33.813  1.00  0.00     0.002 A 
HETATM   22  C13 UNK     1      18.998  -0.627  33.621  1.00  0.00     0.089 A 
HETATM   23  C14 UNK     1      17.822   0.883  35.071  1.00  0.00     0.051 A 
HETATM   24  O3  UNK     1      19.549  -0.957  32.368  1.00  0.00    -0.274 OA
HETATM   25  C16 UNK     1      19.119  -1.562  34.648  1.00  0.00     0.041 A 
HETATM   26  C15 UNK     1      19.479  -0.088  31.283  1.00  0.00     0.304 A 
HETATM   27  O6  UNK     1      19.963  -0.383  30.195  1.00  0.00    -0.259 OA
HETATM   28  C18 UNK     1      18.583  -1.264  35.900  1.00  0.00     0.039 A 
HETATM   29  C17 UNK     1      17.935  -0.045  36.110  1.00  0.00     0.069 A 
BRANCH  29  30
HETATM   30  O5  UNK     1      17.412   0.242  37.334  1.00  0.00    -0.356 OA
HETATM   31  C23 UNK     1      16.905   1.561  37.531  1.00  0.00     0.210 C 
ENDBRANCH  29  30
ENDBRANCH   3  19
TORSDOF 9
ENDMDL
MODEL 4
REMARK VINA RESULT:      -8.3      1.745      2.951
REMARK  9 active torsions:
REMARK  status: ('A' for Active; 'I' for Inactive)
REMARK    1  A    between atoms: C19_26  and  O1_1 
REMARK    2  A    between atoms: C6_13  and  O1_1 
REMARK    3  A    between atoms: C20_27  and  O2_2 
REMARK    4  A    between atoms: C7_14  and  O2_2 
REMARK    5  A    between atoms: C17_24  and  O5_5 
REMARK       I    between atoms: C11_18  and  N1_7 
REMARK    6  A    between atoms: C3_10  and  N1_7 
REMARK    7  A    between atoms: C1_8  and  C2_9 
REMARK    8  A    between atoms: C1_8  and  C3_10 
REMARK    9  A    between atoms: C11_18  and  C9_16 
ROOT
HETATM    1  O4  UNK     1      17.609   1.462  28.972  1.00  0.00    -0.267 OA
HETATM    2  N1  UNK     1      19.043   2.855  30.171  1.00  0.00    -0.356 N 
HETATM    3  C11 UNK     1      18.514   1.636  29.785  1.00  0.00     0.257 C 
HETATM    4  H7  UNK     1      19.799   2.879  30.849  1.00  0.00     0.162 HD
ENDROOT
BRANCH   2   5
HETATM    5  C3  UNK     1      18.578   4.117  29.644  1.00  0.00     0.127 C 
BRANCH   5   6
HETATM    6  C1  UNK     1      19.599   5.237  29.821  1.00  0.00     0.058 C 
BRANCH   6   7
HETATM    7  C2  UNK     1      19.372   6.051  31.071  1.00  0.00    -0.054 A 
HETATM    8  C4  UNK     1      18.140   6.667  31.288  1.00  0.00     0.046 A 
HETATM    9  C6  UNK     1      17.930   7.420  32.443  1.00  0.00     0.102 A 
HETATM   10  C7  UNK     1      18.953   7.556  33.382  1.00  0.00     0.102 A 
HETATM   11  C8  UNK     1      20.185   6.940  33.165  1.00  0.00     0.040 A 
HETATM   12  C5  UNK     1      20.395   6.188  32.010  1.00  0.00     0.010 A 
BRANCH   9  13
HETATM   13  O1  UNK     1      16.722   8.017  32.644  1.00  0.00    -0.349 OA
BRANCH  13  14
HETATM   14  C19 UNK     1      15.628   7.166  32.982  1.00  0.00     0.171 C 
HETATM   15  C21 UNK     1      14.687   7.914  33.902  1.00  0.00     0.034 C 
ENDBRANCH  13  14
ENDBRANCH   9  13
BRANCH  10  16
HETATM   16  O2  UNK     1      18.760   8.289  34.515  1.00  0.00    -0.349 OA
BRANCH  16  17
HETATM   17  C20 UNK     1      19.134   9.664  34.469  1.00  0.00     0.171 C 
HETATM   18  C22 UNK     1      20.638   9.771  34.599  1.00  0.00     0.034 C 
ENDBRANCH  16  17
ENDBRANCH  10  16
ENDBRANCH   6   7
ENDBRANCH   5   6
ENDBRANCH   2   5
BRANCH   3  19
HETATM   19  C9  UNK     1      19.153   0.498  30.457  1.00  0.00     0.108 A 
HETATM   20  C12 UNK     1      18.826   0.310  31.741  1.00  0.00     0.037 A 
HETATM   21  C10 UNK     1      19.408  -0.793  32.492  1.00  0.00     0.002 A 
HETATM   22  C13 UNK     1      20.305  -1.642  31.852  1.00  0.00     0.089 A 
HETATM   23  C14 UNK     1      19.097  -1.025  33.834  1.00  0.00     0.051 A 
HETATM   24  O3  UNK     1      20.643  -1.440  30.500  1.00  0.00    -0.274 OA
HETATM   25  C16 UNK     1      20.897  -2.716  32.514  1.00  0.00     0.041 A 
HETATM   26  C15 UNK     1      20.104  -0.394  29.756  1.00  0.00     0.304 A 
HETATM   27  O6  UNK     1      20.405  -0.225  28.580  1.00  0.00    -0.259 OA
HETATM   28  C18 UNK     1      20.582  -2.942  33.853  1.00  0.00     0.039 A 
HETATM   29  C17 UNK     1      19.683  -2.099  34.511  1.00  0.00     0.069 A 
BRANCH  29  30
HETATM   30  O5  UNK     1      19.377  -2.324  35.819  1.00  0.00    -0.356 OA
HETATM   31  C23 UNK     1      18.566  -1.348  36.473  1.00  0.00     0.210 C 
ENDBRANCH  29  30
ENDBRANCH   3  19
TORSDOF 9
ENDMDL
MODEL 5
REMARK VINA RESULT:      -8.3      2.531     10.355
REMARK  9 active torsions:
REMARK  status: ('A' for Active; 'I' for Inactive)
REMARK    1  A    between atoms: C19_26  and  O1_1 
REMARK    2  A    between atoms: C6_13  and  O1_1 
REMARK    3  A    between atoms: C20_27  and  O2_2 
REMARK    4  A    between atoms: C7_14  and  O2_2 
REMARK    5  A    between atoms: C17_24  and  O5_5 
REMARK       I    between atoms: C11_18  and  N1_7 
REMARK    6  A    between atoms: C3_10  and  N1_7 
REMARK    7  A    between atoms: C1_8  and  C2_9 
REMARK    8  A    between atoms: C1_8  and  C3_10 
REMARK    9  A    between atoms: C11_18  and  C9_16 
ROOT
HETATM    1  O4  UNK     1      16.435   6.803  34.949  1.00  0.00    -0.267 OA
HETATM    2  N1  UNK     1      18.041   8.044  33.802  1.00  0.00    -0.356 N 
HETATM    3  C11 UNK     1      16.777   7.793  34.305  1.00  0.00     0.257 C 
HETATM    4  H7  UNK     1      18.213   8.905  33.290  1.00  0.00     0.162 HD
ENDROOT
BRANCH   2   5
HETATM    5  C3  UNK     1      19.153   7.139  33.979  1.00  0.00     0.127 C 
BRANCH   5   6
HETATM    6  C1  UNK     1      19.839   6.790  32.660  1.00  0.00     0.058 C 
BRANCH   6   7
HETATM    7  C2  UNK     1      19.256   5.566  31.998  1.00  0.00    -0.054 A 
HETATM    8  C4  UNK     1      18.673   4.564  32.774  1.00  0.00     0.046 A 
HETATM    9  C6  UNK     1      18.135   3.432  32.162  1.00  0.00     0.102 A 
HETATM   10  C7  UNK     1      18.179   3.302  30.774  1.00  0.00     0.102 A 
HETATM   11  C8  UNK     1      18.762   4.304  29.998  1.00  0.00     0.040 A 
HETATM   12  C5  UNK     1      19.300   5.435  30.610  1.00  0.00     0.010 A 
BRANCH   9  13
HETATM   13  O1  UNK     1      17.568   2.460  32.931  1.00  0.00    -0.349 OA
BRANCH  13  14
HETATM   14  C19 UNK     1      18.305   2.025  34.072  1.00  0.00     0.171 C 
HETATM   15  C21 UNK     1      18.173   0.523  34.201  1.00  0.00     0.034 C 
ENDBRANCH  13  14
ENDBRANCH   9  13
BRANCH  10  16
HETATM   16  O2  UNK     1      17.657   2.201  30.165  1.00  0.00    -0.349 OA
BRANCH  16  17
HETATM   17  C20 UNK     1      18.294   1.758  28.968  1.00  0.00     0.171 C 
HETATM   18  C22 UNK     1      19.403   0.792  29.329  1.00  0.00     0.034 C 
ENDBRANCH  16  17
ENDBRANCH  10  16
ENDBRANCH   6   7
ENDBRANCH   5   6
ENDBRANCH   2   5
BRANCH   3  19
HETATM   19  C9  UNK     1      15.818   8.862  33.999  1.00  0.00     0.108 A 
HETATM   20  C12 UNK     1      15.275   9.488  35.049  1.00  0.00     0.037 A 
HETATM   21  C10 UNK     1      14.313  10.561  34.847  1.00  0.00     0.002 A 
HETATM   22  C13 UNK     1      13.972  10.921  33.547  1.00  0.00     0.089 A 
HETATM   23  C14 UNK     1      13.720  11.240  35.913  1.00  0.00     0.051 A 
HETATM   24  O3  UNK     1      14.548  10.259  32.446  1.00  0.00    -0.274 OA
HETATM   25  C16 UNK     1      13.057  11.940  33.284  1.00  0.00     0.041 A 
HETATM   26  C15 UNK     1      15.470   9.229  32.608  1.00  0.00     0.304 A 
HETATM   27  O6  UNK     1      15.966   8.658  31.643  1.00  0.00    -0.259 OA
HETATM   28  C18 UNK     1      12.470  12.613  34.354  1.00  0.00     0.039 A 
HETATM   29  C17 UNK     1      12.801  12.265  35.666  1.00  0.00     0.069 A 
BRANCH  29  30
HETATM   30  O5  UNK     1      12.226  12.926  36.708  1.00  0.00    -0.356 OA
HETATM   31  C23 UNK     1      12.154  12.235  37.954  1.00  0.00     0.210 C 
ENDBRANCH  29  30
ENDBRANCH   3  19
TORSDOF 9
ENDMDL
MODEL 6
REMARK VINA RESULT:      -8.2      2.640      3.945
REMARK  9 active torsions:
REMARK  status: ('A' for Active; 'I' for Inactive)
REMARK    1  A    between atoms: C19_26  and  O1_1 
REMARK    2  A    between atoms: C6_13  and  O1_1 
REMARK    3  A    between atoms: C20_27  and  O2_2 
REMARK    4  A    between atoms: C7_14  and  O2_2 
REMARK    5  A    between atoms: C17_24  and  O5_5 
REMARK       I    between atoms: C11_18  and  N1_7 
REMARK    6  A    between atoms: C3_10  and  N1_7 
REMARK    7  A    between atoms: C1_8  and  C2_9 
REMARK    8  A    between atoms: C1_8  and  C3_10 
REMARK    9  A    between atoms: C11_18  and  C9_16 
ROOT
HETATM    1  O4  UNK     1      17.516   2.116  29.747  1.00  0.00    -0.267 OA
HETATM    2  N1  UNK     1      19.208   3.392  30.719  1.00  0.00    -0.356 N 
HETATM    3  C11 UNK     1      18.380   2.289  30.605  1.00  0.00     0.257 C 
HETATM    4  H7  UNK     1      19.896   3.424  31.467  1.00  0.00     0.162 HD
ENDROOT
BRANCH   2   5
HETATM    5  C3  UNK     1      19.155   4.515  29.812  1.00  0.00     0.127 C 
BRANCH   5   6
HETATM    6  C1  UNK     1      19.663   5.806  30.448  1.00  0.00     0.058 C 
BRANCH   6   7
HETATM    7  C2  UNK     1      18.787   6.291  31.577  1.00  0.00    -0.054 A 
HETATM    8  C4  UNK     1      19.347   7.000  32.639  1.00  0.00     0.046 A 
HETATM    9  C6  UNK     1      18.538   7.448  33.683  1.00  0.00     0.102 A 
HETATM   10  C7  UNK     1      17.167   7.188  33.664  1.00  0.00     0.102 A 
HETATM   11  C8  UNK     1      16.607   6.479  32.601  1.00  0.00     0.040 A 
HETATM   12  C5  UNK     1      17.417   6.031  31.558  1.00  0.00     0.010 A 
BRANCH   9  13
HETATM   13  O1  UNK     1      19.097   8.139  34.715  1.00  0.00    -0.349 OA
BRANCH  13  14
HETATM   14  C19 UNK     1      19.369   9.522  34.496  1.00  0.00     0.171 C 
HETATM   15  C21 UNK     1      20.862   9.751  34.589  1.00  0.00     0.034 C 
ENDBRANCH  13  14
ENDBRANCH   9  13
BRANCH  10  16
HETATM   16  O2  UNK     1      16.366   7.620  34.678  1.00  0.00    -0.349 OA
BRANCH  16  17
HETATM   17  C20 UNK     1      15.256   8.442  34.323  1.00  0.00     0.171 C 
HETATM   18  C22 UNK     1      15.470   9.830  34.888  1.00  0.00     0.034 C 
ENDBRANCH  16  17
ENDBRANCH  10  16
ENDBRANCH   6   7
ENDBRANCH   5   6
ENDBRANCH   2   5
BRANCH   3  19
HETATM   19  C9  UNK     1      18.626   1.280  31.642  1.00  0.00     0.108 A 
HETATM   20  C12 UNK     1      18.198   1.582  32.873  1.00  0.00     0.037 A 
HETATM   21  C10 UNK     1      18.396   0.644  33.969  1.00  0.00     0.002 A 
HETATM   22  C13 UNK     1      19.033  -0.565  33.711  1.00  0.00     0.089 A 
HETATM   23  C14 UNK     1      17.968   0.919  35.270  1.00  0.00     0.051 A 
HETATM   24  O3  UNK     1      19.479  -0.878  32.412  1.00  0.00    -0.274 OA
HETATM   25  C16 UNK     1      19.254  -1.506  34.715  1.00  0.00     0.041 A 
HETATM   26  C15 UNK     1      19.305  -0.001  31.345  1.00  0.00     0.304 A 
HETATM   27  O6  UNK     1      19.697  -0.282  30.217  1.00  0.00    -0.259 OA
HETATM   28  C18 UNK     1      18.824  -1.225  36.011  1.00  0.00     0.039 A 
HETATM   29  C17 UNK     1      18.182  -0.016  36.287  1.00  0.00     0.069 A 
BRANCH  29  30
HETATM   30  O5  UNK     1      17.762   0.254  37.555  1.00  0.00    -0.356 OA
HETATM   31  C23 UNK     1      16.974   1.429  37.741  1.00  0.00     0.210 C 
ENDBRANCH  29  30
ENDBRANCH   3  19
TORSDOF 9
ENDMDL
MODEL 7
REMARK VINA RESULT:      -8.2      1.032      2.138
REMARK  9 active torsions:
REMARK  status: ('A' for Active; 'I' for Inactive)
REMARK    1  A    between atoms: C19_26  and  O1_1 
REMARK    2  A    between atoms: C6_13  and  O1_1 
REMARK    3  A    between atoms: C20_27  and  O2_2 
REMARK    4  A    between atoms: C7_14  and  O2_2 
REMARK    5  A    between atoms: C17_24  and  O5_5 
REMARK       I    between atoms: C11_18  and  N1_7 
REMARK    6  A    between atoms: C3_10  and  N1_7 
REMARK    7  A    between atoms: C1_8  and  C2_9 
REMARK    8  A    between atoms: C1_8  and  C3_10 
REMARK    9  A    between atoms: C11_18  and  C9_16 
ROOT
HETATM    1  O4  UNK     1      17.512   3.555  31.949  1.00  0.00    -0.267 OA
HETATM    2  N1  UNK     1      18.929   4.549  30.388  1.00  0.00    -0.356 N 
HETATM    3  C11 UNK     1      18.326   3.483  31.031  1.00  0.00     0.257 C 
HETATM    4  H7  UNK     1      19.584   4.370  29.632  1.00  0.00     0.162 HD
ENDROOT
BRANCH   2   5
HETATM    5  C3  UNK     1      18.665   5.927  30.730  1.00  0.00     0.127 C 
BRANCH   5   6
HETATM    6  C1  UNK     1      19.276   6.325  32.071  1.00  0.00     0.058 C 
BRANCH   6   7
HETATM    7  C2  UNK     1      18.325   7.107  32.944  1.00  0.00    -0.054 A 
HETATM    8  C4  UNK     1      18.673   8.383  33.386  1.00  0.00     0.046 A 
HETATM    9  C6  UNK     1      17.795   9.105  34.194  1.00  0.00     0.102 A 
HETATM   10  C7  UNK     1      16.567   8.551  34.558  1.00  0.00     0.102 A 
HETATM   11  C8  UNK     1      16.219   7.275  34.115  1.00  0.00     0.040 A 
HETATM   12  C5  UNK     1      17.098   6.553  33.308  1.00  0.00     0.010 A 
BRANCH   9  13
HETATM   13  O1  UNK     1      18.146  10.351  34.620  1.00  0.00    -0.349 OA
BRANCH  13  14
HETATM   14  C19 UNK     1      17.744  11.450  33.805  1.00  0.00     0.171 C 
HETATM   15  C21 UNK     1      18.284  12.731  34.404  1.00  0.00     0.034 C 
ENDBRANCH  13  14
ENDBRANCH   9  13
BRANCH  10  16
HETATM   16  O2  UNK     1      15.701   9.246  35.347  1.00  0.00    -0.349 OA
BRANCH  16  17
HETATM   17  C20 UNK     1      14.543   9.789  34.717  1.00  0.00     0.171 C 
HETATM   18  C22 UNK     1      14.301  11.185  35.249  1.00  0.00     0.034 C 
ENDBRANCH  16  17
ENDBRANCH  10  16
ENDBRANCH   6   7
ENDBRANCH   5   6
ENDBRANCH   2   5
BRANCH   3  19
HETATM   19  C9  UNK     1      18.754   2.181  30.503  1.00  0.00     0.108 A 
HETATM   20  C12 UNK     1      19.253   1.317  31.395  1.00  0.00     0.037 A 
HETATM   21  C10 UNK     1      19.704   0.001  30.968  1.00  0.00     0.002 A 
HETATM   22  C13 UNK     1      19.606  -0.339  29.622  1.00  0.00     0.089 A 
HETATM   23  C14 UNK     1      20.233  -0.932  31.863  1.00  0.00     0.051 A 
HETATM   24  O3  UNK     1      19.078   0.574  28.689  1.00  0.00    -0.274 OA
HETATM   25  C16 UNK     1      20.020  -1.583  29.148  1.00  0.00     0.041 A 
HETATM   26  C15 UNK     1      18.640   1.840  29.067  1.00  0.00     0.304 A 
HETATM   27  O6  UNK     1      18.182   2.629  28.248  1.00  0.00    -0.259 OA
HETATM   28  C18 UNK     1      20.547  -2.508  30.048  1.00  0.00     0.039 A 
HETATM   29  C17 UNK     1      20.652  -2.183  31.403  1.00  0.00     0.069 A 
BRANCH  29  30
HETATM   30  O5  UNK     1      21.166  -3.091  32.278  1.00  0.00    -0.356 OA
HETATM   31  C23 UNK     1      21.603  -4.338  31.739  1.00  0.00     0.210 C 
ENDBRANCH  29  30
ENDBRANCH   3  19
TORSDOF 9
ENDMDL
MODEL 8
REMARK VINA RESULT:      -8.2     10.048     15.156
REMARK  9 active torsions:
REMARK  status: ('A' for Active; 'I' for Inactive)
REMARK    1  A    between atoms: C19_26  and  O1_1 
REMARK    2  A    between atoms: C6_13  and  O1_1 
REMARK    3  A    between atoms: C20_27  and  O2_2 
REMARK    4  A    between atoms: C7_14  and  O2_2 
REMARK    5  A    between atoms: C17_24  and  O5_5 
REMARK       I    between atoms: C11_18  and  N1_7 
REMARK    6  A    between atoms: C3_10  and  N1_7 
REMARK    7  A    between atoms: C1_8  and  C2_9 
REMARK    8  A    between atoms: C1_8  and  C3_10 
REMARK    9  A    between atoms: C11_18  and  C9_16 
ROOT
HETATM    1  O4  UNK     1      26.749  -8.726  39.698  1.00  0.00    -0.267 OA
HETATM    2  N1  UNK     1      25.229  -7.264  38.704  1.00  0.00    -0.356 N 
HETATM    3  C11 UNK     1      26.488  -7.689  39.091  1.00  0.00     0.257 C 
HETATM    4  H7  UNK     1      25.132  -6.390  38.196  1.00  0.00     0.162 HD
ENDROOT
BRANCH   2   5
HETATM    5  C3  UNK     1      24.025  -8.015  38.978  1.00  0.00     0.127 C 
BRANCH   5   6
HETATM    6  C1  UNK     1      22.974  -7.189  39.714  1.00  0.00     0.058 C 
BRANCH   6   7
HETATM    7  C2  UNK     1      21.714  -6.986  38.909  1.00  0.00    -0.054 A 
HETATM    8  C4  UNK     1      21.626  -5.925  38.008  1.00  0.00     0.046 A 
HETATM    9  C6  UNK     1      20.461  -5.737  37.264  1.00  0.00     0.102 A 
HETATM   10  C7  UNK     1      19.384  -6.610  37.422  1.00  0.00     0.102 A 
HETATM   11  C8  UNK     1      19.473  -7.671  38.324  1.00  0.00     0.040 A 
HETATM   12  C5  UNK     1      20.638  -7.858  39.067  1.00  0.00     0.010 A 
BRANCH   9  13
HETATM   13  O1  UNK     1      20.386  -4.698  36.386  1.00  0.00    -0.349 OA
BRANCH  13  14
HETATM   14  C19 UNK     1      20.243  -3.392  36.940  1.00  0.00     0.171 C 
HETATM   15  C21 UNK     1      20.637  -2.368  35.897  1.00  0.00     0.034 C 
ENDBRANCH  13  14
ENDBRANCH   9  13
BRANCH  10  16
HETATM   16  O2  UNK     1      18.241  -6.437  36.702  1.00  0.00    -0.349 OA
BRANCH  16  17
HETATM   17  C20 UNK     1      18.064  -7.266  35.555  1.00  0.00     0.171 C 
HETATM   18  C22 UNK     1      16.594  -7.303  35.196  1.00  0.00     0.034 C 
ENDBRANCH  16  17
ENDBRANCH  10  16
ENDBRANCH   6   7
ENDBRANCH   5   6
ENDBRANCH   2   5
BRANCH   3  19
HETATM   19  C9  UNK     1      27.552  -6.758  38.697  1.00  0.00     0.108 A 
HETATM   20  C12 UNK     1      28.704  -7.310  38.300  1.00  0.00     0.037 A 
HETATM   21  C10 UNK     1      29.818  -6.468  37.890  1.00  0.00     0.002 A 
HETATM   22  C13 UNK     1      29.661  -5.086  37.918  1.00  0.00     0.089 A 
HETATM   23  C14 UNK     1      31.039  -7.001  37.470  1.00  0.00     0.051 A 
HETATM   24  O3  UNK     1      28.445  -4.511  38.335  1.00  0.00    -0.274 OA
HETATM   25  C16 UNK     1      30.689  -4.224  37.538  1.00  0.00     0.041 A 
HETATM   26  C15 UNK     1      27.363  -5.290  38.734  1.00  0.00     0.304 A 
HETATM   27  O6  UNK     1      26.308  -4.780  39.097  1.00  0.00    -0.259 OA
HETATM   28  C18 UNK     1      31.904  -4.764  37.120  1.00  0.00     0.039 A 
HETATM   29  C17 UNK     1      32.078  -6.149  37.085  1.00  0.00     0.069 A 
BRANCH  29  30
HETATM   30  O5  UNK     1      33.267  -6.672  36.675  1.00  0.00    -0.356 OA
HETATM   31  C23 UNK     1      34.448  -6.154  37.285  1.00  0.00     0.210 C 
ENDBRANCH  29  30
ENDBRANCH   3  19
TORSDOF 9
ENDMDL
MODEL 9
REMARK VINA RESULT:      -8.2     12.514     15.899
REMARK  9 active torsions:
REMARK  status: ('A' for Active; 'I' for Inactive)
REMARK    1  A    between atoms: C19_26  and  O1_1 
REMARK    2  A    between atoms: C6_13  and  O1_1 
REMARK    3  A    between atoms: C20_27  and  O2_2 
REMARK    4  A    between atoms: C7_14  and  O2_2 
REMARK    5  A    between atoms: C17_24  and  O5_5 
REMARK       I    between atoms: C11_18  and  N1_7 
REMARK    6  A    between atoms: C3_10  and  N1_7 
REMARK    7  A    between atoms: C1_8  and  C2_9 
REMARK    8  A    between atoms: C1_8  and  C3_10 
REMARK    9  A    between atoms: C11_18  and  C9_16 
ROOT
HETATM    1  O4  UNK     1      26.367  -8.988  37.973  1.00  0.00    -0.267 OA
HETATM    2  N1  UNK     1      25.232  -7.222  38.986  1.00  0.00    -0.356 N 
HETATM    3  C11 UNK     1      26.337  -7.852  38.442  1.00  0.00     0.257 C 
HETATM    4  H7  UNK     1      25.322  -6.273  39.338  1.00  0.00     0.162 HD
ENDROOT
BRANCH   2   5
HETATM    5  C3  UNK     1      23.932  -7.846  39.071  1.00  0.00     0.127 C 
BRANCH   5   6
HETATM    6  C1  UNK     1      22.894  -6.947  39.737  1.00  0.00     0.058 C 
BRANCH   6   7
HETATM    7  C2  UNK     1      21.597  -6.874  38.968  1.00  0.00    -0.054 A 
HETATM    8  C4  UNK     1      20.732  -7.968  38.954  1.00  0.00     0.046 A 
HETATM    9  C6  UNK     1      19.534  -7.901  38.243  1.00  0.00     0.102 A 
HETATM   10  C7  UNK     1      19.201  -6.740  37.546  1.00  0.00     0.102 A 
HETATM   11  C8  UNK     1      20.066  -5.646  37.559  1.00  0.00     0.040 A 
HETATM   12  C5  UNK     1      21.264  -5.714  38.270  1.00  0.00     0.010 A 
BRANCH   9  13
HETATM   13  O1  UNK     1      18.697  -8.976  38.238  1.00  0.00    -0.349 OA
BRANCH  13  14
HETATM   14  C19 UNK     1      18.988 -10.019  37.309  1.00  0.00     0.171 C 
HETATM   15  C21 UNK     1      19.655 -11.162  38.044  1.00  0.00     0.034 C 
ENDBRANCH  13  14
ENDBRANCH   9  13
BRANCH  10  16
HETATM   16  O2  UNK     1      18.034  -6.663  36.847  1.00  0.00    -0.349 OA
BRANCH  16  17
HETATM   17  C20 UNK     1      18.080  -7.016  35.466  1.00  0.00     0.171 C 
HETATM   18  C22 UNK     1      16.743  -7.603  35.063  1.00  0.00     0.034 C 
ENDBRANCH  16  17
ENDBRANCH  10  16
ENDBRANCH   6   7
ENDBRANCH   5   6
ENDBRANCH   2   5
BRANCH   3  19
HETATM   19  C9  UNK     1      27.542  -7.014  38.465  1.00  0.00     0.108 A 
HETATM   20  C12 UNK     1      28.708  -7.650  38.299  1.00  0.00     0.037 A 
HETATM   21  C10 UNK     1      29.957  -6.905  38.307  1.00  0.00     0.002 A 
HETATM   22  C13 UNK     1      29.916  -5.526  38.489  1.00  0.00     0.089 A 
HETATM   23  C14 UNK     1      31.197  -7.527  38.139  1.00  0.00     0.051 A 
HETATM   24  O3  UNK     1      28.686  -4.862  38.662  1.00  0.00    -0.274 OA
HETATM   25  C16 UNK     1      31.077  -4.754  38.507  1.00  0.00     0.041 A 
HETATM   26  C15 UNK     1      27.475  -5.548  38.660  1.00  0.00     0.304 A 
HETATM   27  O6  UNK     1      26.408  -4.962  38.813  1.00  0.00    -0.259 OA
HETATM   28  C18 UNK     1      32.309  -5.382  38.339  1.00  0.00     0.039 A 
HETATM   29  C17 UNK     1      32.369  -6.765  38.153  1.00  0.00     0.069 A 
BRANCH  29  30
HETATM   30  O5  UNK     1      33.575  -7.375  37.988  1.00  0.00    -0.356 OA
HETATM   31  C23 UNK     1      34.326  -7.024  36.826  1.00  0.00     0.210 C 
ENDBRANCH  29  30
ENDBRANCH   3  19
TORSDOF 9
ENDMDL
MODEL 10
REMARK VINA RESULT:      -8.2     21.371     24.291
REMARK  9 active torsions:
REMARK  status: ('A' for Active; 'I' for Inactive)
REMARK    1  A    between atoms: C19_26  and  O1_1 
REMARK    2  A    between atoms: C6_13  and  O1_1 
REMARK    3  A    between atoms: C20_27  and  O2_2 
REMARK    4  A    between atoms: C7_14  and  O2_2 
REMARK    5  A    between atoms: C17_24  and  O5_5 
REMARK       I    between atoms: C11_18  and  N1_7 
REMARK    6  A    between atoms: C3_10  and  N1_7 
REMARK    7  A    between atoms: C1_8  and  C2_9 
REMARK    8  A    between atoms: C1_8  and  C3_10 
REMARK    9  A    between atoms: C11_18  and  C9_16 
ROOT
HETATM    1  O4  UNK     1       8.328   7.213  10.125  1.00  0.00    -0.267 OA
HETATM    2  N1  UNK     1       8.279   5.855   8.231  1.00  0.00    -0.356 N 
HETATM    3  C11 UNK     1       7.990   6.184   9.543  1.00  0.00     0.257 C 
HETATM    4  H7  UNK     1       7.939   4.976   7.850  1.00  0.00     0.162 HD
ENDROOT
BRANCH   2   5
HETATM    5  C3  UNK     1       9.041   6.713   7.353  1.00  0.00     0.127 C 
BRANCH   5   6
HETATM    6  C1  UNK     1      10.288   6.027   6.801  1.00  0.00     0.058 C 
BRANCH   6   7
HETATM    7  C2  UNK     1      11.424   5.984   7.792  1.00  0.00    -0.054 A 
HETATM    8  C4  UNK     1      11.530   6.966   8.777  1.00  0.00     0.046 A 
HETATM    9  C6  UNK     1      12.581   6.926   9.692  1.00  0.00     0.102 A 
HETATM   10  C7  UNK     1      13.527   5.903   9.623  1.00  0.00     0.102 A 
HETATM   11  C8  UNK     1      13.422   4.921   8.639  1.00  0.00     0.040 A 
HETATM   12  C5  UNK     1      12.371   4.961   7.723  1.00  0.00     0.010 A 
BRANCH   9  13
HETATM   13  O1  UNK     1      12.673   7.890  10.650  1.00  0.00    -0.349 OA
BRANCH  13  14
HETATM   14  C19 UNK     1      12.652   9.246  10.207  1.00  0.00     0.171 C 
HETATM   15  C21 UNK     1      13.926   9.534   9.442  1.00  0.00     0.034 C 
ENDBRANCH  13  14
ENDBRANCH   9  13
BRANCH  10  16
HETATM   16  O2  UNK     1      14.559   5.853  10.512  1.00  0.00    -0.349 OA
BRANCH  16  17
HETATM   17  C20 UNK     1      15.878   5.811   9.973  1.00  0.00     0.171 C 
HETATM   18  C22 UNK     1      16.607   7.082  10.355  1.00  0.00     0.034 C 
ENDBRANCH  16  17
ENDBRANCH  10  16
ENDBRANCH   6   7
ENDBRANCH   5   6
ENDBRANCH   2   5
BRANCH   3  19
HETATM   19  C9  UNK     1       7.202   5.153  10.230  1.00  0.00     0.108 A 
HETATM   20  C12 UNK     1       6.939   5.375  11.523  1.00  0.00     0.037 A 
HETATM   21  C10 UNK     1       6.164   4.410  12.290  1.00  0.00     0.002 A 
HETATM   22  C13 UNK     1       5.704   3.261  11.654  1.00  0.00     0.089 A 
HETATM   23  C14 UNK     1       5.867   4.599  13.641  1.00  0.00     0.051 A 
HETATM   24  O3  UNK     1       5.982   3.035  10.292  1.00  0.00    -0.274 OA
HETATM   25  C16 UNK     1       4.957   2.298  12.331  1.00  0.00     0.041 A 
HETATM   26  C15 UNK     1       6.722   3.938   9.534  1.00  0.00     0.304 A 
HETATM   27  O6  UNK     1       6.961   3.733   8.349  1.00  0.00    -0.259 OA
HETATM   28  C18 UNK     1       4.665   2.494  13.680  1.00  0.00     0.039 A 
HETATM   29  C17 UNK     1       5.118   3.643  14.333  1.00  0.00     0.069 A 
BRANCH  29  30
HETATM   30  O5  UNK     1       4.830   3.831  15.651  1.00  0.00    -0.356 OA
HETATM   31  C23 UNK     1       5.617   3.108  16.597  1.00  0.00     0.210 C 
ENDBRANCH  29  30
ENDBRANCH   3  19
TORSDOF 9
ENDMDL
