MODEL 1
REMARK VINA RESULT:      -9.2      0.000      0.000
REMARK  3 active torsions:
REMARK  status: ('A' for Active; 'I' for Inactive)
REMARK    1  A    between atoms: C3_9  and  N1_6 
REMARK       I    between atoms: C6_12  and  N1_6 
REMARK    2  A    between atoms: C2_8  and  C6_12 
REMARK    3  A    between atoms: C3_9  and  C7_13 
ROOT
HETATM    1  O1  UNK     1      18.910   0.392  32.255  1.00  0.00    -0.274 OA
HETATM    2  O4  UNK     1      17.998   2.479  32.434  1.00  0.00    -0.259 OA
HETATM    3  C1  UNK     1      19.925  -0.299  30.157  1.00  0.00    -0.001 A 
HETATM    4  C2  UNK     1      18.959   1.914  30.342  1.00  0.00     0.108 A 
HETATM    5  C4  UNK     1      19.576  -0.574  31.475  1.00  0.00     0.089 A 
HETATM    6  C5  UNK     1      19.591   1.001  29.596  1.00  0.00     0.037 A 
HETATM    7  C8  UNK     1      20.585  -1.282  29.414  1.00  0.00     0.014 A 
HETATM    8  C9  UNK     1      18.579   1.644  31.747  1.00  0.00     0.304 A 
HETATM    9  C10 UNK     1      19.867  -1.799  32.071  1.00  0.00     0.038 A 
HETATM   10  C11 UNK     1      20.883  -2.517  29.999  1.00  0.00     0.001 A 
HETATM   11  C13 UNK     1      20.525  -2.774  31.324  1.00  0.00     0.003 A 
ENDROOT
BRANCH   4  12
HETATM   12  C6  UNK     1      18.666   3.195  29.689  1.00  0.00     0.258 C 
HETATM   13  O3  UNK     1      18.012   3.239  28.648  1.00  0.00    -0.267 OA
HETATM   14  N1  UNK     1      19.198   4.279  30.365  1.00  0.00    -0.351 N 
HETATM   15  H4  UNK     1      19.716   4.126  31.226  1.00  0.00     0.163 HD
BRANCH  14  16
HETATM   16  C3  UNK     1      19.042   5.643  29.913  1.00  0.00     0.188 C 
BRANCH  16  17
HETATM   17  C7  UNK     1      18.497   6.506  31.018  1.00  0.00     0.072 A 
HETATM   18  C12 UNK     1      17.315   7.187  31.183  1.00  0.00     0.038 A 
HETATM   19  C14 UNK     1      17.398   7.820  32.446  1.00  0.00     0.048 A 
HETATM   20  C15 UNK     1      18.627   7.482  32.962  1.00  0.00     0.121 A 
HETATM   21 Br1  UNK     1      19.298   8.045  34.643  1.00  0.00    -0.023 Br
HETATM   22  O2  UNK     1      19.304   6.680  32.098  1.00  0.00    -0.306 OA
ENDBRANCH  16  17
ENDBRANCH  14  16
ENDBRANCH   4  12
TORSDOF 3
ENDMDL
MODEL 2
REMARK VINA RESULT:      -9.0      1.125      1.265
REMARK  3 active torsions:
REMARK  status: ('A' for Active; 'I' for Inactive)
REMARK    1  A    between atoms: C3_9  and  N1_6 
REMARK       I    between atoms: C6_12  and  N1_6 
REMARK    2  A    between atoms: C2_8  and  C6_12 
REMARK    3  A    between atoms: C3_9  and  C7_13 
ROOT
HETATM    1  O1  UNK     1      18.920   0.355  32.249  1.00  0.00    -0.274 OA
HETATM    2  O4  UNK     1      18.005   2.437  32.471  1.00  0.00    -0.259 OA
HETATM    3  C1  UNK     1      19.941  -0.289  30.139  1.00  0.00    -0.001 A 
HETATM    4  C2  UNK     1      18.971   1.918  30.370  1.00  0.00     0.108 A 
HETATM    5  C4  UNK     1      19.589  -0.592  31.450  1.00  0.00     0.089 A 
HETATM    6  C5  UNK     1      19.606   1.022  29.605  1.00  0.00     0.037 A 
HETATM    7  C8  UNK     1      20.603  -1.256  29.378  1.00  0.00     0.014 A 
HETATM    8  C9  UNK     1      18.588   1.617  31.768  1.00  0.00     0.304 A 
HETATM    9  C10 UNK     1      19.880  -1.830  32.021  1.00  0.00     0.038 A 
HETATM   10  C11 UNK     1      20.902  -2.502  29.936  1.00  0.00     0.001 A 
HETATM   11  C13 UNK     1      20.541  -2.788  31.255  1.00  0.00     0.003 A 
ENDROOT
BRANCH   4  12
HETATM   12  C6  UNK     1      18.677   3.212  29.743  1.00  0.00     0.258 C 
HETATM   13  O3  UNK     1      18.028   3.277  28.701  1.00  0.00    -0.267 OA
HETATM   14  N1  UNK     1      19.204   4.283  30.445  1.00  0.00    -0.351 N 
HETATM   15  H4  UNK     1      19.719   4.112  31.304  1.00  0.00     0.163 HD
BRANCH  14  16
HETATM   16  C3  UNK     1      19.047   5.655  30.022  1.00  0.00     0.188 C 
BRANCH  16  17
HETATM   17  C7  UNK     1      18.565   6.508  31.164  1.00  0.00     0.072 A 
HETATM   18  C12 UNK     1      19.110   6.848  32.379  1.00  0.00     0.038 A 
HETATM   19  C14 UNK     1      18.162   7.685  33.015  1.00  0.00     0.048 A 
HETATM   20  C15 UNK     1      17.105   7.797  32.142  1.00  0.00     0.121 A 
HETATM   21 Br1  UNK     1      15.531   8.804  32.457  1.00  0.00    -0.023 Br
HETATM   22  O2  UNK     1      17.343   7.082  31.010  1.00  0.00    -0.306 OA
ENDBRANCH  16  17
ENDBRANCH  14  16
ENDBRANCH   4  12
TORSDOF 3
ENDMDL
MODEL 3
REMARK VINA RESULT:      -8.3      7.272     11.253
REMARK  3 active torsions:
REMARK  status: ('A' for Active; 'I' for Inactive)
REMARK    1  A    between atoms: C3_9  and  N1_6 
REMARK       I    between atoms: C6_12  and  N1_6 
REMARK    2  A    between atoms: C2_8  and  C6_12 
REMARK    3  A    between atoms: C3_9  and  C7_13 
ROOT
HETATM    1  O1  UNK     1      19.544  -0.970  34.777  1.00  0.00    -0.274 OA
HETATM    2  O4  UNK     1      20.586  -2.936  34.262  1.00  0.00    -0.259 OA
HETATM    3  C1  UNK     1      18.453  -0.718  36.935  1.00  0.00    -0.001 A 
HETATM    4  C2  UNK     1      19.557  -2.804  36.394  1.00  0.00     0.108 A 
HETATM    5  C4  UNK     1      18.806  -0.196  35.695  1.00  0.00     0.089 A 
HETATM    6  C5  UNK     1      18.856  -2.075  37.270  1.00  0.00     0.037 A 
HETATM    7  C8  UNK     1      17.721   0.080  37.819  1.00  0.00     0.014 A 
HETATM    8  C9  UNK     1      19.944  -2.270  35.068  1.00  0.00     0.304 A 
HETATM    9  C10 UNK     1      18.450   1.096  35.314  1.00  0.00     0.038 A 
HETATM   10  C11 UNK     1      17.357   1.379  37.450  1.00  0.00     0.001 A 
HETATM   11  C13 UNK     1      17.721   1.885  36.200  1.00  0.00     0.003 A 
ENDROOT
BRANCH   4  12
HETATM   12  C6  UNK     1      19.918  -4.161  36.821  1.00  0.00     0.258 C 
HETATM   13  O3  UNK     1      21.043  -4.409  37.251  1.00  0.00    -0.267 OA
HETATM   14  N1  UNK     1      18.880  -5.065  36.679  1.00  0.00    -0.351 N 
HETATM   15  H4  UNK     1      17.985  -4.745  36.319  1.00  0.00     0.163 HD
BRANCH  14  16
HETATM   16  C3  UNK     1      18.998  -6.461  37.032  1.00  0.00     0.188 C 
BRANCH  16  17
HETATM   17  C7  UNK     1      19.824  -7.196  36.011  1.00  0.00     0.072 A 
HETATM   18  C12 UNK     1      20.155  -6.932  34.703  1.00  0.00     0.038 A 
HETATM   19  C14 UNK     1      20.965  -8.011  34.277  1.00  0.00     0.048 A 
HETATM   20  C15 UNK     1      21.071  -8.858  35.355  1.00  0.00     0.121 A 
HETATM   21 Br1  UNK     1      22.044 -10.485  35.375  1.00  0.00    -0.023 Br
HETATM   22  O2  UNK     1      20.378  -8.368  36.417  1.00  0.00    -0.306 OA
ENDBRANCH  16  17
ENDBRANCH  14  16
ENDBRANCH   4  12
TORSDOF 3
ENDMDL
MODEL 4
REMARK VINA RESULT:      -8.3      2.516      7.349
REMARK  3 active torsions:
REMARK  status: ('A' for Active; 'I' for Inactive)
REMARK    1  A    between atoms: C3_9  and  N1_6 
REMARK       I    between atoms: C6_12  and  N1_6 
REMARK    2  A    between atoms: C2_8  and  C6_12 
REMARK    3  A    between atoms: C3_9  and  C7_13 
ROOT
HETATM    1  O1  UNK     1      19.677   6.626  31.695  1.00  0.00    -0.274 OA
HETATM    2  O4  UNK     1      20.197   5.156  30.026  1.00  0.00    -0.259 OA
HETATM    3  C1  UNK     1      17.918   6.071  33.279  1.00  0.00    -0.001 A 
HETATM    4  C2  UNK     1      18.466   4.510  31.511  1.00  0.00     0.108 A 
HETATM    5  C4  UNK     1      18.894   6.950  32.820  1.00  0.00     0.089 A 
HETATM    6  C5  UNK     1      17.719   4.812  32.579  1.00  0.00     0.037 A 
HETATM    7  C8  UNK     1      17.161   6.428  34.398  1.00  0.00     0.014 A 
HETATM    8  C9  UNK     1      19.511   5.430  31.005  1.00  0.00     0.304 A 
HETATM    9  C10 UNK     1      19.133   8.172  33.446  1.00  0.00     0.038 A 
HETATM   10  C11 UNK     1      17.390   7.650  35.036  1.00  0.00     0.001 A 
HETATM   11  C13 UNK     1      18.374   8.520  34.561  1.00  0.00     0.003 A 
ENDROOT
BRANCH   4  12
HETATM   12  C6  UNK     1      18.192   3.217  30.872  1.00  0.00     0.258 C 
HETATM   13  O3  UNK     1      17.038   2.819  30.721  1.00  0.00    -0.267 OA
HETATM   14  N1  UNK     1      19.343   2.550  30.489  1.00  0.00    -0.351 N 
HETATM   15  H4  UNK     1      20.249   2.980  30.656  1.00  0.00     0.163 HD
BRANCH  14  16
HETATM   16  C3  UNK     1      19.326   1.258  29.843  1.00  0.00     0.188 C 
BRANCH  16  17
HETATM   17  C7  UNK     1      19.405   0.156  30.864  1.00  0.00     0.072 A 
HETATM   18  C12 UNK     1      20.014  -1.076  30.873  1.00  0.00     0.038 A 
HETATM   19  C14 UNK     1      19.720  -1.651  32.132  1.00  0.00     0.048 A 
HETATM   20  C15 UNK     1      18.952  -0.728  32.804  1.00  0.00     0.121 A 
HETATM   21 Br1  UNK     1      18.258  -0.951  34.553  1.00  0.00    -0.023 Br
HETATM   22  O2  UNK     1      18.755   0.377  32.037  1.00  0.00    -0.306 OA
ENDBRANCH  16  17
ENDBRANCH  14  16
ENDBRANCH   4  12
TORSDOF 3
ENDMDL
MODEL 5
REMARK VINA RESULT:      -8.3      5.330      8.538
REMARK  3 active torsions:
REMARK  status: ('A' for Active; 'I' for Inactive)
REMARK    1  A    between atoms: C3_9  and  N1_6 
REMARK       I    between atoms: C6_12  and  N1_6 
REMARK    2  A    between atoms: C2_8  and  C6_12 
REMARK    3  A    between atoms: C3_9  and  C7_13 
ROOT
HETATM    1  O1  UNK     1      18.697   0.994  32.181  1.00  0.00    -0.274 OA
HETATM    2  O4  UNK     1      17.849   1.388  34.265  1.00  0.00    -0.259 OA
HETATM    3  C1  UNK     1      19.631  -1.189  31.658  1.00  0.00    -0.001 A 
HETATM    4  C2  UNK     1      18.732  -0.775  33.868  1.00  0.00     0.108 A 
HETATM    5  C4  UNK     1      19.313   0.110  31.274  1.00  0.00     0.089 A 
HETATM    6  C5  UNK     1      19.317  -1.620  33.011  1.00  0.00     0.037 A 
HETATM    7  C8  UNK     1      20.241  -2.037  30.729  1.00  0.00     0.014 A 
HETATM    8  C9  UNK     1      18.385   0.611  33.481  1.00  0.00     0.304 A 
HETATM    9  C10 UNK     1      19.587   0.583  29.992  1.00  0.00     0.038 A 
HETATM   10  C11 UNK     1      20.522  -1.575  29.440  1.00  0.00     0.001 A 
HETATM   11  C13 UNK     1      20.196  -0.268  29.073  1.00  0.00     0.003 A 
ENDROOT
BRANCH   4  12
HETATM   12  C6  UNK     1      18.455  -1.301  35.210  1.00  0.00     0.258 C 
HETATM   13  O3  UNK     1      17.326  -1.238  35.693  1.00  0.00    -0.267 OA
HETATM   14  N1  UNK     1      19.575  -1.841  35.819  1.00  0.00    -0.351 N 
HETATM   15  H4  UNK     1      20.460  -1.847  35.321  1.00  0.00     0.163 HD
BRANCH  14  16
HETATM   16  C3  UNK     1      19.550  -2.417  37.144  1.00  0.00     0.188 C 
BRANCH  16  17
HETATM   17  C7  UNK     1      19.936  -3.870  37.094  1.00  0.00     0.072 A 
HETATM   18  C12 UNK     1      21.021  -4.572  37.563  1.00  0.00     0.038 A 
HETATM   19  C14 UNK     1      20.804  -5.922  37.201  1.00  0.00     0.048 A 
HETATM   20  C15 UNK     1      19.601  -5.950  36.535  1.00  0.00     0.121 A 
HETATM   21 Br1  UNK     1      18.789  -7.502  35.810  1.00  0.00    -0.023 Br
HETATM   22  O2  UNK     1      19.064  -4.703  36.466  1.00  0.00    -0.306 OA
ENDBRANCH  16  17
ENDBRANCH  14  16
ENDBRANCH   4  12
TORSDOF 3
ENDMDL
MODEL 6
REMARK VINA RESULT:      -8.1      7.372     10.127
REMARK  3 active torsions:
REMARK  status: ('A' for Active; 'I' for Inactive)
REMARK    1  A    between atoms: C3_9  and  N1_6 
REMARK       I    between atoms: C6_12  and  N1_6 
REMARK    2  A    between atoms: C2_8  and  C6_12 
REMARK    3  A    between atoms: C3_9  and  C7_13 
ROOT
HETATM    1  O1  UNK     1      19.961  -7.826  35.714  1.00  0.00    -0.274 OA
HETATM    2  O4  UNK     1      20.243  -5.856  34.591  1.00  0.00    -0.259 OA
HETATM    3  C1  UNK     1      19.909  -7.825  38.144  1.00  0.00    -0.001 A 
HETATM    4  C2  UNK     1      20.209  -5.735  36.958  1.00  0.00     0.108 A 
HETATM    5  C4  UNK     1      19.844  -8.514  36.937  1.00  0.00     0.089 A 
HETATM    6  C5  UNK     1      20.099  -6.383  38.123  1.00  0.00     0.037 A 
HETATM    7  C8  UNK     1      19.789  -8.543  39.337  1.00  0.00     0.014 A 
HETATM    8  C9  UNK     1      20.143  -6.447  35.661  1.00  0.00     0.304 A 
HETATM    9  C10 UNK     1      19.664  -9.895  36.889  1.00  0.00     0.038 A 
HETATM   10  C11 UNK     1      19.608  -9.929  39.304  1.00  0.00     0.001 A 
HETATM   11  C13 UNK     1      19.546 -10.603  38.083  1.00  0.00     0.003 A 
ENDROOT
BRANCH   4  12
HETATM   12  C6  UNK     1      20.398  -4.282  37.039  1.00  0.00     0.258 C 
HETATM   13  O3  UNK     1      21.160  -3.790  37.869  1.00  0.00    -0.267 OA
HETATM   14  N1  UNK     1      19.643  -3.588  36.110  1.00  0.00    -0.351 N 
HETATM   15  H4  UNK     1      19.051  -4.101  35.463  1.00  0.00     0.163 HD
BRANCH  14  16
HETATM   16  C3  UNK     1      19.661  -2.147  35.999  1.00  0.00     0.188 C 
BRANCH  16  17
HETATM   17  C7  UNK     1      19.362  -1.723  34.587  1.00  0.00     0.072 A 
HETATM   18  C12 UNK     1      18.432  -0.872  34.038  1.00  0.00     0.038 A 
HETATM   19  C14 UNK     1      18.657  -0.892  32.641  1.00  0.00     0.048 A 
HETATM   20  C15 UNK     1      19.709  -1.755  32.436  1.00  0.00     0.121 A 
HETATM   21 Br1  UNK     1      20.459  -2.181  30.749  1.00  0.00    -0.023 Br
HETATM   22  O2  UNK     1      20.145  -2.266  33.618  1.00  0.00    -0.306 OA
ENDBRANCH  16  17
ENDBRANCH  14  16
ENDBRANCH   4  12
TORSDOF 3
ENDMDL
MODEL 7
REMARK VINA RESULT:      -8.1     22.326     24.065
REMARK  3 active torsions:
REMARK  status: ('A' for Active; 'I' for Inactive)
REMARK    1  A    between atoms: C3_9  and  N1_6 
REMARK       I    between atoms: C6_12  and  N1_6 
REMARK    2  A    between atoms: C2_8  and  C6_12 
REMARK    3  A    between atoms: C3_9  and  C7_13 
ROOT
HETATM    1  O1  UNK     1      11.170   7.185   9.495  1.00  0.00    -0.274 OA
HETATM    2  O4  UNK     1      12.856   7.515  11.001  1.00  0.00    -0.259 OA
HETATM    3  C1  UNK     1      11.698   6.420   7.249  1.00  0.00    -0.001 A 
HETATM    4  C2  UNK     1      13.489   6.770   8.841  1.00  0.00     0.108 A 
HETATM    5  C4  UNK     1      10.761   6.808   8.201  1.00  0.00     0.089 A 
HETATM    6  C5  UNK     1      13.107   6.411   7.610  1.00  0.00     0.037 A 
HETATM    7  C8  UNK     1      11.253   6.054   5.976  1.00  0.00     0.014 A 
HETATM    8  C9  UNK     1      12.509   7.185   9.871  1.00  0.00     0.304 A 
HETATM    9  C10 UNK     1       9.396   6.838   7.918  1.00  0.00     0.038 A 
HETATM   10  C11 UNK     1       9.888   6.079   5.677  1.00  0.00     0.001 A 
HETATM   11  C13 UNK     1       8.962   6.471   6.647  1.00  0.00     0.003 A 
ENDROOT
BRANCH   4  12
HETATM   12  C6  UNK     1      14.931   6.728   9.111  1.00  0.00     0.258 C 
HETATM   13  O3  UNK     1      15.588   5.714   8.879  1.00  0.00    -0.267 OA
HETATM   14  N1  UNK     1      15.416   7.914   9.633  1.00  0.00    -0.351 N 
HETATM   15  H4  UNK     1      14.780   8.695   9.776  1.00  0.00     0.163 HD
BRANCH  14  16
HETATM   16  C3  UNK     1      16.804   8.112   9.981  1.00  0.00     0.188 C 
BRANCH  16  17
HETATM   17  C7  UNK     1      17.183   9.561   9.838  1.00  0.00     0.072 A 
HETATM   18  C12 UNK     1      16.805  10.702  10.504  1.00  0.00     0.038 A 
HETATM   19  C14 UNK     1      17.516  11.765   9.899  1.00  0.00     0.048 A 
HETATM   20  C15 UNK     1      18.279  11.198   8.906  1.00  0.00     0.121 A 
HETATM   21 Br1  UNK     1      19.448  12.143   7.751  1.00  0.00    -0.023 Br
HETATM   22  O2  UNK     1      18.082   9.853   8.861  1.00  0.00    -0.306 OA
ENDBRANCH  16  17
ENDBRANCH  14  16
ENDBRANCH   4  12
TORSDOF 3
ENDMDL
MODEL 8
REMARK VINA RESULT:      -8.1      7.371     11.177
REMARK  3 active torsions:
REMARK  status: ('A' for Active; 'I' for Inactive)
REMARK    1  A    between atoms: C3_9  and  N1_6 
REMARK       I    between atoms: C6_12  and  N1_6 
REMARK    2  A    between atoms: C2_8  and  C6_12 
REMARK    3  A    between atoms: C3_9  and  C7_13 
ROOT
HETATM    1  O1  UNK     1      19.444  -0.883  34.628  1.00  0.00    -0.274 OA
HETATM    2  O4  UNK     1      20.619  -2.655  33.792  1.00  0.00    -0.259 OA
HETATM    3  C1  UNK     1      18.540  -0.998  36.882  1.00  0.00    -0.001 A 
HETATM    4  C2  UNK     1      19.785  -2.879  35.999  1.00  0.00     0.108 A 
HETATM    5  C4  UNK     1      18.724  -0.303  35.691  1.00  0.00     0.089 A 
HETATM    6  C5  UNK     1      19.102  -2.333  37.013  1.00  0.00     0.037 A 
HETATM    7  C8  UNK     1      17.820  -0.389  37.913  1.00  0.00     0.014 A 
HETATM    8  C9  UNK     1      19.994  -2.157  34.723  1.00  0.00     0.304 A 
HETATM    9  C10 UNK     1      18.211   0.978  35.502  1.00  0.00     0.038 A 
HETATM   10  C11 UNK     1      17.299   0.896  37.739  1.00  0.00     0.001 A 
HETATM   11  C13 UNK     1      17.494   1.578  36.535  1.00  0.00     0.003 A 
ENDROOT
BRANCH   4  12
HETATM   12  C6  UNK     1      20.314  -4.229  36.226  1.00  0.00     0.258 C 
HETATM   13  O3  UNK     1      21.286  -4.412  36.957  1.00  0.00    -0.267 OA
HETATM   14  N1  UNK     1      19.612  -5.205  35.541  1.00  0.00    -0.351 N 
HETATM   15  H4  UNK     1      18.815  -4.938  34.969  1.00  0.00     0.163 HD
BRANCH  14  16
HETATM   16  C3  UNK     1      19.948  -6.608  35.606  1.00  0.00     0.188 C 
BRANCH  16  17
HETATM   17  C7  UNK     1      19.971  -7.080  37.034  1.00  0.00     0.072 A 
HETATM   18  C12 UNK     1      18.993  -7.252  37.984  1.00  0.00     0.038 A 
HETATM   19  C14 UNK     1      19.650  -7.725  39.145  1.00  0.00     0.048 A 
HETATM   20  C15 UNK     1      20.984  -7.808  38.821  1.00  0.00     0.121 A 
HETATM   21 Br1  UNK     1      22.358  -8.386  39.992  1.00  0.00    -0.023 Br
HETATM   22  O2  UNK     1      21.189  -7.416  37.536  1.00  0.00    -0.306 OA
ENDBRANCH  16  17
ENDBRANCH  14  16
ENDBRANCH   4  12
TORSDOF 3
ENDMDL
MODEL 9
REMARK VINA RESULT:      -7.9      5.988      9.475
REMARK  3 active torsions:
REMARK  status: ('A' for Active; 'I' for Inactive)
REMARK    1  A    between atoms: C3_9  and  N1_6 
REMARK       I    between atoms: C6_12  and  N1_6 
REMARK    2  A    between atoms: C2_8  and  C6_12 
REMARK    3  A    between atoms: C3_9  and  C7_13 
ROOT
HETATM    1  O1  UNK     1      20.800  -2.441  31.019  1.00  0.00    -0.274 OA
HETATM    2  O4  UNK     1      21.304  -3.826  32.765  1.00  0.00    -0.259 OA
HETATM    3  C1  UNK     1      19.505  -0.424  31.422  1.00  0.00    -0.001 A 
HETATM    4  C2  UNK     1      20.037  -1.889  33.275  1.00  0.00     0.108 A 
HETATM    5  C4  UNK     1      20.181  -1.267  30.547  1.00  0.00     0.089 A 
HETATM    6  C5  UNK     1      19.446  -0.772  32.833  1.00  0.00     0.037 A 
HETATM    7  C8  UNK     1      18.903   0.732  30.915  1.00  0.00     0.014 A 
HETATM    8  C9  UNK     1      20.762  -2.801  32.362  1.00  0.00     0.304 A 
HETATM    9  C10 UNK     1      20.273  -0.990  29.184  1.00  0.00     0.038 A 
HETATM   10  C11 UNK     1      18.988   1.023  29.550  1.00  0.00     0.001 A 
HETATM   11  C13 UNK     1      19.671   0.163  28.687  1.00  0.00     0.003 A 
ENDROOT
BRANCH   4  12
HETATM   12  C6  UNK     1      19.924  -2.155  34.714  1.00  0.00     0.258 C 
HETATM   13  O3  UNK     1      19.924  -1.234  35.529  1.00  0.00    -0.267 OA
HETATM   14  N1  UNK     1      19.826  -3.504  35.006  1.00  0.00    -0.351 N 
HETATM   15  H4  UNK     1      19.827  -4.181  34.248  1.00  0.00     0.163 HD
BRANCH  14  16
HETATM   16  C3  UNK     1      19.708  -4.012  36.354  1.00  0.00     0.188 C 
BRANCH  16  17
HETATM   17  C7  UNK     1      19.564  -5.509  36.343  1.00  0.00     0.072 A 
HETATM   18  C12 UNK     1      18.592  -6.364  36.806  1.00  0.00     0.038 A 
HETATM   19  C14 UNK     1      19.038  -7.671  36.497  1.00  0.00     0.048 A 
HETATM   20  C15 UNK     1      20.251  -7.522  35.866  1.00  0.00     0.121 A 
HETATM   21 Br1  UNK     1      21.326  -8.941  35.217  1.00  0.00    -0.023 Br
HETATM   22  O2  UNK     1      20.579  -6.206  35.768  1.00  0.00    -0.306 OA
ENDBRANCH  16  17
ENDBRANCH  14  16
ENDBRANCH   4  12
TORSDOF 3
ENDMDL
MODEL 10
REMARK VINA RESULT:      -7.9      7.644     10.318
REMARK  3 active torsions:
REMARK  status: ('A' for Active; 'I' for Inactive)
REMARK    1  A    between atoms: C3_9  and  N1_6 
REMARK       I    between atoms: C6_12  and  N1_6 
REMARK    2  A    between atoms: C2_8  and  C6_12 
REMARK    3  A    between atoms: C3_9  and  C7_13 
ROOT
HETATM    1  O1  UNK     1      20.031  -8.318  35.648  1.00  0.00    -0.274 OA
HETATM    2  O4  UNK     1      20.399  -6.488  34.332  1.00  0.00    -0.259 OA
HETATM    3  C1  UNK     1      19.994  -8.072  38.066  1.00  0.00    -0.001 A 
HETATM    4  C2  UNK     1      20.385  -6.128  36.675  1.00  0.00     0.108 A 
HETATM    5  C4  UNK     1      19.889  -8.874  36.934  1.00  0.00     0.089 A 
HETATM    6  C5  UNK     1      20.252  -6.650  37.900  1.00  0.00     0.037 A 
HETATM    7  C8  UNK     1      19.848  -8.660  39.325  1.00  0.00     0.014 A 
HETATM    8  C9  UNK     1      20.277  -6.963  35.457  1.00  0.00     0.304 A 
HETATM    9  C10 UNK     1      19.643 -10.243  37.025  1.00  0.00     0.038 A 
HETATM   10  C11 UNK     1      19.601 -10.032  39.432  1.00  0.00     0.001 A 
HETATM   11  C13 UNK     1      19.499 -10.821  38.284  1.00  0.00     0.003 A 
ENDROOT
BRANCH   4  12
HETATM   12  C6  UNK     1      20.644  -4.685  36.610  1.00  0.00     0.258 C 
HETATM   13  O3  UNK     1      21.438  -4.150  37.381  1.00  0.00    -0.267 OA
HETATM   14  N1  UNK     1      19.911  -4.051  35.622  1.00  0.00    -0.351 N 
HETATM   15  H4  UNK     1      19.288  -4.597  35.033  1.00  0.00     0.163 HD
BRANCH  14  16
HETATM   16  C3  UNK     1      19.995  -2.631  35.368  1.00  0.00     0.188 C 
BRANCH  16  17
HETATM   17  C7  UNK     1      18.939  -1.893  36.145  1.00  0.00     0.072 A 
HETATM   18  C12 UNK     1      18.675  -1.765  37.488  1.00  0.00     0.038 A 
HETATM   19  C14 UNK     1      17.536  -0.933  37.588  1.00  0.00     0.048 A 
HETATM   20  C15 UNK     1      17.183  -0.611  36.298  1.00  0.00     0.121 A 
HETATM   21 Br1  UNK     1      15.719   0.488  35.809  1.00  0.00    -0.023 Br
HETATM   22  O2  UNK     1      18.034  -1.192  35.411  1.00  0.00    -0.306 OA
ENDBRANCH  16  17
ENDBRANCH  14  16
ENDBRANCH   4  12
TORSDOF 3
ENDMDL
