MODEL 1
REMARK VINA RESULT:      -8.8      0.000      0.000
REMARK  4 active torsions:
REMARK  status: ('A' for Active; 'I' for Inactive)
REMARK    1  A    between atoms: C11_17  and  O1_1 
REMARK    2  A    between atoms: C18_24  and  O1_1 
REMARK    3  A    between atoms: C17_23  and  C6_12 
REMARK    4  A    between atoms: C10_16  and  C18_24 
ROOT
HETATM    1  O2  UNK     1      31.943  -5.308  33.891  1.00  0.00    -0.293 OA
HETATM    2  N1  UNK     1      32.605  -9.086  36.668  1.00  0.00    -0.362 N 
HETATM    3  C1  UNK     1      35.046  -6.568  35.284  1.00  0.00    -0.036 C 
HETATM    4  C2  UNK     1      34.562  -7.977  35.683  1.00  0.00     0.067 C 
HETATM    5  C3  UNK     1      34.200  -6.058  34.108  1.00  0.00     0.092 C 
HETATM    6  C4  UNK     1      32.194  -7.255  35.224  1.00  0.00     0.024 C 
HETATM    7  C5  UNK     1      33.065  -8.089  35.829  1.00  0.00     0.021 C 
HETATM    8  C6  UNK     1      30.686  -7.418  35.403  1.00  0.00     0.104 C 
HETATM    9  C7  UNK     1      32.714  -6.132  34.384  1.00  0.00     0.159 C 
HETATM   10  C8  UNK     1      34.944  -5.598  36.481  1.00  0.00     0.015 C 
HETATM   11  C9  UNK     1      36.522  -6.642  34.854  1.00  0.00     0.015 C 
HETATM   12  C10 UNK     1      30.338  -8.425  36.503  1.00  0.00     0.052 C 
HETATM   13  C14 UNK     1      31.281  -9.224  37.053  1.00  0.00     0.018 C 
HETATM   14  C19 UNK     1      31.027 -10.283  38.092  1.00  0.00     0.069 C 
HETATM   15  H13 UNK     1      33.288  -9.694  37.103  1.00  0.00     0.165 HD
ENDROOT
BRANCH   8  16
HETATM   16  C17 UNK     1      30.039  -7.825  34.103  1.00  0.00     0.029 A 
HETATM   17  C20 UNK     1      28.953  -6.972  33.555  1.00  0.00     0.194 A 
HETATM   18  O5  UNK     1      28.574  -5.957  34.122  1.00  0.00    -0.287 OA
HETATM   19  C22 UNK     1      28.354  -7.415  32.282  1.00  0.00     0.049 A 
HETATM   20  C23 UNK     1      28.827  -8.580  31.678  1.00  0.00     0.089 A 
HETATM   21  C24 UNK     1      27.326  -6.681  31.686  1.00  0.00     0.025 A 
HETATM   22  O3  UNK     1      29.834  -9.339  32.219  1.00  0.00    -0.321 OA
HETATM   23  C25 UNK     1      28.275  -9.017  30.474  1.00  0.00     0.039 A 
HETATM   24  C21 UNK     1      30.383  -8.915  33.404  1.00  0.00     0.154 A 
HETATM   25  C27 UNK     1      27.249  -8.285  29.876  1.00  0.00     0.009 A 
HETATM   26  C26 UNK     1      26.775  -7.120  30.480  1.00  0.00    -0.061 A 
HETATM   27  C28 UNK     1      25.677  -6.342  29.836  1.00  0.00     0.048 C 
ENDBRANCH   8  16
BRANCH  12  28
HETATM   28  C18 UNK     1      28.941  -8.439  36.970  1.00  0.00     0.292 C 
HETATM   29  O4  UNK     1      28.041  -8.996  36.369  1.00  0.00    -0.259 OA
BRANCH  28  30
HETATM   30  O1  UNK     1      28.873  -7.747  38.132  1.00  0.00    -0.312 OA
BRANCH  30  31
HETATM   31  C11 UNK     1      28.819  -6.342  37.989  1.00  0.00     0.132 C 
HETATM   32  C12 UNK     1      29.961  -5.674  38.738  1.00  0.00     0.032 C 
HETATM   33  C15 UNK     1      29.487  -4.237  38.924  1.00  0.00     0.002 C 
HETATM   34  C16 UNK     1      27.958  -4.291  38.893  1.00  0.00     0.002 C 
HETATM   35  C13 UNK     1      27.591  -5.752  38.663  1.00  0.00     0.032 C 
ENDBRANCH  30  31
ENDBRANCH  28  30
ENDBRANCH  12  28
TORSDOF 4
ENDMDL
MODEL 2
REMARK VINA RESULT:      -8.8      2.710      5.379
REMARK  4 active torsions:
REMARK  status: ('A' for Active; 'I' for Inactive)
REMARK    1  A    between atoms: C11_17  and  O1_1 
REMARK    2  A    between atoms: C18_24  and  O1_1 
REMARK    3  A    between atoms: C17_23  and  C6_12 
REMARK    4  A    between atoms: C10_16  and  C18_24 
ROOT
HETATM    1  O2  UNK     1      29.294 -10.620  33.279  1.00  0.00    -0.293 OA
HETATM    2  N1  UNK     1      33.773  -9.412  34.228  1.00  0.00    -0.362 N 
HETATM    3  C1  UNK     1      32.348 -12.244  32.187  1.00  0.00    -0.036 C 
HETATM    4  C2  UNK     1      33.324 -11.590  33.186  1.00  0.00     0.067 C 
HETATM    5  C3  UNK     1      30.943 -12.282  32.805  1.00  0.00     0.092 C 
HETATM    6  C4  UNK     1      31.505  -9.985  33.857  1.00  0.00     0.024 C 
HETATM    7  C5  UNK     1      32.814 -10.303  33.783  1.00  0.00     0.021 C 
HETATM    8  C6  UNK     1      31.044  -8.667  34.478  1.00  0.00     0.104 C 
HETATM    9  C7  UNK     1      30.486 -10.925  33.298  1.00  0.00     0.159 C 
HETATM   10  C8  UNK     1      32.329 -11.464  30.855  1.00  0.00     0.015 C 
HETATM   11  C9  UNK     1      32.812 -13.682  31.892  1.00  0.00     0.015 C 
HETATM   12  C10 UNK     1      32.210  -7.710  34.741  1.00  0.00     0.052 C 
HETATM   13  C14 UNK     1      33.496  -8.119  34.642  1.00  0.00     0.018 C 
HETATM   14  C19 UNK     1      34.705  -7.273  34.938  1.00  0.00     0.069 C 
HETATM   15  H13 UNK     1      34.746  -9.686  34.157  1.00  0.00     0.165 HD
ENDROOT
BRANCH   8  16
HETATM   16  C17 UNK     1      30.283  -8.920  35.755  1.00  0.00     0.029 A 
HETATM   17  C20 UNK     1      28.889  -8.418  35.861  1.00  0.00     0.194 A 
HETATM   18  O5  UNK     1      28.346  -7.811  34.948  1.00  0.00    -0.287 OA
HETATM   19  C22 UNK     1      28.190  -8.691  37.131  1.00  0.00     0.049 A 
HETATM   20  C23 UNK     1      28.859  -9.389  38.137  1.00  0.00     0.089 A 
HETATM   21  C24 UNK     1      26.877  -8.258  37.327  1.00  0.00     0.025 A 
HETATM   22  O3  UNK     1      30.149  -9.837  37.997  1.00  0.00    -0.321 OA
HETATM   23  C25 UNK     1      28.217  -9.659  39.345  1.00  0.00     0.039 A 
HETATM   24  C21 UNK     1      30.787  -9.575  36.810  1.00  0.00     0.154 A 
HETATM   25  C27 UNK     1      26.905  -9.229  39.545  1.00  0.00     0.009 A 
HETATM   26  C26 UNK     1      26.236  -8.530  38.538  1.00  0.00    -0.061 A 
HETATM   27  C28 UNK     1      24.833  -8.073  38.757  1.00  0.00     0.048 C 
ENDBRANCH   8  16
BRANCH  12  28
HETATM   28  C18 UNK     1      31.863  -6.311  35.047  1.00  0.00     0.292 C 
HETATM   29  O4  UNK     1      31.572  -5.493  34.194  1.00  0.00    -0.259 OA
BRANCH  28  30
HETATM   30  O1  UNK     1      31.932  -6.139  36.388  1.00  0.00    -0.312 OA
BRANCH  30  31
HETATM   31  C11 UNK     1      30.765  -5.607  36.983  1.00  0.00     0.132 C 
HETATM   32  C12 UNK     1      30.937  -4.128  37.291  1.00  0.00     0.032 C 
HETATM   33  C15 UNK     1      29.873  -3.848  38.346  1.00  0.00     0.002 C 
HETATM   34  C16 UNK     1      29.610  -5.183  39.045  1.00  0.00     0.002 C 
HETATM   35  C13 UNK     1      30.508  -6.204  38.357  1.00  0.00     0.032 C 
ENDBRANCH  30  31
ENDBRANCH  28  30
ENDBRANCH  12  28
TORSDOF 4
ENDMDL
MODEL 3
REMARK VINA RESULT:      -8.7      1.969      5.785
REMARK  4 active torsions:
REMARK  status: ('A' for Active; 'I' for Inactive)
REMARK    1  A    between atoms: C11_17  and  O1_1 
REMARK    2  A    between atoms: C18_24  and  O1_1 
REMARK    3  A    between atoms: C17_23  and  C6_12 
REMARK    4  A    between atoms: C10_16  and  C18_24 
ROOT
HETATM    1  O2  UNK     1      28.999  -9.742  35.516  1.00  0.00    -0.293 OA
HETATM    2  N1  UNK     1      29.095  -5.441  37.495  1.00  0.00    -0.362 N 
HETATM    3  C1  UNK     1      27.190  -8.558  38.428  1.00  0.00    -0.036 C 
HETATM    4  C2  UNK     1      27.377  -7.043  38.212  1.00  0.00     0.067 C 
HETATM    5  C3  UNK     1      27.247  -9.271  37.069  1.00  0.00     0.092 C 
HETATM    6  C4  UNK     1      29.055  -7.543  36.404  1.00  0.00     0.024 C 
HETATM    7  C5  UNK     1      28.537  -6.693  37.314  1.00  0.00     0.021 C 
HETATM    8  C6  UNK     1      30.229  -7.134  35.515  1.00  0.00     0.104 C 
HETATM    9  C7  UNK     1      28.490  -8.922  36.279  1.00  0.00     0.159 C 
HETATM   10  C8  UNK     1      28.277  -9.112  39.373  1.00  0.00     0.015 C 
HETATM   11  C9  UNK     1      25.817  -8.811  39.077  1.00  0.00     0.015 C 
HETATM   12  C10 UNK     1      30.860  -5.812  35.961  1.00  0.00     0.052 C 
HETATM   13  C14 UNK     1      30.266  -5.020  36.884  1.00  0.00     0.018 C 
HETATM   14  C19 UNK     1      30.776  -3.680  37.340  1.00  0.00     0.069 C 
HETATM   15  H13 UNK     1      28.678  -4.830  38.186  1.00  0.00     0.165 HD
ENDROOT
BRANCH   8  16
HETATM   16  C17 UNK     1      29.796  -7.043  34.074  1.00  0.00     0.029 A 
HETATM   17  C20 UNK     1      30.469  -7.913  33.076  1.00  0.00     0.194 A 
HETATM   18  O5  UNK     1      31.355  -8.696  33.389  1.00  0.00    -0.287 OA
HETATM   19  C22 UNK     1      30.009  -7.784  31.680  1.00  0.00     0.049 A 
HETATM   20  C23 UNK     1      28.993  -6.875  31.382  1.00  0.00     0.089 A 
HETATM   21  C24 UNK     1      30.580  -8.559  30.668  1.00  0.00     0.025 A 
HETATM   22  O3  UNK     1      28.397  -6.089  32.337  1.00  0.00    -0.321 OA
HETATM   23  C25 UNK     1      28.542  -6.737  30.070  1.00  0.00     0.039 A 
HETATM   24  C21 UNK     1      28.835  -6.220  33.631  1.00  0.00     0.154 A 
HETATM   25  C27 UNK     1      29.110  -7.511  29.056  1.00  0.00     0.009 A 
HETATM   26  C26 UNK     1      30.126  -8.419  29.355  1.00  0.00    -0.061 A 
HETATM   27  C28 UNK     1      30.730  -9.243  28.268  1.00  0.00     0.048 C 
ENDBRANCH   8  16
BRANCH  12  28
HETATM   28  C18 UNK     1      32.171  -5.475  35.380  1.00  0.00     0.292 C 
HETATM   29  O4  UNK     1      32.354  -4.513  34.656  1.00  0.00    -0.259 OA
BRANCH  28  30
HETATM   30  O1  UNK     1      33.071  -6.399  35.792  1.00  0.00    -0.312 OA
BRANCH  30  31
HETATM   31  C11 UNK     1      34.207  -6.539  34.962  1.00  0.00     0.132 C 
HETATM   32  C12 UNK     1      34.400  -7.987  34.542  1.00  0.00     0.032 C 
HETATM   33  C15 UNK     1      35.865  -8.057  34.128  1.00  0.00     0.002 C 
HETATM   34  C16 UNK     1      36.574  -6.939  34.896  1.00  0.00     0.002 C 
HETATM   35  C13 UNK     1      35.495  -6.237  35.711  1.00  0.00     0.032 C 
ENDBRANCH  30  31
ENDBRANCH  28  30
ENDBRANCH  12  28
TORSDOF 4
ENDMDL
MODEL 4
REMARK VINA RESULT:      -8.7      2.077      5.861
REMARK  4 active torsions:
REMARK  status: ('A' for Active; 'I' for Inactive)
REMARK    1  A    between atoms: C11_17  and  O1_1 
REMARK    2  A    between atoms: C18_24  and  O1_1 
REMARK    3  A    between atoms: C17_23  and  C6_12 
REMARK    4  A    between atoms: C10_16  and  C18_24 
ROOT
HETATM    1  O2  UNK     1      27.691  -9.949  35.566  1.00  0.00    -0.293 OA
HETATM    2  N1  UNK     1      29.450  -6.393  38.152  1.00  0.00    -0.362 N 
HETATM    3  C1  UNK     1      26.271  -8.388  38.516  1.00  0.00    -0.036 C 
HETATM    4  C2  UNK     1      27.131  -7.108  38.533  1.00  0.00     0.067 C 
HETATM    5  C3  UNK     1      26.162  -8.902  37.073  1.00  0.00     0.092 C 
HETATM    6  C4  UNK     1      28.611  -8.121  36.767  1.00  0.00     0.024 C 
HETATM    7  C5  UNK     1      28.421  -7.230  37.761  1.00  0.00     0.021 C 
HETATM    8  C6  UNK     1      29.937  -8.197  36.013  1.00  0.00     0.104 C 
HETATM    9  C7  UNK     1      27.513  -9.073  36.412  1.00  0.00     0.159 C 
HETATM   10  C8  UNK     1      26.885  -9.470  39.429  1.00  0.00     0.015 C 
HETATM   11  C9  UNK     1      24.864  -8.059  39.045  1.00  0.00     0.015 C 
HETATM   12  C10 UNK     1      31.032  -7.360  36.680  1.00  0.00     0.052 C 
HETATM   13  C14 UNK     1      30.747  -6.487  37.674  1.00  0.00     0.018 C 
HETATM   14  C19 UNK     1      31.741  -5.579  38.347  1.00  0.00     0.069 C 
HETATM   15  H13 UNK     1      29.270  -5.736  38.901  1.00  0.00     0.165 HD
ENDROOT
BRANCH   8  16
HETATM   16  C17 UNK     1      29.758  -7.769  34.578  1.00  0.00     0.029 A 
HETATM   17  C20 UNK     1      30.105  -8.732  33.503  1.00  0.00     0.194 A 
HETATM   18  O5  UNK     1      30.528  -9.854  33.746  1.00  0.00    -0.287 OA
HETATM   19  C22 UNK     1      29.912  -8.263  32.117  1.00  0.00     0.049 A 
HETATM   20  C23 UNK     1      29.425  -6.974  31.900  1.00  0.00     0.089 A 
HETATM   21  C24 UNK     1      30.210  -9.095  31.036  1.00  0.00     0.025 A 
HETATM   22  O3  UNK     1      29.115  -6.115  32.924  1.00  0.00    -0.321 OA
HETATM   23  C25 UNK     1      29.234  -6.510  30.598  1.00  0.00     0.039 A 
HETATM   24  C21 UNK     1      29.300  -6.565  34.208  1.00  0.00     0.154 A 
HETATM   25  C27 UNK     1      29.530  -7.339  29.516  1.00  0.00     0.009 A 
HETATM   26  C26 UNK     1      30.018  -8.628  29.734  1.00  0.00    -0.061 A 
HETATM   27  C28 UNK     1      30.334  -9.510  28.573  1.00  0.00     0.048 C 
ENDBRANCH   8  16
BRANCH  12  28
HETATM   28  C18 UNK     1      32.414  -7.594  36.226  1.00  0.00     0.292 C 
HETATM   29  O4  UNK     1      33.134  -8.455  36.696  1.00  0.00    -0.259 OA
BRANCH  28  30
HETATM   30  O1  UNK     1      32.696  -6.708  35.241  1.00  0.00    -0.312 OA
BRANCH  30  31
HETATM   31  C11 UNK     1      33.796  -7.054  34.424  1.00  0.00     0.132 C 
HETATM   32  C12 UNK     1      34.752  -5.881  34.274  1.00  0.00     0.032 C 
HETATM   33  C15 UNK     1      35.548  -6.215  33.017  1.00  0.00     0.002 C 
HETATM   34  C16 UNK     1      34.650  -7.131  32.181  1.00  0.00     0.002 C 
HETATM   35  C13 UNK     1      33.373  -7.322  32.989  1.00  0.00     0.032 C 
ENDBRANCH  30  31
ENDBRANCH  28  30
ENDBRANCH  12  28
TORSDOF 4
ENDMDL
MODEL 5
REMARK VINA RESULT:      -8.7      1.951      6.114
REMARK  4 active torsions:
REMARK  status: ('A' for Active; 'I' for Inactive)
REMARK    1  A    between atoms: C11_17  and  O1_1 
REMARK    2  A    between atoms: C18_24  and  O1_1 
REMARK    3  A    between atoms: C17_23  and  C6_12 
REMARK    4  A    between atoms: C10_16  and  C18_24 
ROOT
HETATM    1  O2  UNK     1      29.034  -6.092  31.835  1.00  0.00    -0.293 OA
HETATM    2  N1  UNK     1      31.489 -10.139  31.996  1.00  0.00    -0.362 N 
HETATM    3  C1  UNK     1      28.895  -8.908  29.553  1.00  0.00    -0.036 C 
HETATM    4  C2  UNK     1      29.598  -9.955  30.439  1.00  0.00     0.067 C 
HETATM    5  C3  UNK     1      28.220  -7.860  30.450  1.00  0.00     0.092 C 
HETATM    6  C4  UNK     1      30.256  -8.117  32.028  1.00  0.00     0.024 C 
HETATM    7  C5  UNK     1      30.446  -9.358  31.533  1.00  0.00     0.021 C 
HETATM    8  C6  UNK     1      31.142  -7.563  33.142  1.00  0.00     0.104 C 
HETATM    9  C7  UNK     1      29.174  -7.256  31.459  1.00  0.00     0.159 C 
HETATM   10  C8  UNK     1      29.904  -8.232  28.601  1.00  0.00     0.015 C 
HETATM   11  C9  UNK     1      27.824  -9.607  28.696  1.00  0.00     0.015 C 
HETATM   12  C10 UNK     1      32.361  -8.452  33.410  1.00  0.00     0.052 C 
HETATM   13  C14 UNK     1      32.466  -9.688  32.869  1.00  0.00     0.018 C 
HETATM   14  C19 UNK     1      33.591 -10.655  33.120  1.00  0.00     0.069 C 
HETATM   15  H13 UNK     1      31.600 -11.065  31.602  1.00  0.00     0.165 HD
ENDROOT
BRANCH   8  16
HETATM   16  C17 UNK     1      30.347  -7.377  34.410  1.00  0.00     0.029 A 
HETATM   17  C20 UNK     1      30.609  -6.174  35.240  1.00  0.00     0.194 A 
HETATM   18  O5  UNK     1      31.444  -5.336  34.926  1.00  0.00    -0.287 OA
HETATM   19  C22 UNK     1      29.806  -6.039  36.469  1.00  0.00     0.049 A 
HETATM   20  C23 UNK     1      28.867  -7.025  36.777  1.00  0.00     0.089 A 
HETATM   21  C24 UNK     1      29.978  -4.943  37.317  1.00  0.00     0.025 A 
HETATM   22  O3  UNK     1      28.656  -8.122  35.980  1.00  0.00    -0.321 OA
HETATM   23  C25 UNK     1      28.095  -6.918  37.934  1.00  0.00     0.039 A 
HETATM   24  C21 UNK     1      29.411  -8.234  34.839  1.00  0.00     0.154 A 
HETATM   25  C27 UNK     1      28.265  -5.823  38.782  1.00  0.00     0.009 A 
HETATM   26  C26 UNK     1      29.204  -4.838  38.474  1.00  0.00    -0.061 A 
HETATM   27  C28 UNK     1      29.382  -3.670  39.385  1.00  0.00     0.048 C 
ENDBRANCH   8  16
BRANCH  12  28
HETATM   28  C18 UNK     1      33.434  -7.873  34.236  1.00  0.00     0.292 C 
HETATM   29  O4  UNK     1      34.080  -6.897  33.903  1.00  0.00    -0.259 OA
BRANCH  28  30
HETATM   30  O1  UNK     1      33.544  -8.607  35.369  1.00  0.00    -0.312 OA
BRANCH  30  31
HETATM   31  C11 UNK     1      32.529  -8.383  36.327  1.00  0.00     0.132 C 
HETATM   32  C12 UNK     1      33.091  -7.703  37.565  1.00  0.00     0.032 C 
HETATM   33  C15 UNK     1      32.057  -7.999  38.646  1.00  0.00     0.002 C 
HETATM   34  C16 UNK     1      31.353  -9.287  38.215  1.00  0.00     0.002 C 
HETATM   35  C13 UNK     1      31.980  -9.686  36.885  1.00  0.00     0.032 C 
ENDBRANCH  30  31
ENDBRANCH  28  30
ENDBRANCH  12  28
TORSDOF 4
ENDMDL
MODEL 6
REMARK VINA RESULT:      -8.7      2.063      6.352
REMARK  4 active torsions:
REMARK  status: ('A' for Active; 'I' for Inactive)
REMARK    1  A    between atoms: C11_17  and  O1_1 
REMARK    2  A    between atoms: C18_24  and  O1_1 
REMARK    3  A    between atoms: C17_23  and  C6_12 
REMARK    4  A    between atoms: C10_16  and  C18_24 
ROOT
HETATM    1  O2  UNK     1      30.013  -4.891  31.668  1.00  0.00    -0.293 OA
HETATM    2  N1  UNK     1      31.560  -9.304  32.416  1.00  0.00    -0.362 N 
HETATM    3  C1  UNK     1      28.741  -7.993  30.283  1.00  0.00    -0.036 C 
HETATM    4  C2  UNK     1      29.418  -8.974  31.262  1.00  0.00     0.067 C 
HETATM    5  C3  UNK     1      28.539  -6.642  30.984  1.00  0.00     0.092 C 
HETATM    6  C4  UNK     1      30.809  -7.074  32.150  1.00  0.00     0.024 C 
HETATM    7  C5  UNK     1      30.615  -8.397  31.973  1.00  0.00     0.021 C 
HETATM    8  C6  UNK     1      32.039  -6.544  32.884  1.00  0.00     0.104 C 
HETATM    9  C7  UNK     1      29.816  -6.104  31.593  1.00  0.00     0.159 C 
HETATM   10  C8  UNK     1      29.595  -7.817  29.010  1.00  0.00     0.015 C 
HETATM   11  C9  UNK     1      27.372  -8.558  29.866  1.00  0.00     0.015 C 
HETATM   12  C10 UNK     1      33.081  -7.638  33.137  1.00  0.00     0.052 C 
HETATM   13  C14 UNK     1      32.796  -8.945  32.932  1.00  0.00     0.018 C 
HETATM   14  C19 UNK     1      33.728 -10.093  33.207  1.00  0.00     0.069 C 
HETATM   15  H13 UNK     1      31.380 -10.289  32.267  1.00  0.00     0.165 HD
ENDROOT
BRANCH   8  16
HETATM   16  C17 UNK     1      31.642  -5.895  34.186  1.00  0.00     0.029 A 
HETATM   17  C20 UNK     1      30.708  -6.622  35.083  1.00  0.00     0.194 A 
HETATM   18  O5  UNK     1      30.258  -7.723  34.799  1.00  0.00    -0.287 OA
HETATM   19  C22 UNK     1      30.351  -5.944  36.343  1.00  0.00     0.049 A 
HETATM   20  C23 UNK     1      30.896  -4.688  36.616  1.00  0.00     0.089 A 
HETATM   21  C24 UNK     1      29.479  -6.545  37.254  1.00  0.00     0.025 A 
HETATM   22  O3  UNK     1      31.757  -4.052  35.758  1.00  0.00    -0.321 OA
HETATM   23  C25 UNK     1      30.573  -4.029  37.801  1.00  0.00     0.039 A 
HETATM   24  C21 UNK     1      32.081  -4.695  34.589  1.00  0.00     0.154 A 
HETATM   25  C27 UNK     1      29.703  -4.628  38.714  1.00  0.00     0.009 A 
HETATM   26  C26 UNK     1      29.157  -5.883  38.440  1.00  0.00    -0.061 A 
HETATM   27  C28 UNK     1      28.228  -6.518  39.418  1.00  0.00     0.048 C 
ENDBRANCH   8  16
BRANCH  12  28
HETATM   28  C18 UNK     1      34.421  -7.194  33.556  1.00  0.00     0.292 C 
HETATM   29  O4  UNK     1      35.140  -6.497  32.865  1.00  0.00    -0.259 OA
BRANCH  28  30
HETATM   30  O1  UNK     1      34.667  -7.690  34.792  1.00  0.00    -0.312 OA
BRANCH  30  31
HETATM   31  C11 UNK     1      33.946  -7.073  35.839  1.00  0.00     0.132 C 
HETATM   32  C12 UNK     1      34.860  -6.212  36.696  1.00  0.00     0.032 C 
HETATM   33  C15 UNK     1      34.096  -6.058  38.006  1.00  0.00     0.002 C 
HETATM   34  C16 UNK     1      33.178  -7.279  38.105  1.00  0.00     0.002 C 
HETATM   35  C13 UNK     1      33.416  -8.090  36.837  1.00  0.00     0.032 C 
ENDBRANCH  30  31
ENDBRANCH  28  30
ENDBRANCH  12  28
TORSDOF 4
ENDMDL
MODEL 7
REMARK VINA RESULT:      -8.7      2.882      6.853
REMARK  4 active torsions:
REMARK  status: ('A' for Active; 'I' for Inactive)
REMARK    1  A    between atoms: C11_17  and  O1_1 
REMARK    2  A    between atoms: C18_24  and  O1_1 
REMARK    3  A    between atoms: C17_23  and  C6_12 
REMARK    4  A    between atoms: C10_16  and  C18_24 
ROOT
HETATM    1  O2  UNK     1      33.197  -9.606  34.532  1.00  0.00    -0.293 OA
HETATM    2  N1  UNK     1      33.344  -7.254  30.424  1.00  0.00    -0.362 N 
HETATM    3  C1  UNK     1      35.784  -9.664  31.991  1.00  0.00    -0.036 C 
HETATM    4  C2  UNK     1      35.369  -8.399  31.213  1.00  0.00     0.067 C 
HETATM    5  C3  UNK     1      35.325  -9.532  33.450  1.00  0.00     0.092 C 
HETATM    6  C4  UNK     1      33.221  -8.340  32.525  1.00  0.00     0.024 C 
HETATM    7  C5  UNK     1      33.934  -7.990  31.435  1.00  0.00     0.021 C 
HETATM    8  C6  UNK     1      31.771  -7.893  32.701  1.00  0.00     0.104 C 
HETATM    9  C7  UNK     1      33.852  -9.205  33.570  1.00  0.00     0.159 C 
HETATM   10  C8  UNK     1      35.173 -10.925  31.346  1.00  0.00     0.015 C 
HETATM   11  C9  UNK     1      37.317  -9.801  31.952  1.00  0.00     0.015 C 
HETATM   12  C10 UNK     1      31.200  -7.263  31.428  1.00  0.00     0.052 C 
HETATM   13  C14 UNK     1      31.994  -6.944  30.380  1.00  0.00     0.018 C 
HETATM   14  C19 UNK     1      31.538  -6.268  29.115  1.00  0.00     0.069 C 
HETATM   15  H13 UNK     1      33.911  -7.009  29.621  1.00  0.00     0.165 HD
ENDROOT
BRANCH   8  16
HETATM   16  C17 UNK     1      31.649  -6.932  33.856  1.00  0.00     0.029 A 
HETATM   17  C20 UNK     1      30.643  -7.217  34.912  1.00  0.00     0.194 A 
HETATM   18  O5  UNK     1      29.919  -8.202  34.871  1.00  0.00    -0.287 OA
HETATM   19  C22 UNK     1      30.564  -6.245  36.018  1.00  0.00     0.049 A 
HETATM   20  C23 UNK     1      31.416  -5.140  36.013  1.00  0.00     0.089 A 
HETATM   21  C24 UNK     1      29.650  -6.425  37.059  1.00  0.00     0.025 A 
HETATM   22  O3  UNK     1      32.332  -4.915  35.017  1.00  0.00    -0.321 OA
HETATM   23  C25 UNK     1      31.358  -4.209  37.050  1.00  0.00     0.039 A 
HETATM   24  C21 UNK     1      32.395  -5.828  33.994  1.00  0.00     0.154 A 
HETATM   25  C27 UNK     1      30.446  -4.386  38.092  1.00  0.00     0.009 A 
HETATM   26  C26 UNK     1      29.594  -5.491  38.096  1.00  0.00    -0.061 A 
HETATM   27  C28 UNK     1      28.621  -5.675  39.212  1.00  0.00     0.048 C 
ENDBRANCH   8  16
BRANCH  12  28
HETATM   28  C18 UNK     1      29.740  -7.076  31.379  1.00  0.00     0.292 C 
HETATM   29  O4  UNK     1      29.203  -5.986  31.444  1.00  0.00    -0.259 OA
BRANCH  28  30
HETATM   30  O1  UNK     1      29.158  -8.293  31.254  1.00  0.00    -0.312 OA
BRANCH  30  31
HETATM   31  C11 UNK     1      29.328  -8.910  29.994  1.00  0.00     0.132 C 
HETATM   32  C12 UNK     1      27.986  -9.156  29.322  1.00  0.00     0.032 C 
HETATM   33  C15 UNK     1      28.284 -10.238  28.292  1.00  0.00     0.002 C 
HETATM   34  C16 UNK     1      29.505 -10.996  28.818  1.00  0.00     0.002 C 
HETATM   35  C13 UNK     1      29.895 -10.314  30.124  1.00  0.00     0.032 C 
ENDBRANCH  30  31
ENDBRANCH  28  30
ENDBRANCH  12  28
TORSDOF 4
ENDMDL
MODEL 8
REMARK VINA RESULT:      -8.6      2.163      6.286
REMARK  4 active torsions:
REMARK  status: ('A' for Active; 'I' for Inactive)
REMARK    1  A    between atoms: C11_17  and  O1_1 
REMARK    2  A    between atoms: C18_24  and  O1_1 
REMARK    3  A    between atoms: C17_23  and  C6_12 
REMARK    4  A    between atoms: C10_16  and  C18_24 
ROOT
HETATM    1  O2  UNK     1      29.194  -6.382  31.691  1.00  0.00    -0.293 OA
HETATM    2  N1  UNK     1      32.337  -9.913  31.426  1.00  0.00    -0.362 N 
HETATM    3  C1  UNK     1      29.309  -9.127  29.323  1.00  0.00    -0.036 C 
HETATM    4  C2  UNK     1      30.283 -10.046  30.086  1.00  0.00     0.067 C 
HETATM    5  C3  UNK     1      28.561  -8.239  30.328  1.00  0.00     0.092 C 
HETATM    6  C4  UNK     1      30.773  -8.153  31.671  1.00  0.00     0.024 C 
HETATM    7  C5  UNK     1      31.127  -9.326  31.108  1.00  0.00     0.021 C 
HETATM    8  C6  UNK     1      31.664  -7.469  32.707  1.00  0.00     0.104 C 
HETATM    9  C7  UNK     1      29.497  -7.492  31.255  1.00  0.00     0.159 C 
HETATM   10  C8  UNK     1      30.068  -8.258  28.298  1.00  0.00     0.015 C 
HETATM   11  C9  UNK     1      28.292  -9.992  28.556  1.00  0.00     0.015 C 
HETATM   12  C10 UNK     1      33.044  -8.126  32.807  1.00  0.00     0.052 C 
HETATM   13  C14 UNK     1      33.309  -9.309  32.208  1.00  0.00     0.018 C 
HETATM   14  C19 UNK     1      34.610 -10.060  32.299  1.00  0.00     0.069 C 
HETATM   15  H13 UNK     1      32.568 -10.795  30.985  1.00  0.00     0.165 HD
ENDROOT
BRANCH   8  16
HETATM   16  C17 UNK     1      30.995  -7.458  34.058  1.00  0.00     0.029 A 
HETATM   17  C20 UNK     1      30.964  -6.185  34.822  1.00  0.00     0.194 A 
HETATM   18  O5  UNK     1      31.461  -5.154  34.390  1.00  0.00    -0.287 OA
HETATM   19  C22 UNK     1      30.298  -6.229  36.138  1.00  0.00     0.049 A 
HETATM   20  C23 UNK     1      29.747  -7.432  36.580  1.00  0.00     0.089 A 
HETATM   21  C24 UNK     1      30.218  -5.083  36.933  1.00  0.00     0.025 A 
HETATM   22  O3  UNK     1      29.798  -8.586  35.840  1.00  0.00    -0.321 OA
HETATM   23  C25 UNK     1      29.113  -7.496  37.820  1.00  0.00     0.039 A 
HETATM   24  C21 UNK     1      30.420  -8.531  34.618  1.00  0.00     0.154 A 
HETATM   25  C27 UNK     1      29.030  -6.353  38.617  1.00  0.00     0.009 A 
HETATM   26  C26 UNK     1      29.581  -5.150  38.174  1.00  0.00    -0.061 A 
HETATM   27  C28 UNK     1      29.490  -3.931  39.030  1.00  0.00     0.048 C 
ENDBRANCH   8  16
BRANCH  12  28
HETATM   28  C18 UNK     1      34.081  -7.378  33.538  1.00  0.00     0.292 C 
HETATM   29  O4  UNK     1      34.642  -6.397  33.086  1.00  0.00    -0.259 OA
BRANCH  28  30
HETATM   30  O1  UNK     1      34.268  -7.972  34.741  1.00  0.00    -0.312 OA
BRANCH  30  31
HETATM   31  C11 UNK     1      33.726  -7.273  35.844  1.00  0.00     0.132 C 
HETATM   32  C12 UNK     1      34.803  -6.492  36.578  1.00  0.00     0.032 C 
HETATM   33  C15 UNK     1      34.204  -6.247  37.957  1.00  0.00     0.002 C 
HETATM   34  C16 UNK     1      33.191  -7.372  38.182  1.00  0.00     0.002 C 
HETATM   35  C13 UNK     1      33.214  -8.220  36.917  1.00  0.00     0.032 C 
ENDBRANCH  30  31
ENDBRANCH  28  30
ENDBRANCH  12  28
TORSDOF 4
ENDMDL
MODEL 9
REMARK VINA RESULT:      -8.5      2.312      6.573
REMARK  4 active torsions:
REMARK  status: ('A' for Active; 'I' for Inactive)
REMARK    1  A    between atoms: C11_17  and  O1_1 
REMARK    2  A    between atoms: C18_24  and  O1_1 
REMARK    3  A    between atoms: C17_23  and  C6_12 
REMARK    4  A    between atoms: C10_16  and  C18_24 
ROOT
HETATM    1  O2  UNK     1      32.508  -9.971  34.838  1.00  0.00    -0.293 OA
HETATM    2  N1  UNK     1      31.972  -6.422  31.748  1.00  0.00    -0.362 N 
HETATM    3  C1  UNK     1      35.046  -8.308  32.849  1.00  0.00    -0.036 C 
HETATM    4  C2  UNK     1      34.239  -7.056  32.450  1.00  0.00     0.067 C 
HETATM    5  C3  UNK     1      34.512  -8.847  34.185  1.00  0.00     0.092 C 
HETATM    6  C4  UNK     1      32.161  -8.149  33.357  1.00  0.00     0.024 C 
HETATM    7  C5  UNK     1      32.745  -7.233  32.558  1.00  0.00     0.021 C 
HETATM    8  C6  UNK     1      30.641  -8.281  33.432  1.00  0.00     0.104 C 
HETATM    9  C7  UNK     1      33.015  -9.072  34.166  1.00  0.00     0.159 C 
HETATM   10  C8  UNK     1      34.948  -9.391  31.754  1.00  0.00     0.015 C 
HETATM   11  C9  UNK     1      36.527  -7.925  33.012  1.00  0.00     0.015 C 
HETATM   12  C10 UNK     1      29.933  -7.466  32.346  1.00  0.00     0.052 C 
HETATM   13  C14 UNK     1      30.603  -6.566  31.590  1.00  0.00     0.018 C 
HETATM   14  C19 UNK     1      29.987  -5.677  30.544  1.00  0.00     0.069 C 
HETATM   15  H13 UNK     1      32.446  -5.745  31.162  1.00  0.00     0.165 HD
ENDROOT
BRANCH   8  16
HETATM   16  C17 UNK     1      30.139  -7.876  34.795  1.00  0.00     0.029 A 
HETATM   17  C20 UNK     1      29.385  -8.871  35.598  1.00  0.00     0.194 A 
HETATM   18  O5  UNK     1      29.162 -10.002  35.189  1.00  0.00    -0.287 OA
HETATM   19  C22 UNK     1      28.916  -8.424  36.923  1.00  0.00     0.049 A 
HETATM   20  C23 UNK     1      29.201  -7.122  37.339  1.00  0.00     0.089 A 
HETATM   21  C24 UNK     1      28.197  -9.287  37.753  1.00  0.00     0.025 A 
HETATM   22  O3  UNK     1      29.903  -6.233  36.565  1.00  0.00    -0.321 OA
HETATM   23  C25 UNK     1      28.768  -6.678  38.588  1.00  0.00     0.039 A 
HETATM   24  C21 UNK     1      30.333  -6.664  35.334  1.00  0.00     0.154 A 
HETATM   25  C27 UNK     1      28.050  -7.538  39.420  1.00  0.00     0.009 A 
HETATM   26  C26 UNK     1      27.765  -8.839  39.003  1.00  0.00    -0.061 A 
HETATM   27  C28 UNK     1      26.997  -9.754  39.896  1.00  0.00     0.048 C 
ENDBRANCH   8  16
BRANCH  12  28
HETATM   28  C18 UNK     1      28.505  -7.752  32.127  1.00  0.00     0.292 C 
HETATM   29  O4  UNK     1      27.618  -6.960  32.385  1.00  0.00    -0.259 OA
BRANCH  28  30
HETATM   30  O1  UNK     1      28.394  -9.000  31.613  1.00  0.00    -0.312 OA
BRANCH  30  31
HETATM   31  C11 UNK     1      28.963  -9.171  30.330  1.00  0.00     0.132 C 
HETATM   32  C12 UNK     1      27.887  -9.423  29.287  1.00  0.00     0.032 C 
HETATM   33  C15 UNK     1      28.639 -10.078  28.135  1.00  0.00     0.002 C 
HETATM   34  C16 UNK     1      29.867 -10.745  28.759  1.00  0.00     0.002 C 
HETATM   35  C13 UNK     1      29.805 -10.434  30.249  1.00  0.00     0.032 C 
ENDBRANCH  30  31
ENDBRANCH  28  30
ENDBRANCH  12  28
TORSDOF 4
ENDMDL
MODEL 10
REMARK VINA RESULT:      -8.5      2.477      6.972
REMARK  4 active torsions:
REMARK  status: ('A' for Active; 'I' for Inactive)
REMARK    1  A    between atoms: C11_17  and  O1_1 
REMARK    2  A    between atoms: C18_24  and  O1_1 
REMARK    3  A    between atoms: C17_23  and  C6_12 
REMARK    4  A    between atoms: C10_16  and  C18_24 
ROOT
HETATM    1  O2  UNK     1      32.072  -6.313  37.053  1.00  0.00    -0.293 OA
HETATM    2  N1  UNK     1      27.952  -6.613  34.737  1.00  0.00    -0.362 N 
HETATM    3  C1  UNK     1      28.715  -6.402  38.423  1.00  0.00    -0.036 C 
HETATM    4  C2  UNK     1      27.972  -6.917  37.174  1.00  0.00     0.067 C 
HETATM    5  C3  UNK     1      30.171  -6.888  38.380  1.00  0.00     0.092 C 
HETATM    6  C4  UNK     1      30.057  -6.532  35.818  1.00  0.00     0.024 C 
HETATM    7  C5  UNK     1      28.720  -6.692  35.884  1.00  0.00     0.021 C 
HETATM    8  C6  UNK     1      30.765  -6.313  34.482  1.00  0.00     0.104 C 
HETATM    9  C7  UNK     1      30.863  -6.541  37.079  1.00  0.00     0.159 C 
HETATM   10  C8  UNK     1      28.663  -4.861  38.492  1.00  0.00     0.015 C 
HETATM   11  C9  UNK     1      28.032  -6.960  39.685  1.00  0.00     0.015 C 
HETATM   12  C10 UNK     1      29.779  -6.052  33.340  1.00  0.00     0.052 C 
HETATM   13  C14 UNK     1      28.449  -6.241  33.498  1.00  0.00     0.018 C 
HETATM   14  C19 UNK     1      27.410  -6.070  32.422  1.00  0.00     0.069 C 
HETATM   15  H13 UNK     1      26.951  -6.740  34.826  1.00  0.00     0.165 HD
ENDROOT
BRANCH   8  16
HETATM   16  C17 UNK     1      31.645  -7.491  34.149  1.00  0.00     0.029 A 
HETATM   17  C20 UNK     1      33.099  -7.256  33.955  1.00  0.00     0.194 A 
HETATM   18  O5  UNK     1      33.598  -6.144  34.059  1.00  0.00    -0.287 OA
HETATM   19  C22 UNK     1      33.915  -8.441  33.630  1.00  0.00     0.049 A 
HETATM   20  C23 UNK     1      33.292  -9.686  33.525  1.00  0.00     0.089 A 
HETATM   21  C24 UNK     1      35.292  -8.324  33.428  1.00  0.00     0.025 A 
HETATM   22  O3  UNK     1      31.944  -9.858  33.713  1.00  0.00    -0.321 OA
HETATM   23  C25 UNK     1      34.044 -10.819  33.219  1.00  0.00     0.039 A 
HETATM   24  C21 UNK     1      31.197  -8.747  34.015  1.00  0.00     0.154 A 
HETATM   25  C27 UNK     1      35.420 -10.706  33.018  1.00  0.00     0.009 A 
HETATM   26  C26 UNK     1      36.043  -9.461  33.122  1.00  0.00    -0.061 A 
HETATM   27  C28 UNK     1      37.514  -9.345  32.906  1.00  0.00     0.048 C 
ENDBRANCH   8  16
BRANCH  12  28
HETATM   28  C18 UNK     1      30.344  -5.530  32.083  1.00  0.00     0.292 C 
HETATM   29  O4  UNK     1      30.218  -4.374  31.724  1.00  0.00    -0.259 OA
BRANCH  28  30
HETATM   30  O1  UNK     1      30.989  -6.540  31.454  1.00  0.00    -0.312 OA
BRANCH  30  31
HETATM   31  C11 UNK     1      30.337  -7.043  30.305  1.00  0.00     0.132 C 
HETATM   32  C12 UNK     1      29.677  -8.381  30.595  1.00  0.00     0.032 C 
HETATM   33  C15 UNK     1      29.492  -9.005  29.216  1.00  0.00     0.002 C 
HETATM   34  C16 UNK     1      30.566  -8.379  28.323  1.00  0.00     0.002 C 
HETATM   35  C13 UNK     1      31.323  -7.391  29.202  1.00  0.00     0.032 C 
ENDBRANCH  30  31
ENDBRANCH  28  30
ENDBRANCH  12  28
TORSDOF 4
ENDMDL
