MODEL 1
REMARK VINA RESULT:      -8.1      0.000      0.000
REMARK  4 active torsions:
REMARK  status: ('A' for Active; 'I' for Inactive)
REMARK    1  A    between atoms: C1_8  and  N1_5 
REMARK    2  A    between atoms: C3_10  and  N1_5 
REMARK    3  A    between atoms: C6_13  and  N2_6 
REMARK    4  A    between atoms: C5_12  and  N3_7 
ROOT
HETATM    1  O1  UNK     1      17.953  -0.511  33.303  1.00  0.00    -0.273 OA
HETATM    2  O2  UNK     1      19.317  -1.354  31.681  1.00  0.00    -0.257 OA
HETATM    3  C1  UNK     1      19.567  -1.856  35.253  1.00  0.00     0.085 A 
HETATM    4  C2  UNK     1      18.387  -1.048  35.656  1.00  0.00     0.027 A 
HETATM    5  C4  UNK     1      17.628  -0.407  34.670  1.00  0.00     0.092 A 
HETATM    6  C5  UNK     1      19.812  -1.910  33.933  1.00  0.00     0.205 A 
HETATM    7  C7  UNK     1      17.965  -0.879  36.986  1.00  0.00     0.017 A 
HETATM    8  C12 UNK     1      16.505   0.371  34.968  1.00  0.00     0.038 A 
HETATM    9  C13 UNK     1      19.036  -1.256  32.869  1.00  0.00     0.324 A 
HETATM   10  C14 UNK     1      16.841  -0.102  37.299  1.00  0.00     0.001 A 
HETATM   11  C15 UNK     1      16.112   0.522  36.292  1.00  0.00     0.003 A 
ENDROOT
BRANCH   3  12
HETATM   12  N1  UNK     1      20.299  -2.467  36.240  1.00  0.00    -0.353 N 
HETATM   13  H1  UNK     1      21.178  -2.007  36.458  1.00  0.00     0.166 HD
BRANCH  12  14
HETATM   14  C3  UNK     1      20.181  -3.772  36.718  1.00  0.00     0.032 A 
HETATM   15  C8  UNK     1      19.104  -4.579  36.327  1.00  0.00     0.031 A 
HETATM   16  C10 UNK     1      18.988  -5.886  36.803  1.00  0.00     0.031 A 
HETATM   17  C6  UNK     1      19.949  -6.398  37.674  1.00  0.00     0.029 A 
HETATM   18  C11 UNK     1      21.026  -5.604  38.070  1.00  0.00     0.031 A 
HETATM   19  C9  UNK     1      21.142  -4.299  37.595  1.00  0.00     0.031 A 
BRANCH  17  20
HETATM   20  N2  UNK     1      19.834  -7.719  38.154  1.00  0.00    -0.390 N 
HETATM   21  C16 UNK     1      19.188  -8.738  37.350  1.00  0.00     0.149 C 
HETATM   22  C17 UNK     1      20.372  -8.079  39.451  1.00  0.00     0.149 C 
ENDBRANCH  17  20
ENDBRANCH  12  14
ENDBRANCH   3  12
BRANCH   6  23
HETATM   23  N3  UNK     1      20.939  -2.678  33.506  1.00  0.00    -0.107 N 
HETATM   24  O3  UNK     1      22.025  -2.092  33.437  1.00  0.00    -0.531 OA
HETATM   25  O4  UNK     1      20.737  -3.868  33.239  1.00  0.00    -0.531 OA
ENDBRANCH   6  23
TORSDOF 4
ENDMDL
MODEL 2
REMARK VINA RESULT:      -7.7      4.239      8.544
REMARK  4 active torsions:
REMARK  status: ('A' for Active; 'I' for Inactive)
REMARK    1  A    between atoms: C1_8  and  N1_5 
REMARK    2  A    between atoms: C3_10  and  N1_5 
REMARK    3  A    between atoms: C6_13  and  N2_6 
REMARK    4  A    between atoms: C5_12  and  N3_7 
ROOT
HETATM    1  O1  UNK     1      20.673  -2.181  32.306  1.00  0.00    -0.273 OA
HETATM    2  O2  UNK     1      20.454  -2.838  34.479  1.00  0.00    -0.257 OA
HETATM    3  C1  UNK     1      18.766  -0.103  32.822  1.00  0.00     0.085 A 
HETATM    4  C2  UNK     1      19.370  -0.276  31.475  1.00  0.00     0.027 A 
HETATM    5  C4  UNK     1      20.298  -1.304  31.269  1.00  0.00     0.092 A 
HETATM    6  C5  UNK     1      19.170  -0.979  33.758  1.00  0.00     0.205 A 
HETATM    7  C7  UNK     1      19.069   0.533  30.367  1.00  0.00     0.017 A 
HETATM    8  C12 UNK     1      20.911  -1.531  30.032  1.00  0.00     0.038 A 
HETATM    9  C13 UNK     1      20.136  -2.072  33.577  1.00  0.00     0.324 A 
HETATM   10  C14 UNK     1      19.675   0.316  29.122  1.00  0.00     0.001 A 
HETATM   11  C15 UNK     1      20.594  -0.714  28.954  1.00  0.00     0.003 A 
ENDROOT
BRANCH   3  12
HETATM   12  N1  UNK     1      17.866   0.917  33.000  1.00  0.00    -0.353 N 
HETATM   13  H1  UNK     1      16.916   0.693  32.719  1.00  0.00     0.166 HD
BRANCH  12  14
HETATM   14  C3  UNK     1      18.126   2.276  33.170  1.00  0.00     0.032 A 
HETATM   15  C8  UNK     1      18.447   2.786  34.436  1.00  0.00     0.031 A 
HETATM   16  C10 UNK     1      18.711   4.146  34.607  1.00  0.00     0.031 A 
HETATM   17  C6  UNK     1      18.654   5.010  33.513  1.00  0.00     0.029 A 
HETATM   18  C11 UNK     1      18.335   4.513  32.248  1.00  0.00     0.031 A 
HETATM   19  C9  UNK     1      18.072   3.155  32.078  1.00  0.00     0.031 A 
BRANCH  17  20
HETATM   20  N2  UNK     1      18.921   6.383  33.684  1.00  0.00    -0.390 N 
HETATM   21  C16 UNK     1      17.955   7.242  34.340  1.00  0.00     0.149 C 
HETATM   22  C17 UNK     1      20.170   6.953  33.219  1.00  0.00     0.149 C 
ENDBRANCH  17  20
ENDBRANCH  12  14
ENDBRANCH   3  12
BRANCH   6  23
HETATM   23  N3  UNK     1      18.611  -0.845  35.065  1.00  0.00    -0.107 N 
HETATM   24  O3  UNK     1      19.270  -0.210  35.896  1.00  0.00    -0.531 OA
HETATM   25  O4  UNK     1      17.512  -1.375  35.262  1.00  0.00    -0.531 OA
ENDBRANCH   6  23
TORSDOF 4
ENDMDL
MODEL 3
REMARK VINA RESULT:      -7.7      1.727      3.460
REMARK  4 active torsions:
REMARK  status: ('A' for Active; 'I' for Inactive)
REMARK    1  A    between atoms: C1_8  and  N1_5 
REMARK    2  A    between atoms: C3_10  and  N1_5 
REMARK    3  A    between atoms: C6_13  and  N2_6 
REMARK    4  A    between atoms: C5_12  and  N3_7 
ROOT
HETATM    1  O1  UNK     1      17.755  -0.357  33.579  1.00  0.00    -0.273 OA
HETATM    2  O2  UNK     1      16.486   0.466  35.286  1.00  0.00    -0.257 OA
HETATM    3  C1  UNK     1      19.354  -1.722  35.528  1.00  0.00     0.085 A 
HETATM    4  C2  UNK     1      19.658  -1.823  34.077  1.00  0.00     0.027 A 
HETATM    5  C4  UNK     1      18.849  -1.140  33.160  1.00  0.00     0.092 A 
HETATM    6  C5  UNK     1      18.299  -0.955  35.851  1.00  0.00     0.205 A 
HETATM    7  C7  UNK     1      20.723  -2.568  33.545  1.00  0.00     0.017 A 
HETATM    8  C12 UNK     1      19.068  -1.186  31.780  1.00  0.00     0.038 A 
HETATM    9  C13 UNK     1      17.432  -0.220  34.918  1.00  0.00     0.324 A 
HETATM   10  C14 UNK     1      20.955  -2.623  32.164  1.00  0.00     0.001 A 
HETATM   11  C15 UNK     1      20.129  -1.932  31.282  1.00  0.00     0.003 A 
ENDROOT
BRANCH   3  12
HETATM   12  N1  UNK     1      20.157  -2.407  36.405  1.00  0.00    -0.353 N 
HETATM   13  H1  UNK     1      21.052  -1.964  36.590  1.00  0.00     0.166 HD
BRANCH  12  14
HETATM   14  C3  UNK     1      20.071  -3.746  36.787  1.00  0.00     0.032 A 
HETATM   15  C8  UNK     1      19.013  -4.548  36.338  1.00  0.00     0.031 A 
HETATM   16  C10 UNK     1      18.929  -5.888  36.718  1.00  0.00     0.031 A 
HETATM   17  C6  UNK     1      19.903  -6.439  37.551  1.00  0.00     0.029 A 
HETATM   18  C11 UNK     1      20.961  -5.650  38.004  1.00  0.00     0.031 A 
HETATM   19  C9  UNK     1      21.045  -4.311  37.624  1.00  0.00     0.031 A 
BRANCH  17  20
HETATM   20  N2  UNK     1      19.819  -7.794  37.934  1.00  0.00    -0.390 N 
HETATM   21  C16 UNK     1      19.317  -8.788  37.007  1.00  0.00     0.149 C 
HETATM   22  C17 UNK     1      20.248  -8.212  39.253  1.00  0.00     0.149 C 
ENDBRANCH  17  20
ENDBRANCH  12  14
ENDBRANCH   3  12
BRANCH   6  23
HETATM   23  N3  UNK     1      17.976  -0.833  37.237  1.00  0.00    -0.107 N 
HETATM   24  O3  UNK     1      18.328   0.206  37.806  1.00  0.00    -0.531 OA
HETATM   25  O4  UNK     1      17.372  -1.778  37.757  1.00  0.00    -0.531 OA
ENDBRANCH   6  23
TORSDOF 4
ENDMDL
MODEL 4
REMARK VINA RESULT:      -7.6      4.144      8.484
REMARK  4 active torsions:
REMARK  status: ('A' for Active; 'I' for Inactive)
REMARK    1  A    between atoms: C1_8  and  N1_5 
REMARK    2  A    between atoms: C3_10  and  N1_5 
REMARK    3  A    between atoms: C6_13  and  N2_6 
REMARK    4  A    between atoms: C5_12  and  N3_7 
ROOT
HETATM    1  O1  UNK     1      20.058  -2.395  34.837  1.00  0.00    -0.273 OA
HETATM    2  O2  UNK     1      19.364  -2.085  36.988  1.00  0.00    -0.257 OA
HETATM    3  C1  UNK     1      18.372  -0.210  34.060  1.00  0.00     0.085 A 
HETATM    4  C2  UNK     1      19.184  -0.949  33.059  1.00  0.00     0.027 A 
HETATM    5  C4  UNK     1      19.994  -2.009  33.484  1.00  0.00     0.092 A 
HETATM    6  C5  UNK     1      18.482  -0.637  35.330  1.00  0.00     0.205 A 
HETATM    7  C7  UNK     1      19.196  -0.658  31.684  1.00  0.00     0.017 A 
HETATM    8  C12 UNK     1      20.788  -2.752  32.604  1.00  0.00     0.038 A 
HETATM    9  C13 UNK     1      19.317  -1.748  35.811  1.00  0.00     0.324 A 
HETATM   10  C14 UNK     1      19.986  -1.395  30.791  1.00  0.00     0.001 A 
HETATM   11  C15 UNK     1      20.781  -2.441  31.250  1.00  0.00     0.003 A 
ENDROOT
BRANCH   3  12
HETATM   12  N1  UNK     1      17.593   0.830  33.619  1.00  0.00    -0.353 N 
HETATM   13  H1  UNK     1      16.735   0.545  33.156  1.00  0.00     0.166 HD
BRANCH  12  14
HETATM   14  C3  UNK     1      17.964   2.157  33.408  1.00  0.00     0.032 A 
HETATM   15  C8  UNK     1      18.044   2.677  32.108  1.00  0.00     0.031 A 
HETATM   16  C10 UNK     1      18.412   4.006  31.897  1.00  0.00     0.031 A 
HETATM   17  C6  UNK     1      18.705   4.829  32.985  1.00  0.00     0.029 A 
HETATM   18  C11 UNK     1      18.630   4.323  34.283  1.00  0.00     0.031 A 
HETATM   19  C9  UNK     1      18.262   2.995  34.493  1.00  0.00     0.031 A 
BRANCH  17  20
HETATM   20  N2  UNK     1      19.076   6.173  32.772  1.00  0.00    -0.390 N 
HETATM   21  C16 UNK     1      18.080   7.160  32.408  1.00  0.00     0.149 C 
HETATM   22  C17 UNK     1      20.456   6.588  32.930  1.00  0.00     0.149 C 
ENDBRANCH  17  20
ENDBRANCH  12  14
ENDBRANCH   3  12
BRANCH   6  23
HETATM   23  N3  UNK     1      17.716   0.049  36.321  1.00  0.00    -0.107 N 
HETATM   24  O3  UNK     1      16.494  -0.135  36.313  1.00  0.00    -0.531 OA
HETATM   25  O4  UNK     1      18.337   0.773  37.108  1.00  0.00    -0.531 OA
ENDBRANCH   6  23
TORSDOF 4
ENDMDL
MODEL 5
REMARK VINA RESULT:      -7.6      3.876      8.021
REMARK  4 active torsions:
REMARK  status: ('A' for Active; 'I' for Inactive)
REMARK    1  A    between atoms: C1_8  and  N1_5 
REMARK    2  A    between atoms: C3_10  and  N1_5 
REMARK    3  A    between atoms: C6_13  and  N2_6 
REMARK    4  A    between atoms: C5_12  and  N3_7 
ROOT
HETATM    1  O1  UNK     1      20.174  -2.338  34.710  1.00  0.00    -0.273 OA
HETATM    2  O2  UNK     1      21.630  -2.894  33.045  1.00  0.00    -0.257 OA
HETATM    3  C1  UNK     1      18.794  -0.661  32.839  1.00  0.00     0.085 A 
HETATM    4  C2  UNK     1      18.342  -0.774  34.250  1.00  0.00     0.027 A 
HETATM    5  C4  UNK     1      19.045  -1.606  35.129  1.00  0.00     0.092 A 
HETATM    6  C5  UNK     1      19.878  -1.386  32.515  1.00  0.00     0.205 A 
HETATM    7  C7  UNK     1      17.236  -0.089  34.781  1.00  0.00     0.017 A 
HETATM    8  C12 UNK     1      18.683  -1.767  36.470  1.00  0.00     0.038 A 
HETATM    9  C13 UNK     1      20.645  -2.265  33.411  1.00  0.00     0.324 A 
HETATM   10  C14 UNK     1      16.861  -0.240  36.123  1.00  0.00     0.001 A 
HETATM   11  C15 UNK     1      17.584  -1.078  36.967  1.00  0.00     0.003 A 
ENDROOT
BRANCH   3  12
HETATM   12  N1  UNK     1      18.082   0.155  31.997  1.00  0.00    -0.353 N 
HETATM   13  H1  UNK     1      17.512  -0.338  31.316  1.00  0.00     0.166 HD
BRANCH  12  14
HETATM   14  C3  UNK     1      18.295   1.505  31.721  1.00  0.00     0.032 A 
HETATM   15  C8  UNK     1      18.156   2.469  32.730  1.00  0.00     0.031 A 
HETATM   16  C10 UNK     1      18.372   3.820  32.454  1.00  0.00     0.031 A 
HETATM   17  C6  UNK     1      18.729   4.220  31.167  1.00  0.00     0.029 A 
HETATM   18  C11 UNK     1      18.869   3.270  30.155  1.00  0.00     0.031 A 
HETATM   19  C9  UNK     1      18.654   1.921  30.430  1.00  0.00     0.031 A 
BRANCH  17  20
HETATM   20  N2  UNK     1      18.949   5.585  30.888  1.00  0.00    -0.390 N 
HETATM   21  C16 UNK     1      18.092   6.599  31.469  1.00  0.00     0.149 C 
HETATM   22  C17 UNK     1      20.042   5.993  30.030  1.00  0.00     0.149 C 
ENDBRANCH  17  20
ENDBRANCH  12  14
ENDBRANCH   3  12
BRANCH   6  23
HETATM   23  N3  UNK     1      20.343  -1.303  31.167  1.00  0.00    -0.107 N 
HETATM   24  O3  UNK     1      21.141  -0.396  30.903  1.00  0.00    -0.531 OA
HETATM   25  O4  UNK     1      19.910  -2.144  30.372  1.00  0.00    -0.531 OA
ENDBRANCH   6  23
TORSDOF 4
ENDMDL
MODEL 6
REMARK VINA RESULT:      -7.4     27.977     30.400
REMARK  4 active torsions:
REMARK  status: ('A' for Active; 'I' for Inactive)
REMARK    1  A    between atoms: C1_8  and  N1_5 
REMARK    2  A    between atoms: C3_10  and  N1_5 
REMARK    3  A    between atoms: C6_13  and  N2_6 
REMARK    4  A    between atoms: C5_12  and  N3_7 
ROOT
HETATM    1  O1  UNK     1      14.401   5.036   8.553  1.00  0.00    -0.273 OA
HETATM    2  O2  UNK     1      16.416   4.534   9.497  1.00  0.00    -0.257 OA
HETATM    3  C1  UNK     1      14.761   7.748   9.412  1.00  0.00     0.085 A 
HETATM    4  C2  UNK     1      13.540   7.330   8.674  1.00  0.00     0.027 A 
HETATM    5  C4  UNK     1      13.407   5.995   8.273  1.00  0.00     0.092 A 
HETATM    6  C5  UNK     1      15.661   6.777   9.645  1.00  0.00     0.205 A 
HETATM    7  C7  UNK     1      12.484   8.196   8.344  1.00  0.00     0.017 A 
HETATM    8  C12 UNK     1      12.291   5.524   7.575  1.00  0.00     0.038 A 
HETATM    9  C13 UNK     1      15.554   5.367   9.245  1.00  0.00     0.324 A 
HETATM   10  C14 UNK     1      11.359   7.737   7.645  1.00  0.00     0.001 A 
HETATM   11  C15 UNK     1      11.262   6.404   7.261  1.00  0.00     0.003 A 
ENDROOT
BRANCH   3  12
HETATM   12  N1  UNK     1      14.870   9.063   9.787  1.00  0.00    -0.353 N 
HETATM   13  H1  UNK     1      14.126   9.390  10.397  1.00  0.00     0.166 HD
BRANCH  12  14
HETATM   14  C3  UNK     1      15.629  10.070   9.190  1.00  0.00     0.032 A 
HETATM   15  C8  UNK     1      16.821  10.508   9.782  1.00  0.00     0.031 A 
HETATM   16  C10 UNK     1      17.582  11.513   9.183  1.00  0.00     0.031 A 
HETATM   17  C6  UNK     1      17.158  12.089   7.986  1.00  0.00     0.029 A 
HETATM   18  C11 UNK     1      15.972  11.661   7.388  1.00  0.00     0.031 A 
HETATM   19  C9  UNK     1      15.212  10.657   7.986  1.00  0.00     0.031 A 
BRANCH  17  20
HETATM   20  N2  UNK     1      17.927  13.104   7.380  1.00  0.00    -0.390 N 
HETATM   21  C16 UNK     1      18.114  14.378   8.044  1.00  0.00     0.149 C 
HETATM   22  C17 UNK     1      18.552  12.881   6.092  1.00  0.00     0.149 C 
ENDBRANCH  17  20
ENDBRANCH  12  14
ENDBRANCH   3  12
BRANCH   6  23
HETATM   23  N3  UNK     1      16.847   7.141  10.353  1.00  0.00    -0.107 N 
HETATM   24  O3  UNK     1      16.724   7.420  11.551  1.00  0.00    -0.531 OA
HETATM   25  O4  UNK     1      17.904   7.148   9.710  1.00  0.00    -0.531 OA
ENDBRANCH   6  23
TORSDOF 4
ENDMDL
MODEL 7
REMARK VINA RESULT:      -7.4     10.201     12.144
REMARK  4 active torsions:
REMARK  status: ('A' for Active; 'I' for Inactive)
REMARK    1  A    between atoms: C1_8  and  N1_5 
REMARK    2  A    between atoms: C3_10  and  N1_5 
REMARK    3  A    between atoms: C6_13  and  N2_6 
REMARK    4  A    between atoms: C5_12  and  N3_7 
ROOT
HETATM    1  O1  UNK     1      30.615  -3.907  37.934  1.00  0.00    -0.273 OA
HETATM    2  O2  UNK     1      28.896  -4.265  39.390  1.00  0.00    -0.257 OA
HETATM    3  C1  UNK     1      29.846  -6.300  36.556  1.00  0.00     0.085 A 
HETATM    4  C2  UNK     1      31.008  -5.492  36.103  1.00  0.00     0.027 A 
HETATM    5  C4  UNK     1      31.347  -4.329  36.806  1.00  0.00     0.092 A 
HETATM    6  C5  UNK     1      29.200  -5.836  37.639  1.00  0.00     0.205 A 
HETATM    7  C7  UNK     1      31.812  -5.817  34.998  1.00  0.00     0.017 A 
HETATM    8  C12 UNK     1      32.424  -3.515  36.443  1.00  0.00     0.038 A 
HETATM    9  C13 UNK     1      29.530  -4.625  38.405  1.00  0.00     0.324 A 
HETATM   10  C14 UNK     1      32.895  -5.011  34.623  1.00  0.00     0.001 A 
HETATM   11  C15 UNK     1      33.201  -3.861  35.345  1.00  0.00     0.003 A 
ENDROOT
BRANCH   3  12
HETATM   12  N1  UNK     1      29.529  -7.430  35.845  1.00  0.00    -0.353 N 
HETATM   13  H1  UNK     1      29.965  -8.280  36.190  1.00  0.00     0.166 HD
BRANCH  12  14
HETATM   14  C3  UNK     1      29.002  -7.520  34.557  1.00  0.00     0.032 A 
HETATM   15  C8  UNK     1      28.245  -6.467  34.023  1.00  0.00     0.031 A 
HETATM   16  C10 UNK     1      27.720  -6.555  32.733  1.00  0.00     0.031 A 
HETATM   17  C6  UNK     1      27.946  -7.697  31.965  1.00  0.00     0.029 A 
HETATM   18  C11 UNK     1      28.697  -8.751  32.486  1.00  0.00     0.031 A 
HETATM   19  C9  UNK     1      29.222  -8.663  33.774  1.00  0.00     0.031 A 
BRANCH  17  20
HETATM   20  N2  UNK     1      27.416  -7.786  30.661  1.00  0.00    -0.390 N 
HETATM   21  C16 UNK     1      26.416  -6.840  30.209  1.00  0.00     0.149 C 
HETATM   22  C17 UNK     1      27.876  -8.815  29.750  1.00  0.00     0.149 C 
ENDBRANCH  17  20
ENDBRANCH  12  14
ENDBRANCH   3  12
BRANCH   6  23
HETATM   23  N3  UNK     1      28.077  -6.587  38.105  1.00  0.00    -0.107 N 
HETATM   24  O3  UNK     1      28.294  -7.444  38.969  1.00  0.00    -0.531 OA
HETATM   25  O4  UNK     1      26.979  -6.321  37.604  1.00  0.00    -0.531 OA
ENDBRANCH   6  23
TORSDOF 4
ENDMDL
MODEL 8
REMARK VINA RESULT:      -7.3     10.645     12.214
REMARK  4 active torsions:
REMARK  status: ('A' for Active; 'I' for Inactive)
REMARK    1  A    between atoms: C1_8  and  N1_5 
REMARK    2  A    between atoms: C3_10  and  N1_5 
REMARK    3  A    between atoms: C6_13  and  N2_6 
REMARK    4  A    between atoms: C5_12  and  N3_7 
ROOT
HETATM    1  O1  UNK     1      28.487  -5.837  39.844  1.00  0.00    -0.273 OA
HETATM    2  O2  UNK     1      29.532  -3.811  39.925  1.00  0.00    -0.257 OA
HETATM    3  C1  UNK     1      29.919  -6.394  37.423  1.00  0.00     0.085 A 
HETATM    4  C2  UNK     1      28.961  -7.376  37.994  1.00  0.00     0.027 A 
HETATM    5  C4  UNK     1      28.285  -7.063  39.179  1.00  0.00     0.092 A 
HETATM    6  C5  UNK     1      30.056  -5.247  38.111  1.00  0.00     0.205 A 
HETATM    7  C7  UNK     1      28.676  -8.625  37.417  1.00  0.00     0.017 A 
HETATM    8  C12 UNK     1      27.370  -7.934  39.779  1.00  0.00     0.038 A 
HETATM    9  C13 UNK     1      29.360  -4.881  39.353  1.00  0.00     0.324 A 
HETATM   10  C14 UNK     1      27.761  -9.508  38.007  1.00  0.00     0.001 A 
HETATM   11  C15 UNK     1      27.109  -9.162  39.187  1.00  0.00     0.003 A 
ENDROOT
BRANCH   3  12
HETATM   12  N1  UNK     1      30.575  -6.729  36.266  1.00  0.00    -0.353 N 
HETATM   13  H1  UNK     1      31.531  -7.045  36.400  1.00  0.00     0.166 HD
BRANCH  12  14
HETATM   14  C3  UNK     1      30.249  -6.375  34.956  1.00  0.00     0.032 A 
HETATM   15  C8  UNK     1      28.945  -6.557  34.473  1.00  0.00     0.031 A 
HETATM   16  C10 UNK     1      28.618  -6.200  33.165  1.00  0.00     0.031 A 
HETATM   17  C6  UNK     1      29.592  -5.658  32.326  1.00  0.00     0.029 A 
HETATM   18  C11 UNK     1      30.893  -5.472  32.796  1.00  0.00     0.031 A 
HETATM   19  C9  UNK     1      31.219  -5.829  34.103  1.00  0.00     0.031 A 
BRANCH  17  20
HETATM   20  N2  UNK     1      29.262  -5.296  31.004  1.00  0.00    -0.390 N 
HETATM   21  C16 UNK     1      28.241  -6.024  30.277  1.00  0.00     0.149 C 
HETATM   22  C17 UNK     1      29.927  -4.181  30.359  1.00  0.00     0.149 C 
ENDBRANCH  17  20
ENDBRANCH  12  14
ENDBRANCH   3  12
BRANCH   6  23
HETATM   23  N3  UNK     1      30.968  -4.277  37.593  1.00  0.00    -0.107 N 
HETATM   24  O3  UNK     1      30.483  -3.228  37.156  1.00  0.00    -0.531 OA
HETATM   25  O4  UNK     1      32.169  -4.566  37.621  1.00  0.00    -0.531 OA
ENDBRANCH   6  23
TORSDOF 4
ENDMDL
MODEL 9
REMARK VINA RESULT:      -7.3      7.154     11.039
REMARK  4 active torsions:
REMARK  status: ('A' for Active; 'I' for Inactive)
REMARK    1  A    between atoms: C1_8  and  N1_5 
REMARK    2  A    between atoms: C3_10  and  N1_5 
REMARK    3  A    between atoms: C6_13  and  N2_6 
REMARK    4  A    between atoms: C5_12  and  N3_7 
ROOT
HETATM    1  O1  UNK     1      18.185   2.235  31.506  1.00  0.00    -0.273 OA
HETATM    2  O2  UNK     1      18.460   3.318  29.517  1.00  0.00    -0.257 OA
HETATM    3  C1  UNK     1      18.851   4.682  32.842  1.00  0.00     0.085 A 
HETATM    4  C2  UNK     1      18.536   3.449  33.608  1.00  0.00     0.027 A 
HETATM    5  C4  UNK     1      18.215   2.276  32.914  1.00  0.00     0.092 A 
HETATM    6  C5  UNK     1      18.805   4.565  31.504  1.00  0.00     0.205 A 
HETATM    7  C7  UNK     1      18.540   3.369  35.011  1.00  0.00     0.017 A 
HETATM    8  C12 UNK     1      17.906   1.076  33.561  1.00  0.00     0.038 A 
HETATM    9  C13 UNK     1      18.477   3.352  30.741  1.00  0.00     0.324 A 
HETATM   10  C14 UNK     1      18.233   2.173  35.673  1.00  0.00     0.001 A 
HETATM   11  C15 UNK     1      17.917   1.027  34.949  1.00  0.00     0.003 A 
ENDROOT
BRANCH   3  12
HETATM   12  N1  UNK     1      19.155   5.820  33.547  1.00  0.00    -0.353 N 
HETATM   13  H1  UNK     1      19.962   5.734  34.157  1.00  0.00     0.166 HD
BRANCH  12  14
HETATM   14  C3  UNK     1      18.336   6.920  33.803  1.00  0.00     0.032 A 
HETATM   15  C8  UNK     1      18.848   8.223  33.718  1.00  0.00     0.031 A 
HETATM   16  C10 UNK     1      18.028   9.323  33.971  1.00  0.00     0.031 A 
HETATM   17  C6  UNK     1      16.689   9.132  34.312  1.00  0.00     0.029 A 
HETATM   18  C11 UNK     1      16.170   7.840  34.401  1.00  0.00     0.031 A 
HETATM   19  C9  UNK     1      16.988   6.741  34.147  1.00  0.00     0.031 A 
BRANCH  17  20
HETATM   20  N2  UNK     1      15.861  10.244  34.567  1.00  0.00    -0.390 N 
HETATM   21  C16 UNK     1      14.484  10.054  34.979  1.00  0.00     0.149 C 
HETATM   22  C17 UNK     1      16.378  11.592  34.435  1.00  0.00     0.149 C 
ENDBRANCH  17  20
ENDBRANCH  12  14
ENDBRANCH   3  12
BRANCH   6  23
HETATM   23  N3  UNK     1      19.102   5.730  30.734  1.00  0.00    -0.107 N 
HETATM   24  O3  UNK     1      20.282   5.903  30.408  1.00  0.00    -0.531 OA
HETATM   25  O4  UNK     1      18.155   6.475  30.454  1.00  0.00    -0.531 OA
ENDBRANCH   6  23
TORSDOF 4
ENDMDL
MODEL 10
REMARK VINA RESULT:      -7.2     27.795     29.643
REMARK  4 active torsions:
REMARK  status: ('A' for Active; 'I' for Inactive)
REMARK    1  A    between atoms: C1_8  and  N1_5 
REMARK    2  A    between atoms: C3_10  and  N1_5 
REMARK    3  A    between atoms: C6_13  and  N2_6 
REMARK    4  A    between atoms: C5_12  and  N3_7 
ROOT
HETATM    1  O1  UNK     1      15.982   6.323  10.156  1.00  0.00    -0.273 OA
HETATM    2  O2  UNK     1      14.935   4.303  10.313  1.00  0.00    -0.257 OA
HETATM    3  C1  UNK     1      13.589   7.387   8.989  1.00  0.00     0.085 A 
HETATM    4  C2  UNK     1      14.790   8.238   9.192  1.00  0.00     0.027 A 
HETATM    5  C4  UNK     1      15.937   7.676   9.767  1.00  0.00     0.092 A 
HETATM    6  C5  UNK     1      13.709   6.107   9.382  1.00  0.00     0.205 A 
HETATM    7  C7  UNK     1      14.863   9.596   8.839  1.00  0.00     0.017 A 
HETATM    8  C12 UNK     1      17.106   8.410   9.991  1.00  0.00     0.038 A 
HETATM    9  C13 UNK     1      14.897   5.482   9.983  1.00  0.00     0.324 A 
HETATM   10  C14 UNK     1      16.028  10.343   9.057  1.00  0.00     0.001 A 
HETATM   11  C15 UNK     1      17.148   9.752   9.632  1.00  0.00     0.003 A 
ENDROOT
BRANCH   3  12
HETATM   12  N1  UNK     1      12.476   7.963   8.432  1.00  0.00    -0.353 N 
HETATM   13  H1  UNK     1      12.605   8.294   7.480  1.00  0.00     0.166 HD
BRANCH  12  14
HETATM   14  C3  UNK     1      11.345   8.460   9.080  1.00  0.00     0.032 A 
HETATM   15  C8  UNK     1      10.089   7.873   8.871  1.00  0.00     0.031 A 
HETATM   16  C10 UNK     1       8.959   8.368   9.522  1.00  0.00     0.031 A 
HETATM   17  C6  UNK     1       9.073   9.454  10.389  1.00  0.00     0.029 A 
HETATM   18  C11 UNK     1      10.318  10.046  10.605  1.00  0.00     0.031 A 
HETATM   19  C9  UNK     1      11.448   9.552   9.955  1.00  0.00     0.031 A 
BRANCH  17  20
HETATM   20  N2  UNK     1       7.931   9.954  11.049  1.00  0.00    -0.390 N 
HETATM   21  C16 UNK     1       6.804   9.085  11.323  1.00  0.00     0.149 C 
HETATM   22  C17 UNK     1       7.875  11.338  11.474  1.00  0.00     0.149 C 
ENDBRANCH  17  20
ENDBRANCH  12  14
ENDBRANCH   3  12
BRANCH   6  23
HETATM   23  N3  UNK     1      12.575   5.257   9.202  1.00  0.00    -0.107 N 
HETATM   24  O3  UNK     1      12.473   4.679   8.115  1.00  0.00    -0.531 OA
HETATM   25  O4  UNK     1      11.785   5.169  10.149  1.00  0.00    -0.531 OA
ENDBRANCH   6  23
TORSDOF 4
ENDMDL
