MODEL 1
REMARK VINA RESULT:      -8.1      0.000      0.000
REMARK  1 active torsions:
REMARK  status: ('A' for Active; 'I' for Inactive)
REMARK    1  A    between atoms: C3_7  and  C4_8 
ROOT
HETATM    1 Cl1  UNK     1      13.540  12.164  35.926  1.00  0.00    -0.084 Cl
HETATM    2  O1  UNK     1      17.658   8.977  33.191  1.00  0.00    -0.309 OA
HETATM    3  O2  UNK     1      14.072   7.197  33.946  1.00  0.00    -0.287 OA
HETATM    4  C1  UNK     1      15.418   9.132  34.117  1.00  0.00     0.050 A 
HETATM    5  C2  UNK     1      16.667   9.680  33.826  1.00  0.00     0.090 A 
HETATM    6  C3  UNK     1      17.407   7.663  32.827  1.00  0.00     0.090 A 
HETATM    7  C5  UNK     1      15.145   7.740  33.726  1.00  0.00     0.187 A 
HETATM    8  C6  UNK     1      16.245   7.027  33.045  1.00  0.00     0.093 A 
HETATM    9  C7  UNK     1      14.445   9.895  34.767  1.00  0.00     0.042 A 
HETATM   10  C8  UNK     1      16.950  10.999  34.186  1.00  0.00     0.040 A 
HETATM   11  C11 UNK     1      14.731  11.213  35.124  1.00  0.00     0.035 A 
HETATM   12  C12 UNK     1      15.981  11.764  34.835  1.00  0.00     0.026 A 
ENDROOT
BRANCH   6  13
HETATM   13  C4  UNK     1      18.537   7.003  32.143  1.00  0.00     0.001 A 
HETATM   14  C10 UNK     1      18.375   6.490  30.853  1.00  0.00     0.014 A 
HETATM   15  C14 UNK     1      19.443   5.867  30.207  1.00  0.00     0.004 A 
HETATM   16  C15 UNK     1      20.675   5.754  30.848  1.00  0.00     0.042 A 
HETATM   17  C13 UNK     1      20.842   6.265  32.136  1.00  0.00     0.117 A 
HETATM   18  F1  UNK     1      22.027   6.158  32.751  1.00  0.00    -0.206 F 
HETATM   19  C9  UNK     1      19.774   6.888  32.783  1.00  0.00     0.056 A 
ENDBRANCH   6  13
TORSDOF 1
ENDMDL
MODEL 2
REMARK VINA RESULT:      -8.0      7.107      8.597
REMARK  1 active torsions:
REMARK  status: ('A' for Active; 'I' for Inactive)
REMARK    1  A    between atoms: C3_7  and  C4_8 
ROOT
HETATM    1 Cl1  UNK     1      17.514   1.513  38.797  1.00  0.00    -0.084 Cl
HETATM    2  O1  UNK     1      18.917  -0.165  33.337  1.00  0.00    -0.309 OA
HETATM    3  O2  UNK     1      17.923   3.743  33.926  1.00  0.00    -0.287 OA
HETATM    4  C1  UNK     1      18.231   1.595  34.864  1.00  0.00     0.050 A 
HETATM    5  C2  UNK     1      18.582   0.274  34.592  1.00  0.00     0.090 A 
HETATM    6  C3  UNK     1      18.899   0.747  32.292  1.00  0.00     0.090 A 
HETATM    7  C5  UNK     1      18.218   2.567  33.759  1.00  0.00     0.187 A 
HETATM    8  C6  UNK     1      18.585   2.045  32.427  1.00  0.00     0.093 A 
HETATM    9  C7  UNK     1      17.899   1.986  36.163  1.00  0.00     0.042 A 
HETATM   10  C8  UNK     1      18.603  -0.667  35.623  1.00  0.00     0.040 A 
HETATM   11  C11 UNK     1      17.921   1.043  37.191  1.00  0.00     0.035 A 
HETATM   12  C12 UNK     1      18.273  -0.281  36.922  1.00  0.00     0.026 A 
ENDROOT
BRANCH   6  13
HETATM   13  C4  UNK     1      19.283   0.172  30.987  1.00  0.00     0.001 A 
HETATM   14  C10 UNK     1      18.942   0.830  29.802  1.00  0.00     0.014 A 
HETATM   15  C14 UNK     1      19.304   0.287  28.570  1.00  0.00     0.004 A 
HETATM   16  C15 UNK     1      20.008  -0.916  28.518  1.00  0.00     0.042 A 
HETATM   17  C13 UNK     1      20.350  -1.576  29.698  1.00  0.00     0.117 A 
HETATM   18  F1  UNK     1      21.027  -2.731  29.648  1.00  0.00    -0.206 F 
HETATM   19  C9  UNK     1      19.988  -1.033  30.931  1.00  0.00     0.056 A 
ENDBRANCH   6  13
TORSDOF 1
ENDMDL
MODEL 3
REMARK VINA RESULT:      -8.0      7.774      9.231
REMARK  1 active torsions:
REMARK  status: ('A' for Active; 'I' for Inactive)
REMARK    1  A    between atoms: C3_7  and  C4_8 
ROOT
HETATM    1 Cl1  UNK     1      17.607   1.231  38.992  1.00  0.00    -0.084 Cl
HETATM    2  O1  UNK     1      18.822   0.523  33.281  1.00  0.00    -0.309 OA
HETATM    3  O2  UNK     1      19.483  -2.636  35.768  1.00  0.00    -0.287 OA
HETATM    4  C1  UNK     1      18.758  -0.399  35.527  1.00  0.00     0.050 A 
HETATM    5  C2  UNK     1      18.554   0.640  34.621  1.00  0.00     0.090 A 
HETATM    6  C3  UNK     1      19.323  -0.681  32.810  1.00  0.00     0.090 A 
HETATM    7  C5  UNK     1      19.283  -1.681  35.030  1.00  0.00     0.187 A 
HETATM    8  C6  UNK     1      19.556  -1.756  33.581  1.00  0.00     0.093 A 
HETATM    9  C7  UNK     1      18.467  -0.223  36.882  1.00  0.00     0.042 A 
HETATM   10  C8  UNK     1      18.056   1.866  35.067  1.00  0.00     0.040 A 
HETATM   11  C11 UNK     1      17.969   1.003  37.325  1.00  0.00     0.035 A 
HETATM   12  C12 UNK     1      17.764   2.045  36.419  1.00  0.00     0.026 A 
ENDROOT
BRANCH   6  13
HETATM   13  C4  UNK     1      19.569  -0.701  31.355  1.00  0.00     0.001 A 
HETATM   14  C10 UNK     1      20.163  -1.816  30.758  1.00  0.00     0.014 A 
HETATM   15  C14 UNK     1      20.395  -1.835  29.382  1.00  0.00     0.004 A 
HETATM   16  C15 UNK     1      20.034  -0.739  28.600  1.00  0.00     0.042 A 
HETATM   17  C13 UNK     1      19.441   0.377  29.191  1.00  0.00     0.117 A 
HETATM   18  F1  UNK     1      19.093   1.429  28.439  1.00  0.00    -0.206 F 
HETATM   19  C9  UNK     1      19.209   0.396  30.567  1.00  0.00     0.056 A 
ENDBRANCH   6  13
TORSDOF 1
ENDMDL
MODEL 4
REMARK VINA RESULT:      -7.8      6.658      7.995
REMARK  1 active torsions:
REMARK  status: ('A' for Active; 'I' for Inactive)
REMARK    1  A    between atoms: C3_7  and  C4_8 
ROOT
HETATM    1 Cl1  UNK     1      18.754   6.177  29.701  1.00  0.00    -0.084 Cl
HETATM    2  O1  UNK     1      18.158   2.715  34.418  1.00  0.00    -0.309 OA
HETATM    3  O2  UNK     1      18.752   0.920  30.809  1.00  0.00    -0.287 OA
HETATM    4  C1  UNK     1      18.506   2.932  32.024  1.00  0.00     0.050 A 
HETATM    5  C2  UNK     1      18.302   3.480  33.289  1.00  0.00     0.090 A 
HETATM    6  C3  UNK     1      18.212   1.335  34.292  1.00  0.00     0.090 A 
HETATM    7  C5  UNK     1      18.572   1.469  31.887  1.00  0.00     0.187 A 
HETATM    8  C6  UNK     1      18.409   0.689  33.131  1.00  0.00     0.093 A 
HETATM    9  C7  UNK     1      18.647   3.761  30.909  1.00  0.00     0.042 A 
HETATM   10  C8  UNK     1      18.237   4.866  33.446  1.00  0.00     0.040 A 
HETATM   11  C11 UNK     1      18.582   5.145  31.068  1.00  0.00     0.035 A 
HETATM   12  C12 UNK     1      18.378   5.697  32.334  1.00  0.00     0.026 A 
ENDROOT
BRANCH   6  13
HETATM   13  C4  UNK     1      18.053   0.609  35.568  1.00  0.00     0.001 A 
HETATM   14  C10 UNK     1      17.992  -0.787  35.578  1.00  0.00     0.014 A 
HETATM   15  C14 UNK     1      17.842  -1.473  36.784  1.00  0.00     0.004 A 
HETATM   16  C15 UNK     1      17.751  -0.765  37.982  1.00  0.00     0.042 A 
HETATM   17  C13 UNK     1      17.810   0.629  37.976  1.00  0.00     0.117 A 
HETATM   18  F1  UNK     1      17.724   1.308  39.127  1.00  0.00    -0.206 F 
HETATM   19  C9  UNK     1      17.961   1.315  36.770  1.00  0.00     0.056 A 
ENDBRANCH   6  13
TORSDOF 1
ENDMDL
MODEL 5
REMARK VINA RESULT:      -7.8      6.174      7.684
REMARK  1 active torsions:
REMARK  status: ('A' for Active; 'I' for Inactive)
REMARK    1  A    between atoms: C3_7  and  C4_8 
ROOT
HETATM    1 Cl1  UNK     1      18.162  -1.734  37.463  1.00  0.00    -0.084 Cl
HETATM    2  O1  UNK     1      18.148   3.199  34.261  1.00  0.00    -0.309 OA
HETATM    3  O2  UNK     1      18.619  -0.338  32.295  1.00  0.00    -0.287 OA
HETATM    4  C1  UNK     1      18.316   0.778  34.356  1.00  0.00     0.050 A 
HETATM    5  C2  UNK     1      18.158   2.022  34.965  1.00  0.00     0.090 A 
HETATM    6  C3  UNK     1      18.308   3.147  32.884  1.00  0.00     0.090 A 
HETATM    7  C5  UNK     1      18.479   0.718  32.895  1.00  0.00     0.187 A 
HETATM    8  C6  UNK     1      18.462   2.013  32.184  1.00  0.00     0.093 A 
HETATM    9  C7  UNK     1      18.319  -0.389  35.124  1.00  0.00     0.042 A 
HETATM   10  C8  UNK     1      18.001   2.106  36.349  1.00  0.00     0.040 A 
HETATM   11  C11 UNK     1      18.161  -0.303  36.507  1.00  0.00     0.035 A 
HETATM   12  C12 UNK     1      18.002   0.942  37.119  1.00  0.00     0.026 A 
ENDROOT
BRANCH   6  13
HETATM   13  C4  UNK     1      18.274   4.469  32.226  1.00  0.00     0.001 A 
HETATM   14  C10 UNK     1      17.439   5.476  32.717  1.00  0.00     0.014 A 
HETATM   15  C14 UNK     1      17.406   6.725  32.095  1.00  0.00     0.004 A 
HETATM   16  C15 UNK     1      18.208   6.969  30.981  1.00  0.00     0.042 A 
HETATM   17  C13 UNK     1      19.043   5.966  30.487  1.00  0.00     0.117 A 
HETATM   18  F1  UNK     1      19.814   6.202  29.418  1.00  0.00    -0.206 F 
HETATM   19  C9  UNK     1      19.075   4.718  31.109  1.00  0.00     0.056 A 
ENDBRANCH   6  13
TORSDOF 1
ENDMDL
MODEL 6
REMARK VINA RESULT:      -7.6     23.615     25.513
REMARK  1 active torsions:
REMARK  status: ('A' for Active; 'I' for Inactive)
REMARK    1  A    between atoms: C3_7  and  C4_8 
ROOT
HETATM    1 Cl1  UNK     1      18.229  10.699  10.221  1.00  0.00    -0.084 Cl
HETATM    2  O1  UNK     1      13.221   8.531   8.028  1.00  0.00    -0.309 OA
HETATM    3  O2  UNK     1      15.119   6.372  10.915  1.00  0.00    -0.287 OA
HETATM    4  C1  UNK     1      15.093   8.307   9.558  1.00  0.00     0.050 A 
HETATM    5  C2  UNK     1      14.392   8.995   8.569  1.00  0.00     0.090 A 
HETATM    6  C3  UNK     1      12.717   7.321   8.481  1.00  0.00     0.090 A 
HETATM    7  C5  UNK     1      14.558   7.027  10.047  1.00  0.00     0.187 A 
HETATM    8  C6  UNK     1      13.296   6.570   9.432  1.00  0.00     0.093 A 
HETATM    9  C7  UNK     1      16.282   8.829  10.074  1.00  0.00     0.042 A 
HETATM   10  C8  UNK     1      14.877  10.213   8.090  1.00  0.00     0.040 A 
HETATM   11  C11 UNK     1      16.765  10.046   9.593  1.00  0.00     0.035 A 
HETATM   12  C12 UNK     1      16.064  10.737   8.603  1.00  0.00     0.026 A 
ENDROOT
BRANCH   6  13
HETATM   13  C4  UNK     1      11.450   6.919   7.838  1.00  0.00     0.001 A 
HETATM   14  C10 UNK     1      11.433   6.552   6.490  1.00  0.00     0.014 A 
HETATM   15  C14 UNK     1      10.237   6.172   5.881  1.00  0.00     0.004 A 
HETATM   16  C15 UNK     1       9.054   6.159   6.619  1.00  0.00     0.042 A 
HETATM   17  C13 UNK     1       9.066   6.526   7.965  1.00  0.00     0.117 A 
HETATM   18  F1  UNK     1       7.929   6.512   8.674  1.00  0.00    -0.206 F 
HETATM   19  C9  UNK     1      10.262   6.905   8.573  1.00  0.00     0.056 A 
ENDBRANCH   6  13
TORSDOF 1
ENDMDL
MODEL 7
REMARK VINA RESULT:      -7.6     12.832     14.734
REMARK  1 active torsions:
REMARK  status: ('A' for Active; 'I' for Inactive)
REMARK    1  A    between atoms: C3_7  and  C4_8 
ROOT
HETATM    1 Cl1  UNK     1      20.415 -10.228  36.997  1.00  0.00    -0.084 Cl
HETATM    2  O1  UNK     1      18.724  -4.616  36.513  1.00  0.00    -0.309 OA
HETATM    3  O2  UNK     1      22.378  -5.362  38.155  1.00  0.00    -0.287 OA
HETATM    4  C1  UNK     1      20.399  -6.234  37.201  1.00  0.00     0.050 A 
HETATM    5  C2  UNK     1      19.162  -5.908  36.647  1.00  0.00     0.090 A 
HETATM    6  C3  UNK     1      19.547  -3.590  36.954  1.00  0.00     0.090 A 
HETATM    7  C5  UNK     1      21.278  -5.149  37.663  1.00  0.00     0.187 A 
HETATM    8  C6  UNK     1      20.761  -3.776  37.498  1.00  0.00     0.093 A 
HETATM    9  C7  UNK     1      20.794  -7.570  37.312  1.00  0.00     0.042 A 
HETATM   10  C8  UNK     1      18.310  -6.920  36.200  1.00  0.00     0.040 A 
HETATM   11  C11 UNK     1      19.940  -8.579  36.864  1.00  0.00     0.035 A 
HETATM   12  C12 UNK     1      18.701  -8.254  36.310  1.00  0.00     0.026 A 
ENDROOT
BRANCH   6  13
HETATM   13  C4  UNK     1      18.983  -2.240  36.756  1.00  0.00     0.001 A 
HETATM   14  C10 UNK     1      18.310  -1.600  37.800  1.00  0.00     0.014 A 
HETATM   15  C14 UNK     1      17.776  -0.325  37.613  1.00  0.00     0.004 A 
HETATM   16  C15 UNK     1      17.913   0.314  36.381  1.00  0.00     0.042 A 
HETATM   17  C13 UNK     1      18.584  -0.322  35.335  1.00  0.00     0.117 A 
HETATM   18  F1  UNK     1      18.716   0.293  34.153  1.00  0.00    -0.206 F 
HETATM   19  C9  UNK     1      19.117  -1.597  35.523  1.00  0.00     0.056 A 
ENDBRANCH   6  13
TORSDOF 1
ENDMDL
MODEL 8
REMARK VINA RESULT:      -7.4      1.657      2.036
REMARK  1 active torsions:
REMARK  status: ('A' for Active; 'I' for Inactive)
REMARK    1  A    between atoms: C3_7  and  C4_8 
ROOT
HETATM    1 Cl1  UNK     1      16.200  13.857  35.737  1.00  0.00    -0.084 Cl
HETATM    2  O1  UNK     1      18.068   8.923  33.137  1.00  0.00    -0.309 OA
HETATM    3  O2  UNK     1      14.195   9.056  34.397  1.00  0.00    -0.287 OA
HETATM    4  C1  UNK     1      16.274  10.164  34.205  1.00  0.00     0.050 A 
HETATM    5  C2  UNK     1      17.587  10.051  33.749  1.00  0.00     0.090 A 
HETATM    6  C3  UNK     1      17.211   7.845  32.971  1.00  0.00     0.090 A 
HETATM    7  C5  UNK     1      15.360   9.025  34.024  1.00  0.00     0.187 A 
HETATM    8  C6  UNK     1      15.927   7.833  33.361  1.00  0.00     0.093 A 
HETATM    9  C7  UNK     1      15.838  11.339  34.822  1.00  0.00     0.042 A 
HETATM   10  C8  UNK     1      18.473  11.118  33.908  1.00  0.00     0.040 A 
HETATM   11  C11 UNK     1      16.726  12.403  34.978  1.00  0.00     0.035 A 
HETATM   12  C12 UNK     1      18.041  12.293  34.522  1.00  0.00     0.026 A 
ENDROOT
BRANCH   6  13
HETATM   13  C4  UNK     1      17.829   6.686  32.296  1.00  0.00     0.001 A 
HETATM   14  C10 UNK     1      17.618   5.394  32.784  1.00  0.00     0.014 A 
HETATM   15  C14 UNK     1      18.202   4.299  32.146  1.00  0.00     0.004 A 
HETATM   16  C15 UNK     1      18.997   4.493  31.018  1.00  0.00     0.042 A 
HETATM   17  C13 UNK     1      19.211   5.781  30.527  1.00  0.00     0.117 A 
HETATM   18  F1  UNK     1      19.975   5.967  29.442  1.00  0.00    -0.206 F 
HETATM   19  C9  UNK     1      18.628   6.876  31.165  1.00  0.00     0.056 A 
ENDBRANCH   6  13
TORSDOF 1
ENDMDL
MODEL 9
REMARK VINA RESULT:      -7.4      5.539      7.838
REMARK  1 active torsions:
REMARK  status: ('A' for Active; 'I' for Inactive)
REMARK    1  A    between atoms: C3_7  and  C4_8 
ROOT
HETATM    1 Cl1  UNK     1      19.421  -1.893  31.955  1.00  0.00    -0.084 Cl
HETATM    2  O1  UNK     1      17.887   3.645  33.209  1.00  0.00    -0.309 OA
HETATM    3  O2  UNK     1      19.030   2.811  29.388  1.00  0.00    -0.287 OA
HETATM    4  C1  UNK     1      18.656   2.015  31.582  1.00  0.00     0.050 A 
HETATM    5  C2  UNK     1      18.254   2.368  32.868  1.00  0.00     0.090 A 
HETATM    6  C3  UNK     1      17.925   4.627  32.230  1.00  0.00     0.090 A 
HETATM    7  C5  UNK     1      18.690   3.052  30.538  1.00  0.00     0.187 A 
HETATM    8  C6  UNK     1      18.288   4.410  30.956  1.00  0.00     0.093 A 
HETATM    9  C7  UNK     1      19.019   0.697  31.291  1.00  0.00     0.042 A 
HETATM   10  C8  UNK     1      18.212   1.403  33.876  1.00  0.00     0.040 A 
HETATM   11  C11 UNK     1      18.976  -0.266  32.300  1.00  0.00     0.035 A 
HETATM   12  C12 UNK     1      18.573   0.086  33.589  1.00  0.00     0.026 A 
ENDROOT
BRANCH   6  13
HETATM   13  C4  UNK     1      17.504   5.961  32.702  1.00  0.00     0.001 A 
HETATM   14  C10 UNK     1      17.125   6.943  31.783  1.00  0.00     0.014 A 
HETATM   15  C14 UNK     1      16.727   8.204  32.228  1.00  0.00     0.004 A 
HETATM   16  C15 UNK     1      16.707   8.486  33.594  1.00  0.00     0.042 A 
HETATM   17  C13 UNK     1      17.085   7.509  34.515  1.00  0.00     0.117 A 
HETATM   18  F1  UNK     1      17.065   7.780  35.826  1.00  0.00    -0.206 F 
HETATM   19  C9  UNK     1      17.483   6.248  34.069  1.00  0.00     0.056 A 
ENDBRANCH   6  13
TORSDOF 1
ENDMDL
MODEL 10
REMARK VINA RESULT:      -7.4      5.621      7.326
REMARK  1 active torsions:
REMARK  status: ('A' for Active; 'I' for Inactive)
REMARK    1  A    between atoms: C3_7  and  C4_8 
ROOT
HETATM    1 Cl1  UNK     1      18.527  -1.821  35.383  1.00  0.00    -0.084 Cl
HETATM    2  O1  UNK     1      18.381   4.018  34.688  1.00  0.00    -0.309 OA
HETATM    3  O2  UNK     1      18.168   1.703  31.343  1.00  0.00    -0.287 OA
HETATM    4  C1  UNK     1      18.344   1.801  33.697  1.00  0.00     0.050 A 
HETATM    5  C2  UNK     1      18.412   2.652  34.800  1.00  0.00     0.090 A 
HETATM    6  C3  UNK     1      18.284   4.576  33.422  1.00  0.00     0.090 A 
HETATM    7  C5  UNK     1      18.234   2.389  32.353  1.00  0.00     0.187 A 
HETATM    8  C6  UNK     1      18.206   3.864  32.287  1.00  0.00     0.093 A 
HETATM    9  C7  UNK     1      18.379   0.415  33.870  1.00  0.00     0.042 A 
HETATM   10  C8  UNK     1      18.515   2.119  36.086  1.00  0.00     0.040 A 
HETATM   11  C11 UNK     1      18.482  -0.114  35.157  1.00  0.00     0.035 A 
HETATM   12  C12 UNK     1      18.550   0.736  36.262  1.00  0.00     0.026 A 
ENDROOT
BRANCH   6  13
HETATM   13  C4  UNK     1      18.252   6.052  33.418  1.00  0.00     0.001 A 
HETATM   14  C10 UNK     1      17.226   6.730  32.754  1.00  0.00     0.014 A 
HETATM   15  C14 UNK     1      17.195   8.125  32.750  1.00  0.00     0.004 A 
HETATM   16  C15 UNK     1      18.190   8.846  33.409  1.00  0.00     0.042 A 
HETATM   17  C13 UNK     1      19.216   8.173  34.073  1.00  0.00     0.117 A 
HETATM   18  F1  UNK     1      20.171   8.866  34.708  1.00  0.00    -0.206 F 
HETATM   19  C9  UNK     1      19.247   6.779  34.077  1.00  0.00     0.056 A 
ENDBRANCH   6  13
TORSDOF 1
ENDMDL
