MODEL 1
REMARK VINA RESULT:      -7.8      0.000      0.000
REMARK  6 active torsions:
REMARK  status: ('A' for Active; 'I' for Inactive)
REMARK    1  A    between atoms: C20_27  and  O3_3 
REMARK    2  A    between atoms: C7_14  and  O3_3 
REMARK    3  A    between atoms: C14_21  and  O5_5 
REMARK    4  A    between atoms: C21_28  and  O5_5 
REMARK    5  A    between atoms: C9_16  and  N1_6 
REMARK    6  A    between atoms: C1_8  and  C3_10 
ROOT
HETATM    1  O1  UNK     1      30.298  -4.326  37.295  1.00  0.00    -0.269 OA
HETATM    2  O2  UNK     1      29.075  -6.005  38.380  1.00  0.00    -0.286 OA
HETATM    3  O4  UNK     1      31.538  -8.902  36.934  1.00  0.00    -0.287 OA
HETATM    4  N2  UNK     1      34.441  -3.771  34.900  1.00  0.00    -0.191 NA
HETATM    5  C1  UNK     1      32.099  -6.196  36.083  1.00  0.00     0.111 C 
HETATM    6  C2  UNK     1      30.966  -6.594  37.004  1.00  0.00     0.066 A 
HETATM    7  C4  UNK     1      32.311  -4.689  36.056  1.00  0.00     0.086 C 
HETATM    8  C5  UNK     1      30.136  -5.683  37.547  1.00  0.00     0.204 A 
HETATM    9  C6  UNK     1      30.784  -8.030  37.344  1.00  0.00     0.197 A 
HETATM   10  C8  UNK     1      29.642  -8.355  38.211  1.00  0.00     0.049 A 
HETATM   11  C9  UNK     1      31.429  -3.846  36.637  1.00  0.00     0.162 C 
HETATM   12  C11 UNK     1      28.843  -7.320  38.683  1.00  0.00     0.092 A 
HETATM   13  C15 UNK     1      29.361  -9.679  38.558  1.00  0.00     0.018 A 
HETATM   14  C16 UNK     1      27.753  -7.601  39.507  1.00  0.00     0.038 A 
HETATM   15  C17 UNK     1      33.488  -4.182  35.418  1.00  0.00     0.100 C 
HETATM   16  C18 UNK     1      28.270  -9.959  39.382  1.00  0.00     0.001 A 
HETATM   17  C19 UNK     1      27.467  -8.921  39.856  1.00  0.00     0.003 A 
ENDROOT
BRANCH   5  18
HETATM   18  C3  UNK     1      31.852  -6.710  34.694  1.00  0.00    -0.011 A 
HETATM   19  C10 UNK     1      30.675  -6.355  34.043  1.00  0.00     0.014 A 
HETATM   20  C13 UNK     1      30.430  -6.823  32.753  1.00  0.00     0.037 A 
HETATM   21  C14 UNK     1      31.364  -7.645  32.120  1.00  0.00     0.071 A 
HETATM   22  C12 UNK     1      32.542  -7.997  32.777  1.00  0.00     0.074 A 
HETATM   23  C7  UNK     1      32.787  -7.529  34.069  1.00  0.00     0.078 A 
BRANCH  21  24
HETATM   24  O5  UNK     1      31.124  -8.102  30.861  1.00  0.00    -0.351 OA
BRANCH  24  25
HETATM   25  C21 UNK     1      30.433  -7.226  29.972  1.00  0.00     0.171 C 
HETATM   26  C23 UNK     1      31.423  -6.633  28.993  1.00  0.00     0.034 C 
ENDBRANCH  24  25
ENDBRANCH  21  24
BRANCH  23  27
HETATM   27  O3  UNK     1      33.942  -7.883  34.697  1.00  0.00    -0.351 OA
BRANCH  27  28
HETATM   28  C20 UNK     1      35.162  -7.641  33.998  1.00  0.00     0.171 C 
HETATM   29  C22 UNK     1      36.143  -6.972  34.936  1.00  0.00     0.034 C 
ENDBRANCH  27  28
ENDBRANCH  23  27
ENDBRANCH   5  18
BRANCH  11  30
HETATM   30  N1  UNK     1      31.534  -2.482  36.648  1.00  0.00    -0.379 N 
HETATM   31  H7  UNK     1      30.710  -1.896  36.633  1.00  0.00     0.158 HD
HETATM   32  H8  UNK     1      32.456  -2.064  36.676  1.00  0.00     0.158 HD
ENDBRANCH  11  30
TORSDOF 6
ENDMDL
MODEL 2
REMARK VINA RESULT:      -7.8      3.532      7.460
REMARK  6 active torsions:
REMARK  status: ('A' for Active; 'I' for Inactive)
REMARK    1  A    between atoms: C20_27  and  O3_3 
REMARK    2  A    between atoms: C7_14  and  O3_3 
REMARK    3  A    between atoms: C14_21  and  O5_5 
REMARK    4  A    between atoms: C21_28  and  O5_5 
REMARK    5  A    between atoms: C9_16  and  N1_6 
REMARK    6  A    between atoms: C1_8  and  C3_10 
ROOT
HETATM    1  O1  UNK     1      30.307 -10.475  34.144  1.00  0.00    -0.269 OA
HETATM    2  O2  UNK     1      29.157  -9.696  32.256  1.00  0.00    -0.286 OA
HETATM    3  O4  UNK     1      28.095  -6.267  34.170  1.00  0.00    -0.287 OA
HETATM    4  N2  UNK     1      31.803  -8.893  38.441  1.00  0.00    -0.191 NA
HETATM    5  C1  UNK     1      29.596  -8.190  35.720  1.00  0.00     0.111 C 
HETATM    6  C2  UNK     1      29.182  -8.380  34.277  1.00  0.00     0.066 A 
HETATM    7  C4  UNK     1      30.614  -9.233  36.164  1.00  0.00     0.086 C 
HETATM    8  C5  UNK     1      29.531  -9.473  33.574  1.00  0.00     0.204 A 
HETATM    9  C6  UNK     1      28.394  -7.311  33.607  1.00  0.00     0.197 A 
HETATM   10  C8  UNK     1      27.989  -7.573  32.219  1.00  0.00     0.049 A 
HETATM   11  C9  UNK     1      30.912 -10.298  35.388  1.00  0.00     0.162 C 
HETATM   12  C11 UNK     1      28.393  -8.759  31.615  1.00  0.00     0.092 A 
HETATM   13  C15 UNK     1      27.213  -6.649  31.514  1.00  0.00     0.018 A 
HETATM   14  C16 UNK     1      28.022  -9.032  30.298  1.00  0.00     0.038 A 
HETATM   15  C17 UNK     1      31.271  -9.044  37.422  1.00  0.00     0.100 C 
HETATM   16  C18 UNK     1      26.843  -6.924  30.197  1.00  0.00     0.001 A 
HETATM   17  C19 UNK     1      27.247  -8.114  29.589  1.00  0.00     0.003 A 
ENDROOT
BRANCH   5  18
HETATM   18  C3  UNK     1      28.395  -8.222  36.621  1.00  0.00    -0.011 A 
HETATM   19  C10 UNK     1      27.562  -9.335  36.593  1.00  0.00     0.014 A 
HETATM   20  C13 UNK     1      26.442  -9.381  37.422  1.00  0.00     0.037 A 
HETATM   21  C14 UNK     1      26.161  -8.313  38.275  1.00  0.00     0.071 A 
HETATM   22  C12 UNK     1      27.000  -7.200  38.299  1.00  0.00     0.074 A 
HETATM   23  C7  UNK     1      28.121  -7.154  37.468  1.00  0.00     0.078 A 
BRANCH  21  24
HETATM   24  O5  UNK     1      25.068  -8.358  39.084  1.00  0.00    -0.351 OA
BRANCH  24  25
HETATM   25  C21 UNK     1      23.821  -7.963  38.514  1.00  0.00     0.171 C 
HETATM   26  C23 UNK     1      23.206  -6.879  39.372  1.00  0.00     0.034 C 
ENDBRANCH  24  25
ENDBRANCH  21  24
BRANCH  23  27
HETATM   27  O3  UNK     1      28.930  -6.059  37.503  1.00  0.00    -0.351 OA
BRANCH  27  28
HETATM   28  C20 UNK     1      29.687  -5.849  38.694  1.00  0.00     0.171 C 
HETATM   29  C22 UNK     1      29.651  -4.378  39.049  1.00  0.00     0.034 C 
ENDBRANCH  27  28
ENDBRANCH  23  27
ENDBRANCH   5  18
BRANCH  11  30
HETATM   30  N1  UNK     1      31.799 -11.286  35.714  1.00  0.00    -0.379 N 
HETATM   31  H7  UNK     1      32.201 -11.881  35.002  1.00  0.00     0.158 HD
HETATM   32  H8  UNK     1      32.055 -11.411  36.686  1.00  0.00     0.158 HD
ENDBRANCH  11  30
TORSDOF 6
ENDMDL
MODEL 3
REMARK VINA RESULT:      -7.6      2.182      6.583
REMARK  6 active torsions:
REMARK  status: ('A' for Active; 'I' for Inactive)
REMARK    1  A    between atoms: C20_27  and  O3_3 
REMARK    2  A    between atoms: C7_14  and  O3_3 
REMARK    3  A    between atoms: C14_21  and  O5_5 
REMARK    4  A    between atoms: C21_28  and  O5_5 
REMARK    5  A    between atoms: C9_16  and  N1_6 
REMARK    6  A    between atoms: C1_8  and  C3_10 
ROOT
HETATM    1  O1  UNK     1      32.398  -9.030  33.416  1.00  0.00    -0.269 OA
HETATM    2  O2  UNK     1      30.626  -9.033  31.880  1.00  0.00    -0.286 OA
HETATM    3  O4  UNK     1      28.728  -6.042  33.880  1.00  0.00    -0.287 OA
HETATM    4  N2  UNK     1      34.066  -6.393  37.086  1.00  0.00    -0.191 NA
HETATM    5  C1  UNK     1      31.200  -6.994  35.038  1.00  0.00     0.111 C 
HETATM    6  C2  UNK     1      30.578  -7.534  33.769  1.00  0.00     0.066 A 
HETATM    7  C4  UNK     1      32.627  -7.488  35.229  1.00  0.00     0.086 C 
HETATM    8  C5  UNK     1      31.170  -8.498  33.039  1.00  0.00     0.204 A 
HETATM    9  C6  UNK     1      29.289  -6.960  33.297  1.00  0.00     0.197 A 
HETATM   10  C8  UNK     1      28.717  -7.554  32.081  1.00  0.00     0.049 A 
HETATM   11  C9  UNK     1      33.146  -8.456  34.442  1.00  0.00     0.162 C 
HETATM   12  C11 UNK     1      29.419  -8.566  31.435  1.00  0.00     0.092 A 
HETATM   13  C15 UNK     1      27.491  -7.112  31.576  1.00  0.00     0.018 A 
HETATM   14  C16 UNK     1      28.898  -9.147  30.278  1.00  0.00     0.038 A 
HETATM   15  C17 UNK     1      33.422  -6.883  36.255  1.00  0.00     0.100 C 
HETATM   16  C18 UNK     1      26.972  -7.694  30.420  1.00  0.00     0.001 A 
HETATM   17  C19 UNK     1      27.674  -8.711  29.771  1.00  0.00     0.003 A 
ENDROOT
BRANCH   5  18
HETATM   18  C3  UNK     1      30.361  -7.356  36.230  1.00  0.00    -0.011 A 
HETATM   19  C10 UNK     1      30.129  -8.700  36.506  1.00  0.00     0.014 A 
HETATM   20  C13 UNK     1      29.352  -9.053  37.609  1.00  0.00     0.037 A 
HETATM   21  C14 UNK     1      28.812  -8.062  38.429  1.00  0.00     0.071 A 
HETATM   22  C12 UNK     1      29.049  -6.718  38.147  1.00  0.00     0.074 A 
HETATM   23  C7  UNK     1      29.826  -6.363  37.043  1.00  0.00     0.078 A 
BRANCH  21  24
HETATM   24  O5  UNK     1      28.054  -8.408  39.506  1.00  0.00    -0.351 OA
BRANCH  24  25
HETATM   25  C21 UNK     1      26.912  -9.227  39.259  1.00  0.00     0.171 C 
HETATM   26  C23 UNK     1      25.770  -8.353  38.789  1.00  0.00     0.034 C 
ENDBRANCH  24  25
ENDBRANCH  21  24
BRANCH  23  27
HETATM   27  O3  UNK     1      30.048  -5.045  36.781  1.00  0.00    -0.351 OA
BRANCH  27  28
HETATM   28  C20 UNK     1      31.015  -4.376  37.588  1.00  0.00     0.171 C 
HETATM   29  C22 UNK     1      31.883  -3.510  36.701  1.00  0.00     0.034 C 
ENDBRANCH  27  28
ENDBRANCH  23  27
ENDBRANCH   5  18
BRANCH  11  30
HETATM   30  N1  UNK     1      34.409  -8.968  34.553  1.00  0.00    -0.379 N 
HETATM   31  H7  UNK     1      34.974  -9.146  33.733  1.00  0.00     0.158 HD
HETATM   32  H8  UNK     1      34.777  -9.164  35.476  1.00  0.00     0.158 HD
ENDBRANCH  11  30
TORSDOF 6
ENDMDL
MODEL 4
REMARK VINA RESULT:      -7.6      2.737      7.285
REMARK  6 active torsions:
REMARK  status: ('A' for Active; 'I' for Inactive)
REMARK    1  A    between atoms: C20_27  and  O3_3 
REMARK    2  A    between atoms: C7_14  and  O3_3 
REMARK    3  A    between atoms: C14_21  and  O5_5 
REMARK    4  A    between atoms: C21_28  and  O5_5 
REMARK    5  A    between atoms: C9_16  and  N1_6 
REMARK    6  A    between atoms: C1_8  and  C3_10 
ROOT
HETATM    1  O1  UNK     1      34.098  -9.416  29.779  1.00  0.00    -0.269 OA
HETATM    2  O2  UNK     1      31.913  -9.843  29.044  1.00  0.00    -0.286 OA
HETATM    3  O4  UNK     1      30.382  -7.080  31.607  1.00  0.00    -0.287 OA
HETATM    4  N2  UNK     1      36.497  -6.257  32.512  1.00  0.00    -0.191 NA
HETATM    5  C1  UNK     1      33.240  -7.500  31.728  1.00  0.00     0.111 C 
HETATM    6  C2  UNK     1      32.299  -8.235  30.799  1.00  0.00     0.066 A 
HETATM    7  C4  UNK     1      34.699  -7.724  31.357  1.00  0.00     0.086 C 
HETATM    8  C5  UNK     1      32.742  -9.134  29.902  1.00  0.00     0.204 A 
HETATM    9  C6  UNK     1      30.844  -7.930  30.857  1.00  0.00     0.197 A 
HETATM   10  C8  UNK     1      29.979  -8.705  29.958  1.00  0.00     0.049 A 
HETATM   11  C9  UNK     1      35.055  -8.645  30.435  1.00  0.00     0.162 C 
HETATM   12  C11 UNK     1      30.562  -9.627  29.096  1.00  0.00     0.092 A 
HETATM   13  C15 UNK     1      28.593  -8.521  29.963  1.00  0.00     0.018 A 
HETATM   14  C16 UNK     1      29.764 -10.376  28.231  1.00  0.00     0.038 A 
HETATM   15  C17 UNK     1      35.692  -6.913  31.995  1.00  0.00     0.100 C 
HETATM   16  C18 UNK     1      27.796  -9.272  29.098  1.00  0.00     0.001 A 
HETATM   17  C19 UNK     1      28.380 -10.198  28.233  1.00  0.00     0.003 A 
ENDROOT
BRANCH   5  18
HETATM   18  C3  UNK     1      32.998  -7.909  33.153  1.00  0.00    -0.011 A 
HETATM   19  C10 UNK     1      33.022  -9.261  33.478  1.00  0.00     0.014 A 
HETATM   20  C13 UNK     1      32.800  -9.658  34.796  1.00  0.00     0.037 A 
HETATM   21  C14 UNK     1      32.554  -8.702  35.781  1.00  0.00     0.071 A 
HETATM   22  C12 UNK     1      32.531  -7.348  35.449  1.00  0.00     0.074 A 
HETATM   23  C7  UNK     1      32.753  -6.950  34.130  1.00  0.00     0.078 A 
BRANCH  21  24
HETATM   24  O5  UNK     1      32.336  -9.090  37.068  1.00  0.00    -0.351 OA
BRANCH  24  25
HETATM   25  C21 UNK     1      31.236  -9.968  37.304  1.00  0.00     0.171 C 
HETATM   26  C23 UNK     1      30.043  -9.154  37.757  1.00  0.00     0.034 C 
ENDBRANCH  24  25
ENDBRANCH  21  24
BRANCH  23  27
HETATM   27  O3  UNK     1      32.727  -5.623  33.822  1.00  0.00    -0.351 OA
BRANCH  27  28
HETATM   28  C20 UNK     1      33.016  -4.707  34.876  1.00  0.00     0.171 C 
HETATM   29  C22 UNK     1      34.432  -4.198  34.712  1.00  0.00     0.034 C 
ENDBRANCH  27  28
ENDBRANCH  23  27
ENDBRANCH   5  18
BRANCH  11  30
HETATM   30  N1  UNK     1      36.339  -8.920  30.053  1.00  0.00    -0.379 N 
HETATM   31  H7  UNK     1      37.103  -8.861  30.714  1.00  0.00     0.158 HD
HETATM   32  H8  UNK     1      36.516  -9.191  29.094  1.00  0.00     0.158 HD
ENDBRANCH  11  30
TORSDOF 6
ENDMDL
MODEL 5
REMARK VINA RESULT:      -7.5      2.204      6.457
REMARK  6 active torsions:
REMARK  status: ('A' for Active; 'I' for Inactive)
REMARK    1  A    between atoms: C20_27  and  O3_3 
REMARK    2  A    between atoms: C7_14  and  O3_3 
REMARK    3  A    between atoms: C14_21  and  O5_5 
REMARK    4  A    between atoms: C21_28  and  O5_5 
REMARK    5  A    between atoms: C9_16  and  N1_6 
REMARK    6  A    between atoms: C1_8  and  C3_10 
ROOT
HETATM    1  O1  UNK     1      32.405  -9.646  32.991  1.00  0.00    -0.269 OA
HETATM    2  O2  UNK     1      30.473  -9.405  31.685  1.00  0.00    -0.286 OA
HETATM    3  O4  UNK     1      29.949  -5.575  32.952  1.00  0.00    -0.287 OA
HETATM    4  N2  UNK     1      35.410  -6.957  35.626  1.00  0.00    -0.191 NA
HETATM    5  C1  UNK     1      32.182  -7.011  34.095  1.00  0.00     0.111 C 
HETATM    6  C2  UNK     1      31.213  -7.586  33.086  1.00  0.00     0.066 A 
HETATM    7  C4  UNK     1      33.405  -7.899  34.282  1.00  0.00     0.086 C 
HETATM    8  C5  UNK     1      31.348  -8.833  32.597  1.00  0.00     0.204 A 
HETATM    9  C6  UNK     1      30.095  -6.736  32.595  1.00  0.00     0.197 A 
HETATM   10  C8  UNK     1      29.165  -7.365  31.646  1.00  0.00     0.049 A 
HETATM   11  C9  UNK     1      33.460  -9.139  33.747  1.00  0.00     0.162 C 
HETATM   12  C11 UNK     1      29.404  -8.674  31.242  1.00  0.00     0.092 A 
HETATM   13  C15 UNK     1      28.060  -6.664  31.155  1.00  0.00     0.018 A 
HETATM   14  C16 UNK     1      28.537  -9.295  30.342  1.00  0.00     0.038 A 
HETATM   15  C17 UNK     1      34.512  -7.378  35.024  1.00  0.00     0.100 C 
HETATM   16  C18 UNK     1      27.194  -7.287  30.256  1.00  0.00     0.001 A 
HETATM   17  C19 UNK     1      27.432  -8.601  29.849  1.00  0.00     0.003 A 
ENDROOT
BRANCH   5  18
HETATM   18  C3  UNK     1      31.498  -6.785  35.412  1.00  0.00    -0.011 A 
HETATM   19  C10 UNK     1      30.919  -7.870  36.065  1.00  0.00     0.014 A 
HETATM   20  C13 UNK     1      30.279  -7.678  37.289  1.00  0.00     0.037 A 
HETATM   21  C14 UNK     1      30.222  -6.404  37.854  1.00  0.00     0.071 A 
HETATM   22  C12 UNK     1      30.804  -5.321  37.195  1.00  0.00     0.074 A 
HETATM   23  C7  UNK     1      31.443  -5.513  35.970  1.00  0.00     0.078 A 
BRANCH  21  24
HETATM   24  O5  UNK     1      29.597  -6.217  39.049  1.00  0.00    -0.351 OA
BRANCH  24  25
HETATM   25  C21 UNK     1      28.389  -6.943  39.270  1.00  0.00     0.171 C 
HETATM   26  C23 UNK     1      27.221  -6.125  38.764  1.00  0.00     0.034 C 
ENDBRANCH  24  25
ENDBRANCH  21  24
BRANCH  23  27
HETATM   27  O3  UNK     1      32.006  -4.445  35.339  1.00  0.00    -0.351 OA
BRANCH  27  28
HETATM   28  C20 UNK     1      33.194  -3.903  35.914  1.00  0.00     0.171 C 
HETATM   29  C22 UNK     1      34.235  -3.735  34.829  1.00  0.00     0.034 C 
ENDBRANCH  27  28
ENDBRANCH  23  27
ENDBRANCH   5  18
BRANCH  11  30
HETATM   30  N1  UNK     1      34.510 -10.006  33.878  1.00  0.00    -0.379 N 
HETATM   31  H7  UNK     1      34.419 -10.977  33.609  1.00  0.00     0.158 HD
HETATM   32  H8  UNK     1      35.387  -9.659  34.246  1.00  0.00     0.158 HD
ENDBRANCH  11  30
TORSDOF 6
ENDMDL
MODEL 6
REMARK VINA RESULT:      -7.4      1.906      6.828
REMARK  6 active torsions:
REMARK  status: ('A' for Active; 'I' for Inactive)
REMARK    1  A    between atoms: C20_27  and  O3_3 
REMARK    2  A    between atoms: C7_14  and  O3_3 
REMARK    3  A    between atoms: C14_21  and  O5_5 
REMARK    4  A    between atoms: C21_28  and  O5_5 
REMARK    5  A    between atoms: C9_16  and  N1_6 
REMARK    6  A    between atoms: C1_8  and  C3_10 
ROOT
HETATM    1  O1  UNK     1      33.976  -7.447  34.445  1.00  0.00    -0.269 OA
HETATM    2  O2  UNK     1      33.144  -7.565  32.257  1.00  0.00    -0.286 OA
HETATM    3  O4  UNK     1      29.638  -5.827  33.369  1.00  0.00    -0.287 OA
HETATM    4  N2  UNK     1      32.871  -5.453  38.688  1.00  0.00    -0.191 NA
HETATM    5  C1  UNK     1      31.560  -6.304  35.475  1.00  0.00     0.111 C 
HETATM    6  C2  UNK     1      31.768  -6.661  34.020  1.00  0.00     0.066 A 
HETATM    7  C4  UNK     1      32.848  -6.408  36.279  1.00  0.00     0.086 C 
HETATM    8  C5  UNK     1      32.917  -7.205  33.578  1.00  0.00     0.204 A 
HETATM    9  C6  UNK     1      30.683  -6.374  33.044  1.00  0.00     0.197 A 
HETATM   10  C8  UNK     1      30.931  -6.781  31.654  1.00  0.00     0.049 A 
HETATM   11  C9  UNK     1      33.962  -6.962  35.751  1.00  0.00     0.162 C 
HETATM   12  C11 UNK     1      32.154  -7.360  31.333  1.00  0.00     0.092 A 
HETATM   13  C15 UNK     1      29.959  -6.590  30.668  1.00  0.00     0.018 A 
HETATM   14  C16 UNK     1      32.415  -7.755  30.021  1.00  0.00     0.038 A 
HETATM   15  C17 UNK     1      32.860  -5.880  37.610  1.00  0.00     0.100 C 
HETATM   16  C18 UNK     1      30.222  -6.987  29.356  1.00  0.00     0.001 A 
HETATM   17  C19 UNK     1      31.449  -7.569  29.033  1.00  0.00     0.003 A 
ENDROOT
BRANCH   5  18
HETATM   18  C3  UNK     1      30.497  -7.173  36.083  1.00  0.00    -0.011 A 
HETATM   19  C10 UNK     1      30.498  -8.535  35.801  1.00  0.00     0.014 A 
HETATM   20  C13 UNK     1      29.519  -9.357  36.357  1.00  0.00     0.037 A 
HETATM   21  C14 UNK     1      28.543  -8.812  37.192  1.00  0.00     0.071 A 
HETATM   22  C12 UNK     1      28.547  -7.446  37.471  1.00  0.00     0.074 A 
HETATM   23  C7  UNK     1      29.527  -6.624  36.914  1.00  0.00     0.078 A 
BRANCH  21  24
HETATM   24  O5  UNK     1      27.586  -9.615  37.735  1.00  0.00    -0.351 OA
BRANCH  24  25
HETATM   25  C21 UNK     1      27.058  -9.229  39.003  1.00  0.00     0.171 C 
HETATM   26  C23 UNK     1      27.765 -10.010  40.090  1.00  0.00     0.034 C 
ENDBRANCH  24  25
ENDBRANCH  21  24
BRANCH  23  27
HETATM   27  O3  UNK     1      29.516  -5.291  37.197  1.00  0.00    -0.351 OA
BRANCH  27  28
HETATM   28  C20 UNK     1      28.766  -4.875  38.337  1.00  0.00     0.171 C 
HETATM   29  C22 UNK     1      29.640  -4.002  39.211  1.00  0.00     0.034 C 
ENDBRANCH  27  28
ENDBRANCH  23  27
ENDBRANCH   5  18
BRANCH  11  30
HETATM   30  N1  UNK     1      35.154  -7.109  36.406  1.00  0.00    -0.379 N 
HETATM   31  H7  UNK     1      35.974  -6.592  36.116  1.00  0.00     0.158 HD
HETATM   32  H8  UNK     1      35.203  -7.743  37.193  1.00  0.00     0.158 HD
ENDBRANCH  11  30
TORSDOF 6
ENDMDL
MODEL 7
REMARK VINA RESULT:      -7.3      1.638      2.345
REMARK  6 active torsions:
REMARK  status: ('A' for Active; 'I' for Inactive)
REMARK    1  A    between atoms: C20_27  and  O3_3 
REMARK    2  A    between atoms: C7_14  and  O3_3 
REMARK    3  A    between atoms: C14_21  and  O5_5 
REMARK    4  A    between atoms: C21_28  and  O5_5 
REMARK    5  A    between atoms: C9_16  and  N1_6 
REMARK    6  A    between atoms: C1_8  and  C3_10 
ROOT
HETATM    1  O1  UNK     1      32.525  -4.391  35.998  1.00  0.00    -0.269 OA
HETATM    2  O2  UNK     1      30.810  -5.085  37.438  1.00  0.00    -0.286 OA
HETATM    3  O4  UNK     1      30.746  -8.795  35.771  1.00  0.00    -0.287 OA
HETATM    4  N2  UNK     1      35.598  -6.253  32.790  1.00  0.00    -0.191 NA
HETATM    5  C1  UNK     1      32.590  -6.896  34.609  1.00  0.00     0.111 C 
HETATM    6  C2  UNK     1      31.662  -6.599  35.766  1.00  0.00     0.066 A 
HETATM    7  C4  UNK     1      33.633  -5.802  34.418  1.00  0.00     0.086 C 
HETATM    8  C5  UNK     1      31.656  -5.405  36.387  1.00  0.00     0.204 A 
HETATM    9  C6  UNK     1      30.750  -7.669  36.251  1.00  0.00     0.197 A 
HETATM   10  C8  UNK     1      29.845  -7.306  37.351  1.00  0.00     0.049 A 
HETATM   11  C9  UNK     1      33.555  -4.634  35.092  1.00  0.00     0.162 C 
HETATM   12  C11 UNK     1      29.922  -6.025  37.887  1.00  0.00     0.092 A 
HETATM   13  C15 UNK     1      28.923  -8.228  37.854  1.00  0.00     0.018 A 
HETATM   14  C16 UNK     1      29.075  -5.654  38.932  1.00  0.00     0.038 A 
HETATM   15  C17 UNK     1      34.718  -6.052  33.519  1.00  0.00     0.100 C 
HETATM   16  C18 UNK     1      28.077  -7.855  38.898  1.00  0.00     0.001 A 
HETATM   17  C19 UNK     1      28.152  -6.570  39.437  1.00  0.00     0.003 A 
ENDROOT
BRANCH   5  18
HETATM   18  C3  UNK     1      31.807  -7.093  33.343  1.00  0.00    -0.011 A 
HETATM   19  C10 UNK     1      30.989  -6.063  32.890  1.00  0.00     0.014 A 
HETATM   20  C13 UNK     1      30.254  -6.230  31.717  1.00  0.00     0.037 A 
HETATM   21  C14 UNK     1      30.342  -7.425  31.002  1.00  0.00     0.071 A 
HETATM   22  C12 UNK     1      31.165  -8.453  31.461  1.00  0.00     0.074 A 
HETATM   23  C7  UNK     1      31.899  -8.287  32.636  1.00  0.00     0.078 A 
BRANCH  21  24
HETATM   24  O5  UNK     1      29.625  -7.587  29.856  1.00  0.00    -0.351 OA
BRANCH  24  25
HETATM   25  C21 UNK     1      28.790  -8.741  29.772  1.00  0.00     0.171 C 
HETATM   26  C23 UNK     1      27.463  -8.439  30.435  1.00  0.00     0.034 C 
ENDBRANCH  24  25
ENDBRANCH  21  24
BRANCH  23  27
HETATM   27  O3  UNK     1      32.697  -9.302  33.070  1.00  0.00    -0.351 OA
BRANCH  27  28
HETATM   28  C20 UNK     1      33.889  -9.554  32.327  1.00  0.00     0.171 C 
HETATM   29  C22 UNK     1      35.021  -9.833  33.291  1.00  0.00     0.034 C 
ENDBRANCH  27  28
ENDBRANCH  23  27
ENDBRANCH   5  18
BRANCH  11  30
HETATM   30  N1  UNK     1      34.437  -3.596  34.970  1.00  0.00    -0.379 N 
HETATM   31  H7  UNK     1      34.223  -2.796  34.389  1.00  0.00     0.158 HD
HETATM   32  H8  UNK     1      35.312  -3.636  35.478  1.00  0.00     0.158 HD
ENDBRANCH  11  30
TORSDOF 6
ENDMDL
MODEL 8
REMARK VINA RESULT:      -7.3      1.846      6.852
REMARK  6 active torsions:
REMARK  status: ('A' for Active; 'I' for Inactive)
REMARK    1  A    between atoms: C20_27  and  O3_3 
REMARK    2  A    between atoms: C7_14  and  O3_3 
REMARK    3  A    between atoms: C14_21  and  O5_5 
REMARK    4  A    between atoms: C21_28  and  O5_5 
REMARK    5  A    between atoms: C9_16  and  N1_6 
REMARK    6  A    between atoms: C1_8  and  C3_10 
ROOT
HETATM    1  O1  UNK     1      34.530  -7.808  33.590  1.00  0.00    -0.269 OA
HETATM    2  O2  UNK     1      33.288  -7.784  31.602  1.00  0.00    -0.286 OA
HETATM    3  O4  UNK     1      30.201  -5.851  33.412  1.00  0.00    -0.287 OA
HETATM    4  N2  UNK     1      34.410  -5.904  38.013  1.00  0.00    -0.191 NA
HETATM    5  C1  UNK     1      32.448  -6.539  35.095  1.00  0.00     0.111 C 
HETATM    6  C2  UNK     1      32.347  -6.856  33.619  1.00  0.00     0.066 A 
HETATM    7  C4  UNK     1      33.855  -6.763  35.632  1.00  0.00     0.086 C 
HETATM    8  C5  UNK     1      33.346  -7.460  32.950  1.00  0.00     0.204 A 
HETATM    9  C6  UNK     1      31.120  -6.457  32.879  1.00  0.00     0.197 A 
HETATM   10  C8  UNK     1      31.066  -6.827  31.458  1.00  0.00     0.049 A 
HETATM   11  C9  UNK     1      34.802  -7.373  34.886  1.00  0.00     0.162 C 
HETATM   12  C11 UNK     1      32.158  -7.477  30.893  1.00  0.00     0.092 A 
HETATM   13  C15 UNK     1      29.941  -6.532  30.683  1.00  0.00     0.018 A 
HETATM   14  C16 UNK     1      32.134  -7.839  29.545  1.00  0.00     0.038 A 
HETATM   15  C17 UNK     1      34.161  -6.288  36.947  1.00  0.00     0.100 C 
HETATM   16  C18 UNK     1      29.918  -6.896  29.336  1.00  0.00     0.001 A 
HETATM   17  C19 UNK     1      31.013  -7.549  28.768  1.00  0.00     0.003 A 
ENDROOT
BRANCH   5  18
HETATM   18  C3  UNK     1      31.459  -7.355  35.877  1.00  0.00    -0.011 A 
HETATM   19  C10 UNK     1      31.444  -8.736  35.709  1.00  0.00     0.014 A 
HETATM   20  C13 UNK     1      30.531  -9.509  36.427  1.00  0.00     0.037 A 
HETATM   21  C14 UNK     1      29.639  -8.897  37.308  1.00  0.00     0.071 A 
HETATM   22  C12 UNK     1      29.659  -7.512  37.471  1.00  0.00     0.074 A 
HETATM   23  C7  UNK     1      30.572  -6.739  36.752  1.00  0.00     0.078 A 
BRANCH  21  24
HETATM   24  O5  UNK     1      28.748  -9.652  38.008  1.00  0.00    -0.351 OA
BRANCH  24  25
HETATM   25  C21 UNK     1      28.013  -8.996  39.040  1.00  0.00     0.171 C 
HETATM   26  C23 UNK     1      27.652 -10.008  40.107  1.00  0.00     0.034 C 
ENDBRANCH  24  25
ENDBRANCH  21  24
BRANCH  23  27
HETATM   27  O3  UNK     1      30.578  -5.387  36.923  1.00  0.00    -0.351 OA
BRANCH  27  28
HETATM   28  C20 UNK     1      30.909  -4.899  38.221  1.00  0.00     0.171 C 
HETATM   29  C22 UNK     1      29.760  -4.063  38.742  1.00  0.00     0.034 C 
ENDBRANCH  27  28
ENDBRANCH  23  27
ENDBRANCH   5  18
BRANCH  11  30
HETATM   30  N1  UNK     1      36.083  -7.627  35.293  1.00  0.00    -0.379 N 
HETATM   31  H7  UNK     1      36.858  -7.563  34.646  1.00  0.00     0.158 HD
HETATM   32  H8  UNK     1      36.246  -7.877  36.261  1.00  0.00     0.158 HD
ENDBRANCH  11  30
TORSDOF 6
ENDMDL
MODEL 9
REMARK VINA RESULT:      -7.3      2.724      4.152
REMARK  6 active torsions:
REMARK  status: ('A' for Active; 'I' for Inactive)
REMARK    1  A    between atoms: C20_27  and  O3_3 
REMARK    2  A    between atoms: C7_14  and  O3_3 
REMARK    3  A    between atoms: C14_21  and  O5_5 
REMARK    4  A    between atoms: C21_28  and  O5_5 
REMARK    5  A    between atoms: C9_16  and  N1_6 
REMARK    6  A    between atoms: C1_8  and  C3_10 
ROOT
HETATM    1  O1  UNK     1      33.799  -6.740  35.626  1.00  0.00    -0.269 OA
HETATM    2  O2  UNK     1      32.227  -5.771  37.069  1.00  0.00    -0.286 OA
HETATM    3  O4  UNK     1      29.499  -8.673  36.240  1.00  0.00    -0.287 OA
HETATM    4  N2  UNK     1      34.452 -10.788  33.097  1.00  0.00    -0.191 NA
HETATM    5  C1  UNK     1      32.010  -8.827  34.816  1.00  0.00     0.111 C 
HETATM    6  C2  UNK     1      31.652  -7.752  35.820  1.00  0.00     0.066 A 
HETATM    7  C4  UNK     1      33.490  -8.806  34.461  1.00  0.00     0.086 C 
HETATM    8  C5  UNK     1      32.520  -6.784  36.167  1.00  0.00     0.204 A 
HETATM    9  C6  UNK     1      30.312  -7.787  36.466  1.00  0.00     0.197 A 
HETATM   10  C8  UNK     1      30.011  -6.694  37.401  1.00  0.00     0.049 A 
HETATM   11  C9  UNK     1      34.293  -7.795  34.861  1.00  0.00     0.162 C 
HETATM   12  C11 UNK     1      30.989  -5.738  37.652  1.00  0.00     0.092 A 
HETATM   13  C15 UNK     1      28.766  -6.614  38.031  1.00  0.00     0.018 A 
HETATM   14  C16 UNK     1      30.729  -4.690  38.536  1.00  0.00     0.038 A 
HETATM   15  C17 UNK     1      34.021  -9.901  33.708  1.00  0.00     0.100 C 
HETATM   16  C18 UNK     1      28.508  -5.565  38.914  1.00  0.00     0.001 A 
HETATM   17  C19 UNK     1      29.488  -4.604  39.167  1.00  0.00     0.003 A 
ENDROOT
BRANCH   5  18
HETATM   18  C3  UNK     1      31.176  -8.685  33.575  1.00  0.00    -0.011 A 
HETATM   19  C10 UNK     1      31.216  -7.486  32.870  1.00  0.00     0.014 A 
HETATM   20  C13 UNK     1      30.448  -7.338  31.716  1.00  0.00     0.037 A 
HETATM   21  C14 UNK     1      29.645  -8.388  31.272  1.00  0.00     0.071 A 
HETATM   22  C12 UNK     1      29.609  -9.587  31.983  1.00  0.00     0.074 A 
HETATM   23  C7  UNK     1      30.377  -9.736  33.139  1.00  0.00     0.078 A 
BRANCH  21  24
HETATM   24  O5  UNK     1      28.895  -8.243  30.145  1.00  0.00    -0.351 OA
BRANCH  24  25
HETATM   25  C21 UNK     1      27.485  -8.420  30.276  1.00  0.00     0.171 C 
HETATM   26  C23 UNK     1      26.837  -7.071  30.498  1.00  0.00     0.034 C 
ENDBRANCH  24  25
ENDBRANCH  21  24
BRANCH  23  27
HETATM   27  O3  UNK     1      30.330 -10.914  33.822  1.00  0.00    -0.351 OA
BRANCH  27  28
HETATM   28  C20 UNK     1      30.998 -12.030  33.237  1.00  0.00     0.171 C 
HETATM   29  C22 UNK     1      31.692 -12.816  34.329  1.00  0.00     0.034 C 
ENDBRANCH  27  28
ENDBRANCH  23  27
ENDBRANCH   5  18
BRANCH  11  30
HETATM   30  N1  UNK     1      35.627  -7.690  34.575  1.00  0.00    -0.379 N 
HETATM   31  H7  UNK     1      36.104  -6.801  34.638  1.00  0.00     0.158 HD
HETATM   32  H8  UNK     1      36.134  -8.522  34.301  1.00  0.00     0.158 HD
ENDBRANCH  11  30
TORSDOF 6
ENDMDL
MODEL 10
REMARK VINA RESULT:      -7.2     20.311     24.380
REMARK  6 active torsions:
REMARK  status: ('A' for Active; 'I' for Inactive)
REMARK    1  A    between atoms: C20_27  and  O3_3 
REMARK    2  A    between atoms: C7_14  and  O3_3 
REMARK    3  A    between atoms: C14_21  and  O5_5 
REMARK    4  A    between atoms: C21_28  and  O5_5 
REMARK    5  A    between atoms: C9_16  and  N1_6 
REMARK    6  A    between atoms: C1_8  and  C3_10 
ROOT
HETATM    1  O1  UNK     1      20.969  -2.131  13.793  1.00  0.00    -0.269 OA
HETATM    2  O2  UNK     1      22.413  -2.566  15.588  1.00  0.00    -0.286 OA
HETATM    3  O4  UNK     1      21.585  -6.546  15.447  1.00  0.00    -0.287 OA
HETATM    4  N2  UNK     1      18.440  -4.517  10.458  1.00  0.00    -0.191 NA
HETATM    5  C1  UNK     1      20.160  -4.871  13.570  1.00  0.00     0.111 C 
HETATM    6  C2  UNK     1      21.164  -4.369  14.585  1.00  0.00     0.066 A 
HETATM    7  C4  UNK     1      19.804  -3.804  12.543  1.00  0.00     0.086 C 
HETATM    8  C5  UNK     1      21.511  -3.071  14.662  1.00  0.00     0.204 A 
HETATM    9  C6  UNK     1      21.810  -5.345  15.503  1.00  0.00     0.197 A 
HETATM   10  C8  UNK     1      22.745  -4.790  16.491  1.00  0.00     0.049 A 
HETATM   11  C9  UNK     1      20.204  -2.523  12.696  1.00  0.00     0.162 C 
HETATM   12  C11 UNK     1      22.997  -3.422  16.482  1.00  0.00     0.092 A 
HETATM   13  C15 UNK     1      23.375  -5.618  17.424  1.00  0.00     0.018 A 
HETATM   14  C16 UNK     1      23.881  -2.869  17.410  1.00  0.00     0.038 A 
HETATM   15  C17 UNK     1      19.051  -4.199  11.392  1.00  0.00     0.100 C 
HETATM   16  C18 UNK     1      24.259  -5.063  18.351  1.00  0.00     0.001 A 
HETATM   17  C19 UNK     1      24.512  -3.690  18.344  1.00  0.00     0.003 A 
ENDROOT
BRANCH   5  18
HETATM   18  C3  UNK     1      18.919  -5.364  14.258  1.00  0.00    -0.011 A 
HETATM   19  C10 UNK     1      18.230  -4.500  15.103  1.00  0.00     0.014 A 
HETATM   20  C13 UNK     1      17.076  -4.942  15.750  1.00  0.00     0.037 A 
HETATM   21  C14 UNK     1      16.617  -6.244  15.547  1.00  0.00     0.071 A 
HETATM   22  C12 UNK     1      17.312  -7.104  14.698  1.00  0.00     0.074 A 
HETATM   23  C7  UNK     1      18.468  -6.662  14.052  1.00  0.00     0.078 A 
BRANCH  21  24
HETATM   24  O5  UNK     1      15.491  -6.674  16.179  1.00  0.00    -0.351 OA
BRANCH  24  25
HETATM   25  C21 UNK     1      15.166  -6.053  17.422  1.00  0.00     0.171 C 
HETATM   26  C23 UNK     1      15.852  -6.804  18.542  1.00  0.00     0.034 C 
ENDBRANCH  24  25
ENDBRANCH  21  24
BRANCH  23  27
HETATM   27  O3  UNK     1      19.135  -7.516  13.226  1.00  0.00    -0.351 OA
BRANCH  27  28
HETATM   28  C20 UNK     1      18.483  -7.889  12.014  1.00  0.00     0.171 C 
HETATM   29  C22 UNK     1      19.495  -7.886  10.888  1.00  0.00     0.034 C 
ENDBRANCH  27  28
ENDBRANCH  23  27
ENDBRANCH   5  18
BRANCH  11  30
HETATM   30  N1  UNK     1      19.918  -1.502  11.832  1.00  0.00    -0.379 N 
HETATM   31  H7  UNK     1      19.157  -1.577  11.170  1.00  0.00     0.158 HD
HETATM   32  H8  UNK     1      20.479  -0.660  11.868  1.00  0.00     0.158 HD
ENDBRANCH  11  30
TORSDOF 6
ENDMDL
