MODEL 1
REMARK VINA RESULT:      -8.4      0.000      0.000
REMARK  3 active torsions:
REMARK  status: ('A' for Active; 'I' for Inactive)
REMARK    1  A    between atoms: C7_15  and  S1_1 
REMARK    2  A    between atoms: N1_7  and  S1_1 
REMARK       I    between atoms: C6_14  and  N2_8 
REMARK    3  A    between atoms: C1_9  and  C6_14 
ROOT
HETATM    1  S1  UNK     1      20.479  -2.664  35.317  1.00  0.00     0.243 S 
HETATM    2  O1  UNK     1      21.638  -1.968  35.831  1.00  0.00    -0.206 OA
HETATM    3  O2  UNK     1      20.359  -2.979  33.909  1.00  0.00    -0.206 OA
ENDROOT
BRANCH   1   4
HETATM    4  C7  UNK     1      20.303  -4.166  36.227  1.00  0.00     0.075 A 
HETATM    5  C8  UNK     1      19.583  -5.215  35.670  1.00  0.00     0.039 A 
HETATM    6  C10 UNK     1      19.442  -6.406  36.387  1.00  0.00    -0.001 A 
HETATM    7  C12 UNK     1      20.030  -6.506  37.645  1.00  0.00     0.089 A 
HETATM    8  C13 UNK     1      18.704  -7.543  35.866  1.00  0.00     0.020 A 
HETATM    9  C11 UNK     1      20.752  -5.452  38.204  1.00  0.00     0.040 A 
HETATM   10  O4  UNK     1      19.912  -7.691  38.400  1.00  0.00    -0.275 OA
HETATM   11  C9  UNK     1      20.888  -4.270  37.482  1.00  0.00     0.027 A 
HETATM   12  C15 UNK     1      19.210  -8.793  37.921  1.00  0.00     0.288 A 
HETATM   13  C14 UNK     1      18.596  -8.661  36.587  1.00  0.00     0.083 A 
HETATM   14  O5  UNK     1      19.102  -9.827  38.571  1.00  0.00    -0.260 OA
ENDBRANCH   1   4
BRANCH   1  15
HETATM   15  N1  UNK     1      19.063  -1.842  35.824  1.00  0.00    -0.206 NA
HETATM   16  C4  UNK     1      18.908  -1.688  37.298  1.00  0.00     0.108 C 
HETATM   17  C2  UNK     1      17.468  -1.301  37.623  1.00  0.00     0.029 C 
HETATM   18  C1  UNK     1      17.007  -0.054  36.867  1.00  0.00     0.080 C 
HETATM   19  C3  UNK     1      17.333  -0.139  35.376  1.00  0.00     0.029 C 
HETATM   20  C5  UNK     1      18.771  -0.573  35.099  1.00  0.00     0.108 C 
BRANCH  18  21
HETATM   21  C6  UNK     1      17.600   1.180  37.484  1.00  0.00     0.219 C 
HETATM   22  O3  UNK     1      17.900   1.234  38.675  1.00  0.00    -0.273 OA
HETATM   23  N2  UNK     1      17.748   2.223  36.603  1.00  0.00    -0.370 N 
HETATM   24  H12 UNK     1      18.141   3.108  36.910  1.00  0.00     0.159 HD
HETATM   25  H13 UNK     1      17.442   2.178  35.637  1.00  0.00     0.159 HD
ENDBRANCH  18  21
ENDBRANCH   1  15
TORSDOF 3
ENDMDL
MODEL 2
REMARK VINA RESULT:      -8.4      7.292      9.969
REMARK  3 active torsions:
REMARK  status: ('A' for Active; 'I' for Inactive)
REMARK    1  A    between atoms: C7_15  and  S1_1 
REMARK    2  A    between atoms: N1_7  and  S1_1 
REMARK       I    between atoms: C6_14  and  N2_8 
REMARK    3  A    between atoms: C1_9  and  C6_14 
ROOT
HETATM    1  S1  UNK     1      18.198   6.467  31.736  1.00  0.00     0.243 S 
HETATM    2  O1  UNK     1      19.263   7.134  32.452  1.00  0.00    -0.206 OA
HETATM    3  O2  UNK     1      18.023   6.656  30.312  1.00  0.00    -0.206 OA
ENDROOT
BRANCH   1   4
HETATM    4  C7  UNK     1      18.345   4.734  32.041  1.00  0.00     0.075 A 
HETATM    5  C8  UNK     1      18.667   3.886  30.989  1.00  0.00     0.039 A 
HETATM    6  C10 UNK     1      18.784   2.515  31.226  1.00  0.00    -0.001 A 
HETATM    7  C12 UNK     1      18.574   2.036  32.517  1.00  0.00     0.089 A 
HETATM    8  C13 UNK     1      19.118   1.571  30.175  1.00  0.00     0.020 A 
HETATM    9  C11 UNK     1      18.250   2.888  33.572  1.00  0.00     0.040 A 
HETATM   10  O4  UNK     1      18.684   0.658  32.798  1.00  0.00    -0.275 OA
HETATM   11  C9  UNK     1      18.136   4.253  33.326  1.00  0.00     0.027 A 
HETATM   12  C15 UNK     1      19.003  -0.264  31.807  1.00  0.00     0.288 A 
HETATM   13  C14 UNK     1      19.220   0.268  30.448  1.00  0.00     0.083 A 
HETATM   14  O5  UNK     1      19.101  -1.463  32.042  1.00  0.00    -0.260 OA
ENDBRANCH   1   4
BRANCH   1  15
HETATM   15  N1  UNK     1      16.710   6.783  32.525  1.00  0.00    -0.206 NA
HETATM   16  C4  UNK     1      16.818   7.504  33.825  1.00  0.00     0.108 C 
HETATM   17  C2  UNK     1      15.502   7.381  34.588  1.00  0.00     0.029 C 
HETATM   18  C1  UNK     1      14.298   7.853  33.771  1.00  0.00     0.080 C 
HETATM   19  C3  UNK     1      14.291   7.246  32.367  1.00  0.00     0.029 C 
HETATM   20  C5  UNK     1      15.640   7.353  31.659  1.00  0.00     0.108 C 
BRANCH  18  21
HETATM   21  C6  UNK     1      14.260   9.353  33.715  1.00  0.00     0.219 C 
HETATM   22  O3  UNK     1      14.997  10.050  34.409  1.00  0.00    -0.273 OA
HETATM   23  N2  UNK     1      13.322   9.851  32.844  1.00  0.00    -0.370 N 
HETATM   24  H12 UNK     1      13.208  10.853  32.724  1.00  0.00     0.159 HD
HETATM   25  H13 UNK     1      12.683   9.261  32.323  1.00  0.00     0.159 HD
ENDBRANCH  18  21
ENDBRANCH   1  15
TORSDOF 3
ENDMDL
MODEL 3
REMARK VINA RESULT:      -8.4      7.010      9.922
REMARK  3 active torsions:
REMARK  status: ('A' for Active; 'I' for Inactive)
REMARK    1  A    between atoms: C7_15  and  S1_1 
REMARK    2  A    between atoms: N1_7  and  S1_1 
REMARK       I    between atoms: C6_14  and  N2_8 
REMARK    3  A    between atoms: C1_9  and  C6_14 
ROOT
HETATM    1  S1  UNK     1      18.285   6.524  31.894  1.00  0.00     0.243 S 
HETATM    2  O1  UNK     1      19.409   7.113  32.590  1.00  0.00    -0.206 OA
HETATM    3  O2  UNK     1      18.099   6.723  30.472  1.00  0.00    -0.206 OA
ENDROOT
BRANCH   1   4
HETATM    4  C7  UNK     1      18.308   4.786  32.203  1.00  0.00     0.075 A 
HETATM    5  C8  UNK     1      18.282   4.331  33.514  1.00  0.00     0.039 A 
HETATM    6  C10 UNK     1      18.299   2.957  33.763  1.00  0.00    -0.001 A 
HETATM    7  C12 UNK     1      18.343   2.079  32.682  1.00  0.00     0.089 A 
HETATM    8  C13 UNK     1      18.273   2.411  35.108  1.00  0.00     0.020 A 
HETATM    9  C11 UNK     1      18.370   2.537  31.366  1.00  0.00     0.040 A 
HETATM   10  O4  UNK     1      18.361   0.685  32.891  1.00  0.00    -0.275 OA
HETATM   11  C9  UNK     1      18.352   3.909  31.128  1.00  0.00     0.027 A 
HETATM   12  C15 UNK     1      18.336   0.139  34.171  1.00  0.00     0.288 A 
HETATM   13  C14 UNK     1      18.290   1.089  35.297  1.00  0.00     0.083 A 
HETATM   14  O5  UNK     1      18.351  -1.072  34.361  1.00  0.00    -0.260 OA
ENDBRANCH   1   4
BRANCH   1  15
HETATM   15  N1  UNK     1      16.838   6.952  32.708  1.00  0.00    -0.206 NA
HETATM   16  C4  UNK     1      17.000   7.913  33.835  1.00  0.00     0.108 C 
HETATM   17  C2  UNK     1      15.740   7.909  34.695  1.00  0.00     0.029 C 
HETATM   18  C1  UNK     1      14.471   8.185  33.887  1.00  0.00     0.080 C 
HETATM   19  C3  UNK     1      14.398   7.319  32.628  1.00  0.00     0.029 C 
HETATM   20  C5  UNK     1      15.696   7.319  31.823  1.00  0.00     0.108 C 
BRANCH  18  21
HETATM   21  C6  UNK     1      14.375   9.645  33.548  1.00  0.00     0.219 C 
HETATM   22  O3  UNK     1      15.192  10.466  33.961  1.00  0.00    -0.273 OA
HETATM   23  N2  UNK     1      13.292   9.962  32.764  1.00  0.00    -0.370 N 
HETATM   24  H12 UNK     1      13.127  10.920  32.472  1.00  0.00     0.159 HD
HETATM   25  H13 UNK     1      12.597   9.280  32.481  1.00  0.00     0.159 HD
ENDBRANCH  18  21
ENDBRANCH   1  15
TORSDOF 3
ENDMDL
MODEL 4
REMARK VINA RESULT:      -8.1      2.522      3.901
REMARK  3 active torsions:
REMARK  status: ('A' for Active; 'I' for Inactive)
REMARK    1  A    between atoms: C7_15  and  S1_1 
REMARK    2  A    between atoms: N1_7  and  S1_1 
REMARK       I    between atoms: C6_14  and  N2_8 
REMARK    3  A    between atoms: C1_9  and  C6_14 
ROOT
HETATM    1  S1  UNK     1      20.467  -2.216  35.821  1.00  0.00     0.243 S 
HETATM    2  O1  UNK     1      19.490  -1.484  36.597  1.00  0.00    -0.206 OA
HETATM    3  O2  UNK     1      21.879  -1.914  35.919  1.00  0.00    -0.206 OA
ENDROOT
BRANCH   1   4
HETATM    4  C7  UNK     1      20.253  -3.935  36.165  1.00  0.00     0.075 A 
HETATM    5  C8  UNK     1      20.356  -4.381  37.476  1.00  0.00     0.039 A 
HETATM    6  C10 UNK     1      20.186  -5.739  37.753  1.00  0.00    -0.001 A 
HETATM    7  C12 UNK     1      19.918  -6.610  36.700  1.00  0.00     0.089 A 
HETATM    8  C13 UNK     1      20.280  -6.274  39.100  1.00  0.00     0.020 A 
HETATM    9  C11 UNK     1      19.816  -6.162  35.385  1.00  0.00     0.040 A 
HETATM   10  O4  UNK     1      19.740  -7.989  36.938  1.00  0.00    -0.275 OA
HETATM   11  C9  UNK     1      19.986  -4.806  35.118  1.00  0.00     0.027 A 
HETATM   12  C15 UNK     1      19.824  -8.524  38.220  1.00  0.00     0.288 A 
HETATM   13  C14 UNK     1      20.110  -7.580  39.317  1.00  0.00     0.083 A 
HETATM   14  O5  UNK     1      19.671  -9.721  38.435  1.00  0.00    -0.260 OA
ENDBRANCH   1   4
BRANCH   1  15
HETATM   15  N1  UNK     1      20.007  -2.184  34.170  1.00  0.00    -0.206 NA
HETATM   16  C4  UNK     1      18.946  -1.197  33.822  1.00  0.00     0.108 C 
HETATM   17  C2  UNK     1      18.369  -1.529  32.449  1.00  0.00     0.029 C 
HETATM   18  C1  UNK     1      19.443  -1.620  31.363  1.00  0.00     0.080 C 
HETATM   19  C3  UNK     1      20.621  -2.493  31.799  1.00  0.00     0.029 C 
HETATM   20  C5  UNK     1      21.135  -2.154  33.196  1.00  0.00     0.108 C 
BRANCH  18  21
HETATM   21  C6  UNK     1      19.902  -0.246  30.967  1.00  0.00     0.219 C 
HETATM   22  O3  UNK     1      21.093   0.044  30.880  1.00  0.00    -0.273 OA
HETATM   23  N2  UNK     1      18.874   0.636  30.736  1.00  0.00    -0.370 N 
HETATM   24  H12 UNK     1      19.067   1.594  30.460  1.00  0.00     0.159 HD
HETATM   25  H13 UNK     1      17.899   0.394  30.868  1.00  0.00     0.159 HD
ENDBRANCH  18  21
ENDBRANCH   1  15
TORSDOF 3
ENDMDL
MODEL 5
REMARK VINA RESULT:      -7.9      3.121      7.494
REMARK  3 active torsions:
REMARK  status: ('A' for Active; 'I' for Inactive)
REMARK    1  A    between atoms: C7_15  and  S1_1 
REMARK    2  A    between atoms: N1_7  and  S1_1 
REMARK       I    between atoms: C6_14  and  N2_8 
REMARK    3  A    between atoms: C1_9  and  C6_14 
ROOT
HETATM    1  S1  UNK     1      20.048  -3.391  36.618  1.00  0.00     0.243 S 
HETATM    2  O1  UNK     1      21.484  -3.564  36.663  1.00  0.00    -0.206 OA
HETATM    3  O2  UNK     1      19.323  -2.863  37.754  1.00  0.00    -0.206 OA
ENDROOT
BRANCH   1   4
HETATM    4  C7  UNK     1      19.669  -2.387  35.216  1.00  0.00     0.075 A 
HETATM    5  C8  UNK     1      20.345  -2.605  34.024  1.00  0.00     0.039 A 
HETATM    6  C10 UNK     1      20.048  -1.813  32.912  1.00  0.00    -0.001 A 
HETATM    7  C12 UNK     1      19.076  -0.823  33.034  1.00  0.00     0.089 A 
HETATM    8  C13 UNK     1      20.715  -1.986  31.634  1.00  0.00     0.020 A 
HETATM    9  C11 UNK     1      18.398  -0.604  34.232  1.00  0.00     0.040 A 
HETATM   10  O4  UNK     1      18.745  -0.003  31.935  1.00  0.00    -0.275 OA
HETATM   11  C9  UNK     1      18.701  -1.398  35.334  1.00  0.00     0.027 A 
HETATM   12  C15 UNK     1      19.371  -0.151  30.702  1.00  0.00     0.288 A 
HETATM   13  C14 UNK     1      20.397  -1.206  30.599  1.00  0.00     0.083 A 
HETATM   14  O5  UNK     1      19.090   0.557  29.741  1.00  0.00    -0.260 OA
ENDBRANCH   1   4
BRANCH   1  15
HETATM   15  N1  UNK     1      19.323  -4.866  36.133  1.00  0.00    -0.206 NA
HETATM   16  C4  UNK     1      20.255  -5.876  35.557  1.00  0.00     0.108 C 
HETATM   17  C2  UNK     1      19.456  -6.953  34.829  1.00  0.00     0.029 C 
HETATM   18  C1  UNK     1      18.389  -7.598  35.716  1.00  0.00     0.080 C 
HETATM   19  C3  UNK     1      17.548  -6.552  36.448  1.00  0.00     0.029 C 
HETATM   20  C5  UNK     1      18.389  -5.471  37.124  1.00  0.00     0.108 C 
BRANCH  18  21
HETATM   21  C6  UNK     1      19.023  -8.558  36.680  1.00  0.00     0.219 C 
HETATM   22  O3  UNK     1      20.054  -9.171  36.408  1.00  0.00    -0.273 OA
HETATM   23  N2  UNK     1      18.336  -8.692  37.862  1.00  0.00    -0.370 N 
HETATM   24  H12 UNK     1      18.673  -9.314  38.590  1.00  0.00     0.159 HD
HETATM   25  H13 UNK     1      17.457  -8.221  38.046  1.00  0.00     0.159 HD
ENDBRANCH  18  21
ENDBRANCH   1  15
TORSDOF 3
ENDMDL
MODEL 6
REMARK VINA RESULT:      -7.8     29.539     31.810
REMARK  3 active torsions:
REMARK  status: ('A' for Active; 'I' for Inactive)
REMARK    1  A    between atoms: C7_15  and  S1_1 
REMARK    2  A    between atoms: N1_7  and  S1_1 
REMARK       I    between atoms: C6_14  and  N2_8 
REMARK    3  A    between atoms: C1_9  and  C6_14 
ROOT
HETATM    1  S1  UNK     1      12.783   8.841  10.226  1.00  0.00     0.243 S 
HETATM    2  O1  UNK     1      12.772   8.341  11.584  1.00  0.00    -0.206 OA
HETATM    3  O2  UNK     1      11.936   9.946   9.830  1.00  0.00    -0.206 OA
ENDROOT
BRANCH   1   4
HETATM    4  C7  UNK     1      14.449   9.259   9.817  1.00  0.00     0.075 A 
HETATM    5  C8  UNK     1      14.691  10.355   8.999  1.00  0.00     0.039 A 
HETATM    6  C10 UNK     1      16.007  10.689   8.674  1.00  0.00    -0.001 A 
HETATM    7  C12 UNK     1      17.043   9.910   9.182  1.00  0.00     0.089 A 
HETATM    8  C13 UNK     1      16.334  11.821   7.825  1.00  0.00     0.020 A 
HETATM    9  C11 UNK     1      16.800   8.810  10.002  1.00  0.00     0.040 A 
HETATM   10  O4  UNK     1      18.386  10.215   8.878  1.00  0.00    -0.275 OA
HETATM   11  C9  UNK     1      15.484   8.484  10.321  1.00  0.00     0.027 A 
HETATM   12  C15 UNK     1      18.722  11.294   8.067  1.00  0.00     0.288 A 
HETATM   13  C14 UNK     1      17.607  12.103   7.541  1.00  0.00     0.083 A 
HETATM   14  O5  UNK     1      19.887  11.566   7.797  1.00  0.00    -0.260 OA
ENDBRANCH   1   4
BRANCH   1  15
HETATM   15  N1  UNK     1      12.531   7.534   9.147  1.00  0.00    -0.206 NA
HETATM   16  C4  UNK     1      11.335   6.692   9.433  1.00  0.00     0.108 C 
HETATM   17  C2  UNK     1      11.439   5.379   8.664  1.00  0.00     0.029 C 
HETATM   18  C1  UNK     1      11.645   5.587   7.162  1.00  0.00     0.080 C 
HETATM   19  C3  UNK     1      12.759   6.595   6.875  1.00  0.00     0.029 C 
HETATM   20  C5  UNK     1      12.638   7.875   7.700  1.00  0.00     0.108 C 
BRANCH  18  21
HETATM   21  C6  UNK     1      10.357   6.001   6.511  1.00  0.00     0.219 C 
HETATM   22  O3  UNK     1       9.262   5.678   6.968  1.00  0.00    -0.273 OA
HETATM   23  N2  UNK     1      10.527   6.741   5.366  1.00  0.00    -0.370 N 
HETATM   24  H12 UNK     1       9.725   7.077   4.843  1.00  0.00     0.159 HD
HETATM   25  H13 UNK     1      11.439   6.949   4.974  1.00  0.00     0.159 HD
ENDBRANCH  18  21
ENDBRANCH   1  15
TORSDOF 3
ENDMDL
MODEL 7
REMARK VINA RESULT:      -7.8     13.080     15.376
REMARK  3 active torsions:
REMARK  status: ('A' for Active; 'I' for Inactive)
REMARK    1  A    between atoms: C7_15  and  S1_1 
REMARK    2  A    between atoms: N1_7  and  S1_1 
REMARK       I    between atoms: C6_14  and  N2_8 
REMARK    3  A    between atoms: C1_9  and  C6_14 
ROOT
HETATM    1  S1  UNK     1      31.981  -7.160  33.456  1.00  0.00     0.243 S 
HETATM    2  O1  UNK     1      31.623  -8.532  33.743  1.00  0.00    -0.206 OA
HETATM    3  O2  UNK     1      31.473  -6.485  32.280  1.00  0.00    -0.206 OA
ENDROOT
BRANCH   1   4
HETATM    4  C7  UNK     1      31.562  -6.186  34.867  1.00  0.00     0.075 A 
HETATM    5  C8  UNK     1      30.633  -6.675  35.776  1.00  0.00     0.039 A 
HETATM    6  C10 UNK     1      30.299  -5.908  36.894  1.00  0.00    -0.001 A 
HETATM    7  C12 UNK     1      30.910  -4.668  37.064  1.00  0.00     0.089 A 
HETATM    8  C13 UNK     1      29.337  -6.357  37.885  1.00  0.00     0.020 A 
HETATM    9  C11 UNK     1      31.841  -4.177  36.151  1.00  0.00     0.040 A 
HETATM   10  O4  UNK     1      30.600  -3.863  38.181  1.00  0.00    -0.275 OA
HETATM   11  C9  UNK     1      32.168  -4.949  35.040  1.00  0.00     0.027 A 
HETATM   12  C15 UNK     1      29.682  -4.273  39.142  1.00  0.00     0.288 A 
HETATM   13  C14 UNK     1      29.049  -5.590  38.939  1.00  0.00     0.083 A 
HETATM   14  O5  UNK     1      29.407  -3.579  40.116  1.00  0.00    -0.260 OA
ENDBRANCH   1   4
BRANCH   1  15
HETATM   15  N1  UNK     1      33.688  -7.009  33.488  1.00  0.00    -0.206 NA
HETATM   16  C4  UNK     1      34.380  -7.807  34.540  1.00  0.00     0.108 C 
HETATM   17  C2  UNK     1      35.809  -7.300  34.709  1.00  0.00     0.029 C 
HETATM   18  C1  UNK     1      36.591  -7.288  33.395  1.00  0.00     0.080 C 
HETATM   19  C3  UNK     1      35.799  -6.626  32.267  1.00  0.00     0.029 C 
HETATM   20  C5  UNK     1      34.362  -7.133  32.164  1.00  0.00     0.108 C 
BRANCH  18  21
HETATM   21  C6  UNK     1      37.007  -8.682  33.022  1.00  0.00     0.219 C 
HETATM   22  O3  UNK     1      37.032  -9.065  31.854  1.00  0.00    -0.273 OA
HETATM   23  N2  UNK     1      37.327  -9.472  34.099  1.00  0.00    -0.370 N 
HETATM   24  H12 UNK     1      37.624 -10.434  33.966  1.00  0.00     0.159 HD
HETATM   25  H13 UNK     1      37.246  -9.156  35.059  1.00  0.00     0.159 HD
ENDBRANCH  18  21
ENDBRANCH   1  15
TORSDOF 3
ENDMDL
MODEL 8
REMARK VINA RESULT:      -7.7      7.034      9.828
REMARK  3 active torsions:
REMARK  status: ('A' for Active; 'I' for Inactive)
REMARK    1  A    between atoms: C7_15  and  S1_1 
REMARK    2  A    between atoms: N1_7  and  S1_1 
REMARK       I    between atoms: C6_14  and  N2_8 
REMARK    3  A    between atoms: C1_9  and  C6_14 
ROOT
HETATM    1  S1  UNK     1      18.867   5.991  30.869  1.00  0.00     0.243 S 
HETATM    2  O1  UNK     1      20.249   6.174  30.482  1.00  0.00    -0.206 OA
HETATM    3  O2  UNK     1      17.788   6.254  29.940  1.00  0.00    -0.206 OA
ENDROOT
BRANCH   1   4
HETATM    4  C7  UNK     1      18.686   4.337  31.460  1.00  0.00     0.075 A 
HETATM    5  C8  UNK     1      18.472   4.121  32.815  1.00  0.00     0.039 A 
HETATM    6  C10 UNK     1      18.328   2.814  33.285  1.00  0.00    -0.001 A 
HETATM    7  C12 UNK     1      18.403   1.761  32.377  1.00  0.00     0.089 A 
HETATM    8  C13 UNK     1      18.101   2.515  34.688  1.00  0.00     0.020 A 
HETATM    9  C11 UNK     1      18.619   1.978  31.018  1.00  0.00     0.040 A 
HETATM   10  O4  UNK     1      18.262   0.427  32.813  1.00  0.00    -0.275 OA
HETATM   11  C9  UNK     1      18.762   3.285  30.557  1.00  0.00     0.027 A 
HETATM   12  C15 UNK     1      18.044   0.117  34.152  1.00  0.00     0.288 A 
HETATM   13  C14 UNK     1      17.969   1.250  35.093  1.00  0.00     0.083 A 
HETATM   14  O5  UNK     1      17.920  -1.040  34.538  1.00  0.00    -0.260 OA
ENDBRANCH   1   4
BRANCH   1  15
HETATM   15  N1  UNK     1      18.573   6.858  32.319  1.00  0.00    -0.206 NA
HETATM   16  C4  UNK     1      19.790   7.355  33.022  1.00  0.00     0.108 C 
HETATM   17  C2  UNK     1      19.428   7.755  34.449  1.00  0.00     0.029 C 
HETATM   18  C1  UNK     1      18.281   8.766  34.507  1.00  0.00     0.080 C 
HETATM   19  C3  UNK     1      17.099   8.337  33.635  1.00  0.00     0.029 C 
HETATM   20  C5  UNK     1      17.515   7.903  32.231  1.00  0.00     0.108 C 
BRANCH  18  21
HETATM   21  C6  UNK     1      18.770  10.133  34.125  1.00  0.00     0.219 C 
HETATM   22  O3  UNK     1      18.064  10.930  33.510  1.00  0.00    -0.273 OA
HETATM   23  N2  UNK     1      20.066  10.384  34.507  1.00  0.00    -0.370 N 
HETATM   24  H12 UNK     1      20.501  11.279  34.302  1.00  0.00     0.159 HD
HETATM   25  H13 UNK     1      20.651   9.694  34.963  1.00  0.00     0.159 HD
ENDBRANCH  18  21
ENDBRANCH   1  15
TORSDOF 3
ENDMDL
MODEL 9
REMARK VINA RESULT:      -7.6     29.017     30.639
REMARK  3 active torsions:
REMARK  status: ('A' for Active; 'I' for Inactive)
REMARK    1  A    between atoms: C7_15  and  S1_1 
REMARK    2  A    between atoms: N1_7  and  S1_1 
REMARK       I    between atoms: C6_14  and  N2_8 
REMARK    3  A    between atoms: C1_9  and  C6_14 
ROOT
HETATM    1  S1  UNK     1      12.842   6.154   7.864  1.00  0.00     0.243 S 
HETATM    2  O1  UNK     1      13.065   4.729   7.969  1.00  0.00    -0.206 OA
HETATM    3  O2  UNK     1      12.981   6.841   6.598  1.00  0.00    -0.206 OA
ENDROOT
BRANCH   1   4
HETATM    4  C7  UNK     1      11.228   6.496   8.494  1.00  0.00     0.075 A 
HETATM    5  C8  UNK     1      10.427   5.441   8.913  1.00  0.00     0.039 A 
HETATM    6  C10 UNK     1       9.150   5.708   9.412  1.00  0.00    -0.001 A 
HETATM    7  C12 UNK     1       8.716   7.029   9.475  1.00  0.00     0.089 A 
HETATM    8  C13 UNK     1       8.260   4.655   9.868  1.00  0.00     0.020 A 
HETATM    9  C11 UNK     1       9.520   8.087   9.054  1.00  0.00     0.040 A 
HETATM   10  O4  UNK     1       7.434   7.340   9.974  1.00  0.00    -0.275 OA
HETATM   11  C9  UNK     1      10.792   7.812   8.558  1.00  0.00     0.027 A 
HETATM   12  C15 UNK     1       6.564   6.348  10.417  1.00  0.00     0.288 A 
HETATM   13  C14 UNK     1       7.048   4.957  10.339  1.00  0.00     0.083 A 
HETATM   14  O5  UNK     1       5.448   6.610  10.852  1.00  0.00    -0.260 OA
ENDBRANCH   1   4
BRANCH   1  15
HETATM   15  N1  UNK     1      13.796   6.958   9.040  1.00  0.00    -0.206 NA
HETATM   16  C4  UNK     1      14.879   6.137   9.651  1.00  0.00     0.108 C 
HETATM   17  C2  UNK     1      15.386   6.821  10.918  1.00  0.00     0.029 C 
HETATM   18  C1  UNK     1      15.831   8.264  10.672  1.00  0.00     0.080 C 
HETATM   19  C3  UNK     1      14.788   9.055   9.882  1.00  0.00     0.029 C 
HETATM   20  C5  UNK     1      14.278   8.313   8.649  1.00  0.00     0.108 C 
BRANCH  18  21
HETATM   21  C6  UNK     1      17.166   8.289   9.986  1.00  0.00     0.219 C 
HETATM   22  O3  UNK     1      17.529   9.242   9.299  1.00  0.00    -0.273 OA
HETATM   23  N2  UNK     1      17.912   7.152  10.184  1.00  0.00    -0.370 N 
HETATM   24  H12 UNK     1      18.834   7.059   9.768  1.00  0.00     0.159 HD
HETATM   25  H13 UNK     1      17.572   6.353  10.707  1.00  0.00     0.159 HD
ENDBRANCH  18  21
ENDBRANCH   1  15
TORSDOF 3
ENDMDL
MODEL 10
REMARK VINA RESULT:      -7.6     13.092     14.838
REMARK  3 active torsions:
REMARK  status: ('A' for Active; 'I' for Inactive)
REMARK    1  A    between atoms: C7_15  and  S1_1 
REMARK    2  A    between atoms: N1_7  and  S1_1 
REMARK       I    between atoms: C6_14  and  N2_8 
REMARK    3  A    between atoms: C1_9  and  C6_14 
ROOT
HETATM    1  S1  UNK     1      33.311  -7.567  36.946  1.00  0.00     0.243 S 
HETATM    2  O1  UNK     1      32.701  -8.878  36.907  1.00  0.00    -0.206 OA
HETATM    3  O2  UNK     1      34.297  -7.232  37.951  1.00  0.00    -0.206 OA
ENDROOT
BRANCH   1   4
HETATM    4  C7  UNK     1      34.021  -7.253  35.361  1.00  0.00     0.075 A 
HETATM    5  C8  UNK     1      33.307  -7.594  34.219  1.00  0.00     0.039 A 
HETATM    6  C10 UNK     1      33.865  -7.347  32.963  1.00  0.00    -0.001 A 
HETATM    7  C12 UNK     1      35.128  -6.763  32.892  1.00  0.00     0.089 A 
HETATM    8  C13 UNK     1      33.175  -7.677  31.729  1.00  0.00     0.020 A 
HETATM    9  C11 UNK     1      35.844  -6.423  34.038  1.00  0.00     0.040 A 
HETATM   10  O4  UNK     1      35.725  -6.496  31.643  1.00  0.00    -0.275 OA
HETATM   11  C9  UNK     1      35.280  -6.672  35.286  1.00  0.00     0.027 A 
HETATM   12  C15 UNK     1      35.083  -6.804  30.448  1.00  0.00     0.288 A 
HETATM   13  C14 UNK     1      33.747  -7.421  30.550  1.00  0.00     0.083 A 
HETATM   14  O5  UNK     1      35.595  -6.575  29.357  1.00  0.00    -0.260 OA
ENDBRANCH   1   4
BRANCH   1  15
HETATM   15  N1  UNK     1      32.078  -6.377  36.961  1.00  0.00    -0.206 NA
HETATM   16  C4  UNK     1      30.690  -6.898  37.114  1.00  0.00     0.108 C 
HETATM   17  C2  UNK     1      29.691  -5.811  36.731  1.00  0.00     0.029 C 
HETATM   18  C1  UNK     1      29.902  -4.512  37.511  1.00  0.00     0.080 C 
HETATM   19  C3  UNK     1      31.368  -4.075  37.503  1.00  0.00     0.029 C 
HETATM   20  C5  UNK     1      32.334  -5.207  37.848  1.00  0.00     0.108 C 
BRANCH  18  21
HETATM   21  C6  UNK     1      29.386  -4.655  38.913  1.00  0.00     0.219 C 
HETATM   22  O3  UNK     1      29.693  -3.866  39.805  1.00  0.00    -0.273 OA
HETATM   23  N2  UNK     1      28.570  -5.745  39.095  1.00  0.00    -0.370 N 
HETATM   24  H12 UNK     1      28.161  -5.941  40.004  1.00  0.00     0.159 HD
HETATM   25  H13 UNK     1      28.374  -6.416  38.361  1.00  0.00     0.159 HD
ENDBRANCH  18  21
ENDBRANCH   1  15
TORSDOF 3
ENDMDL
