MODEL 1
REMARK VINA RESULT:      -8.9      0.000      0.000
REMARK  5 active torsions:
REMARK  status: ('A' for Active; 'I' for Inactive)
REMARK    1  A    between atoms: C15_23  and  O3_5 
REMARK    2  A    between atoms: C22_30  and  O3_5 
REMARK    3  A    between atoms: C5_13  and  N1_7 
REMARK       I    between atoms: C7_15  and  N2_8 
REMARK    4  A    between atoms: C5_13  and  C6_14 
REMARK    5  A    between atoms: C10_18  and  C7_15 
ROOT
HETATM    1  O2  UNK     1      32.738  -5.222  38.531  1.00  0.00    -0.267 OA
HETATM    2  N1  UNK     1      32.936  -7.078  33.909  1.00  0.00     0.095 N 
HETATM    3  N2  UNK     1      32.153  -5.775  36.337  1.00  0.00    -0.344 N 
HETATM    4  C1  UNK     1      31.603  -7.314  34.483  1.00  0.00     0.292 C 
HETATM    5  C2  UNK     1      33.918  -6.836  34.977  1.00  0.00     0.292 C 
HETATM    6  C3  UNK     1      31.146  -6.123  35.327  1.00  0.00     0.156 C 
HETATM    7  C4  UNK     1      33.511  -5.627  35.819  1.00  0.00     0.156 C 
HETATM    8  C7  UNK     1      31.896  -5.514  37.685  1.00  0.00     0.260 C 
ENDROOT
BRANCH   2   9
HETATM    9  C5  UNK     1      33.347  -8.211  33.081  1.00  0.00     0.312 C 
BRANCH   9  10
HETATM   10  C6  UNK     1      33.448  -7.845  31.640  1.00  0.00    -0.011 A 
HETATM   11  C8  UNK     1      32.284  -8.015  30.759  1.00  0.00     0.009 A 
HETATM   12  C11 UNK     1      32.408  -7.663  29.414  1.00  0.00     0.090 A 
HETATM   13  C12 UNK     1      31.047  -8.513  31.188  1.00  0.00     0.051 A 
HETATM   14  C14 UNK     1      31.354  -7.793  28.508  1.00  0.00     0.041 A 
HETATM   15  O1  UNK     1      33.620  -7.154  28.902  1.00  0.00    -0.275 OA
HETATM   16  C18 UNK     1      30.134  -8.289  28.956  1.00  0.00     0.039 A 
HETATM   17  C15 UNK     1      29.981  -8.648  30.293  1.00  0.00     0.069 A 
HETATM   18  C13 UNK     1      34.733  -6.982  29.711  1.00  0.00     0.288 A 
HETATM   19  O4  UNK     1      35.790  -6.539  29.276  1.00  0.00    -0.260 OA
HETATM   20  C9  UNK     1      34.587  -7.358  31.127  1.00  0.00     0.092 A 
BRANCH  17  21
HETATM   21  O3  UNK     1      28.786  -9.134  30.732  1.00  0.00    -0.351 OA
BRANCH  21  22
HETATM   22  C22 UNK     1      27.609  -8.613  30.118  1.00  0.00     0.171 C 
HETATM   23  C23 UNK     1      27.188  -7.354  30.846  1.00  0.00     0.034 C 
ENDBRANCH  21  22
ENDBRANCH  17  21
ENDBRANCH   9  10
ENDBRANCH   2   9
BRANCH   8  24
HETATM   24  C10 UNK     1      30.503  -5.580  38.151  1.00  0.00     0.109 A 
HETATM   25  C16 UNK     1      29.959  -6.801  38.550  1.00  0.00     0.135 A 
HETATM   26  C19 UNK     1      28.638  -6.865  38.992  1.00  0.00     0.043 A 
HETATM   27  F1  UNK     1      30.699  -7.920  38.513  1.00  0.00    -0.205 F 
HETATM   28  C21 UNK     1      27.861  -5.708  39.035  1.00  0.00     0.006 A 
HETATM   29  C20 UNK     1      28.405  -4.487  38.636  1.00  0.00     0.043 A 
HETATM   30  C17 UNK     1      29.726  -4.423  38.194  1.00  0.00     0.135 A 
HETATM   31  F2  UNK     1      30.238  -3.244  37.812  1.00  0.00    -0.205 F 
ENDBRANCH   8  24
TORSDOF 5
ENDMDL
MODEL 2
REMARK VINA RESULT:      -8.9      0.177      1.496
REMARK  5 active torsions:
REMARK  status: ('A' for Active; 'I' for Inactive)
REMARK    1  A    between atoms: C15_23  and  O3_5 
REMARK    2  A    between atoms: C22_30  and  O3_5 
REMARK    3  A    between atoms: C5_13  and  N1_7 
REMARK       I    between atoms: C7_15  and  N2_8 
REMARK    4  A    between atoms: C5_13  and  C6_14 
REMARK    5  A    between atoms: C10_18  and  C7_15 
ROOT
HETATM    1  O2  UNK     1      32.745  -5.159  38.574  1.00  0.00    -0.267 OA
HETATM    2  N1  UNK     1      33.010  -6.985  33.943  1.00  0.00     0.095 N 
HETATM    3  N2  UNK     1      32.186  -5.710  36.372  1.00  0.00    -0.344 N 
HETATM    4  C1  UNK     1      31.678  -7.249  34.506  1.00  0.00     0.292 C 
HETATM    5  C2  UNK     1      33.980  -6.731  35.020  1.00  0.00     0.292 C 
HETATM    6  C3  UNK     1      31.193  -6.071  35.354  1.00  0.00     0.156 C 
HETATM    7  C4  UNK     1      33.544  -5.535  35.865  1.00  0.00     0.156 C 
HETATM    8  C7  UNK     1      31.914  -5.461  37.720  1.00  0.00     0.260 C 
ENDROOT
BRANCH   2   9
HETATM    9  C5  UNK     1      33.449  -8.106  33.112  1.00  0.00     0.312 C 
BRANCH   9  10
HETATM   10  C6  UNK     1      33.528  -7.737  31.671  1.00  0.00    -0.011 A 
HETATM   11  C8  UNK     1      32.333  -7.840  30.822  1.00  0.00     0.009 A 
HETATM   12  C11 UNK     1      32.437  -7.488  29.475  1.00  0.00     0.090 A 
HETATM   13  C12 UNK     1      31.084  -8.274  31.284  1.00  0.00     0.051 A 
HETATM   14  C14 UNK     1      31.353  -7.556  28.599  1.00  0.00     0.041 A 
HETATM   15  O1  UNK     1      33.659  -7.040  28.932  1.00  0.00    -0.275 OA
HETATM   16  C18 UNK     1      30.121  -7.990  29.080  1.00  0.00     0.039 A 
HETATM   17  C15 UNK     1      29.986  -8.348  30.419  1.00  0.00     0.069 A 
HETATM   18  C13 UNK     1      34.802  -6.932  29.709  1.00  0.00     0.288 A 
HETATM   19  O4  UNK     1      35.868  -6.543  29.247  1.00  0.00    -0.260 OA
HETATM   20  C9  UNK     1      34.676  -7.308  31.127  1.00  0.00     0.092 A 
BRANCH  17  21
HETATM   21  O3  UNK     1      28.780  -8.772  30.890  1.00  0.00    -0.351 OA
BRANCH  21  22
HETATM   22  C22 UNK     1      27.650  -8.588  30.039  1.00  0.00     0.171 C 
HETATM   23  C23 UNK     1      26.871  -7.378  30.510  1.00  0.00     0.034 C 
ENDBRANCH  21  22
ENDBRANCH  17  21
ENDBRANCH   9  10
ENDBRANCH   2   9
BRANCH   8  24
HETATM   24  C10 UNK     1      30.520  -5.557  38.175  1.00  0.00     0.109 A 
HETATM   25  C16 UNK     1      29.724  -4.412  38.230  1.00  0.00     0.135 A 
HETATM   26  C19 UNK     1      28.401  -4.502  38.663  1.00  0.00     0.043 A 
HETATM   27  F1  UNK     1      30.222  -3.220  37.868  1.00  0.00    -0.205 F 
HETATM   28  C21 UNK     1      27.874  -5.737  39.041  1.00  0.00     0.006 A 
HETATM   29  C20 UNK     1      28.670  -6.881  38.986  1.00  0.00     0.043 A 
HETATM   30  C17 UNK     1      29.993  -6.791  38.553  1.00  0.00     0.135 A 
HETATM   31  F2  UNK     1      30.749  -7.898  38.506  1.00  0.00    -0.205 F 
ENDBRANCH   8  24
TORSDOF 5
ENDMDL
MODEL 3
REMARK VINA RESULT:      -8.8     11.287     13.795
REMARK  5 active torsions:
REMARK  status: ('A' for Active; 'I' for Inactive)
REMARK    1  A    between atoms: C15_23  and  O3_5 
REMARK    2  A    between atoms: C22_30  and  O3_5 
REMARK    3  A    between atoms: C5_13  and  N1_7 
REMARK       I    between atoms: C7_15  and  N2_8 
REMARK    4  A    between atoms: C5_13  and  C6_14 
REMARK    5  A    between atoms: C10_18  and  C7_15 
ROOT
HETATM    1  O2  UNK     1      22.783  -7.271  38.445  1.00  0.00    -0.267 OA
HETATM    2  N1  UNK     1      19.769  -3.873  36.393  1.00  0.00     0.095 N 
HETATM    3  N2  UNK     1      20.854  -6.163  37.729  1.00  0.00    -0.344 N 
HETATM    4  C1  UNK     1      19.299  -5.224  36.053  1.00  0.00     0.292 C 
HETATM    5  C2  UNK     1      21.187  -3.907  36.784  1.00  0.00     0.292 C 
HETATM    6  C3  UNK     1      19.473  -6.183  37.233  1.00  0.00     0.156 C 
HETATM    7  C4  UNK     1      21.391  -4.829  37.986  1.00  0.00     0.156 C 
HETATM    8  C7  UNK     1      21.626  -7.287  38.030  1.00  0.00     0.260 C 
ENDROOT
BRANCH   2   9
HETATM    9  C5  UNK     1      19.569  -2.961  35.268  1.00  0.00     0.312 C 
BRANCH   9  10
HETATM   10  C6  UNK     1      19.012  -1.649  35.701  1.00  0.00    -0.011 A 
HETATM   11  C8  UNK     1      18.767  -0.593  34.708  1.00  0.00     0.009 A 
HETATM   12  C11 UNK     1      18.245   0.625  35.143  1.00  0.00     0.090 A 
HETATM   13  C12 UNK     1      19.029  -0.735  33.339  1.00  0.00     0.051 A 
HETATM   14  C14 UNK     1      17.983   1.681  34.268  1.00  0.00     0.041 A 
HETATM   15  O1  UNK     1      17.953   0.848  36.505  1.00  0.00    -0.275 OA
HETATM   16  C18 UNK     1      18.250   1.518  32.912  1.00  0.00     0.039 A 
HETATM   17  C15 UNK     1      18.772   0.313  32.449  1.00  0.00     0.069 A 
HETATM   18  C13 UNK     1      18.172  -0.130  37.463  1.00  0.00     0.288 A 
HETATM   19  O4  UNK     1      17.921   0.054  38.648  1.00  0.00    -0.260 OA
HETATM   20  C9  UNK     1      18.725  -1.409  36.988  1.00  0.00     0.092 A 
BRANCH  17  21
HETATM   21  O3  UNK     1      19.033   0.153  31.121  1.00  0.00    -0.351 OA
BRANCH  21  22
HETATM   22  C22 UNK     1      20.383  -0.126  30.754  1.00  0.00     0.171 C 
HETATM   23  C23 UNK     1      20.405  -0.703  29.355  1.00  0.00     0.034 C 
ENDBRANCH  21  22
ENDBRANCH  17  21
ENDBRANCH   9  10
ENDBRANCH   2   9
BRANCH   8  24
HETATM   24  C10 UNK     1      21.020  -8.614  37.847  1.00  0.00     0.109 A 
HETATM   25  C16 UNK     1      21.360  -9.389  36.738  1.00  0.00     0.135 A 
HETATM   26  C19 UNK     1      20.784 -10.648  36.565  1.00  0.00     0.043 A 
HETATM   27  F1  UNK     1      22.239  -8.934  35.834  1.00  0.00    -0.205 F 
HETATM   28  C21 UNK     1      19.870 -11.131  37.500  1.00  0.00     0.006 A 
HETATM   29  C20 UNK     1      19.530 -10.355  38.608  1.00  0.00     0.043 A 
HETATM   30  C17 UNK     1      20.105  -9.097  38.782  1.00  0.00     0.135 A 
HETATM   31  F2  UNK     1      19.771  -8.360  39.851  1.00  0.00    -0.205 F 
ENDBRANCH   8  24
TORSDOF 5
ENDMDL
MODEL 4
REMARK VINA RESULT:      -8.6      3.740      9.003
REMARK  5 active torsions:
REMARK  status: ('A' for Active; 'I' for Inactive)
REMARK    1  A    between atoms: C15_23  and  O3_5 
REMARK    2  A    between atoms: C22_30  and  O3_5 
REMARK    3  A    between atoms: C5_13  and  N1_7 
REMARK       I    between atoms: C7_15  and  N2_8 
REMARK    4  A    between atoms: C5_13  and  C6_14 
REMARK    5  A    between atoms: C10_18  and  C7_15 
ROOT
HETATM    1  O2  UNK     1      28.051  -6.009  29.972  1.00  0.00    -0.267 OA
HETATM    2  N1  UNK     1      28.984  -7.475  34.644  1.00  0.00     0.095 N 
HETATM    3  N2  UNK     1      29.074  -7.014  31.818  1.00  0.00    -0.344 N 
HETATM    4  C1  UNK     1      29.224  -8.591  33.716  1.00  0.00     0.292 C 
HETATM    5  C2  UNK     1      28.106  -6.472  34.023  1.00  0.00     0.292 C 
HETATM    6  C3  UNK     1      29.862  -8.099  32.415  1.00  0.00     0.156 C 
HETATM    7  C4  UNK     1      28.731  -5.932  32.738  1.00  0.00     0.156 C 
HETATM    8  C7  UNK     1      28.711  -6.918  30.473  1.00  0.00     0.260 C 
ENDROOT
BRANCH   2   9
HETATM    9  C5  UNK     1      28.402  -7.963  35.894  1.00  0.00     0.312 C 
BRANCH   9  10
HETATM   10  C6  UNK     1      28.404  -6.920  36.958  1.00  0.00    -0.011 A 
HETATM   11  C8  UNK     1      29.674  -6.325  37.398  1.00  0.00     0.009 A 
HETATM   12  C11 UNK     1      29.645  -5.350  38.396  1.00  0.00     0.090 A 
HETATM   13  C12 UNK     1      30.924  -6.680  36.873  1.00  0.00     0.051 A 
HETATM   14  C14 UNK     1      30.803  -4.734  38.873  1.00  0.00     0.041 A 
HETATM   15  O1  UNK     1      28.427  -4.937  38.975  1.00  0.00    -0.275 OA
HETATM   16  C18 UNK     1      32.034  -5.101  38.337  1.00  0.00     0.039 A 
HETATM   17  C15 UNK     1      32.094  -6.071  37.340  1.00  0.00     0.069 A 
HETATM   18  C13 UNK     1      27.215  -5.479  38.579  1.00  0.00     0.288 A 
HETATM   19  O4  UNK     1      26.151  -5.126  39.075  1.00  0.00    -0.260 OA
HETATM   20  C9  UNK     1      27.262  -6.507  37.526  1.00  0.00     0.092 A 
BRANCH  17  21
HETATM   21  O3  UNK     1      33.299  -6.430  36.815  1.00  0.00    -0.351 OA
BRANCH  21  22
HETATM   22  C22 UNK     1      34.158  -5.378  36.382  1.00  0.00     0.171 C 
HETATM   23  C23 UNK     1      33.672  -4.863  35.045  1.00  0.00     0.034 C 
ENDBRANCH  21  22
ENDBRANCH  17  21
ENDBRANCH   9  10
ENDBRANCH   2   9
BRANCH   8  24
HETATM   24  C10 UNK     1      29.153  -7.980  29.558  1.00  0.00     0.109 A 
HETATM   25  C16 UNK     1      30.397  -7.890  28.934  1.00  0.00     0.135 A 
HETATM   26  C19 UNK     1      30.817  -8.897  28.065  1.00  0.00     0.043 A 
HETATM   27  F1  UNK     1      31.199  -6.839  29.163  1.00  0.00    -0.205 F 
HETATM   28  C21 UNK     1      29.992  -9.994  27.821  1.00  0.00     0.006 A 
HETATM   29  C20 UNK     1      28.747 -10.084  28.445  1.00  0.00     0.043 A 
HETATM   30  C17 UNK     1      28.328  -9.077  29.313  1.00  0.00     0.135 A 
HETATM   31  F2  UNK     1      27.129  -9.174  29.907  1.00  0.00    -0.205 F 
ENDBRANCH   8  24
TORSDOF 5
ENDMDL
MODEL 5
REMARK VINA RESULT:      -8.6      3.547      8.698
REMARK  5 active torsions:
REMARK  status: ('A' for Active; 'I' for Inactive)
REMARK    1  A    between atoms: C15_23  and  O3_5 
REMARK    2  A    between atoms: C22_30  and  O3_5 
REMARK    3  A    between atoms: C5_13  and  N1_7 
REMARK       I    between atoms: C7_15  and  N2_8 
REMARK    4  A    between atoms: C5_13  and  C6_14 
REMARK    5  A    between atoms: C10_18  and  C7_15 
ROOT
HETATM    1  O2  UNK     1      27.992  -6.077  30.047  1.00  0.00    -0.267 OA
HETATM    2  N1  UNK     1      29.803  -7.101  34.577  1.00  0.00     0.095 N 
HETATM    3  N2  UNK     1      29.401  -6.828  31.754  1.00  0.00    -0.344 N 
HETATM    4  C1  UNK     1      30.035  -8.242  33.679  1.00  0.00     0.292 C 
HETATM    5  C2  UNK     1      28.722  -6.250  34.055  1.00  0.00     0.292 C 
HETATM    6  C3  UNK     1      30.400  -7.771  32.270  1.00  0.00     0.156 C 
HETATM    7  C4  UNK     1      29.071  -5.731  32.661  1.00  0.00     0.156 C 
HETATM    8  C7  UNK     1      28.828  -6.867  30.481  1.00  0.00     0.260 C 
ENDROOT
BRANCH   2   9
HETATM    9  C5  UNK     1      29.485  -7.565  35.927  1.00  0.00     0.312 C 
BRANCH   9  10
HETATM   10  C6  UNK     1      29.948  -6.610  36.972  1.00  0.00    -0.011 A 
HETATM   11  C8  UNK     1      31.386  -6.377  37.166  1.00  0.00     0.009 A 
HETATM   12  C11 UNK     1      31.790  -5.476  38.152  1.00  0.00     0.090 A 
HETATM   13  C12 UNK     1      32.386  -7.010  36.415  1.00  0.00     0.051 A 
HETATM   14  C14 UNK     1      33.135  -5.197  38.403  1.00  0.00     0.041 A 
HETATM   15  O1  UNK     1      30.846  -4.798  38.950  1.00  0.00    -0.275 OA
HETATM   16  C18 UNK     1      34.112  -5.836  37.645  1.00  0.00     0.039 A 
HETATM   17  C15 UNK     1      33.738  -6.740  36.654  1.00  0.00     0.069 A 
HETATM   18  C13 UNK     1      29.484  -4.996  38.789  1.00  0.00     0.288 A 
HETATM   19  O4  UNK     1      28.655  -4.411  39.477  1.00  0.00    -0.260 OA
HETATM   20  C9  UNK     1      29.073  -5.950  37.745  1.00  0.00     0.092 A 
BRANCH  17  21
HETATM   21  O3  UNK     1      34.694  -7.366  35.912  1.00  0.00    -0.351 OA
BRANCH  21  22
HETATM   22  C22 UNK     1      35.746  -6.555  35.392  1.00  0.00     0.171 C 
HETATM   23  C23 UNK     1      36.716  -7.433  34.632  1.00  0.00     0.034 C 
ENDBRANCH  21  22
ENDBRANCH  17  21
ENDBRANCH   9  10
ENDBRANCH   2   9
BRANCH   8  24
HETATM   24  C10 UNK     1      29.254  -7.932  29.561  1.00  0.00     0.109 A 
HETATM   25  C16 UNK     1      28.437  -9.043  29.355  1.00  0.00     0.135 A 
HETATM   26  C19 UNK     1      28.840 -10.054  28.482  1.00  0.00     0.043 A 
HETATM   27  F1  UNK     1      27.260  -9.149  29.990  1.00  0.00    -0.205 F 
HETATM   28  C21 UNK     1      30.061  -9.953  27.816  1.00  0.00     0.006 A 
HETATM   29  C20 UNK     1      30.878  -8.841  28.022  1.00  0.00     0.043 A 
HETATM   30  C17 UNK     1      30.474  -7.831  28.895  1.00  0.00     0.135 A 
HETATM   31  F2  UNK     1      31.269  -6.767  29.085  1.00  0.00    -0.205 F 
ENDBRANCH   8  24
TORSDOF 5
ENDMDL
MODEL 6
REMARK VINA RESULT:      -8.6      1.275      1.617
REMARK  5 active torsions:
REMARK  status: ('A' for Active; 'I' for Inactive)
REMARK    1  A    between atoms: C15_23  and  O3_5 
REMARK    2  A    between atoms: C22_30  and  O3_5 
REMARK    3  A    between atoms: C5_13  and  N1_7 
REMARK       I    between atoms: C7_15  and  N2_8 
REMARK    4  A    between atoms: C5_13  and  C6_14 
REMARK    5  A    between atoms: C10_18  and  C7_15 
ROOT
HETATM    1  O2  UNK     1      32.811  -5.085  38.558  1.00  0.00    -0.267 OA
HETATM    2  N1  UNK     1      33.296  -7.144  34.044  1.00  0.00     0.095 N 
HETATM    3  N2  UNK     1      32.342  -5.781  36.376  1.00  0.00    -0.344 N 
HETATM    4  C1  UNK     1      31.962  -7.442  34.586  1.00  0.00     0.292 C 
HETATM    5  C2  UNK     1      34.221  -6.785  35.130  1.00  0.00     0.292 C 
HETATM    6  C3  UNK     1      31.398  -6.245  35.353  1.00  0.00     0.156 C 
HETATM    7  C4  UNK     1      33.705  -5.568  35.896  1.00  0.00     0.156 C 
HETATM    8  C7  UNK     1      32.020  -5.473  37.700  1.00  0.00     0.260 C 
ENDROOT
BRANCH   2   9
HETATM    9  C5  UNK     1      33.811  -8.285  33.288  1.00  0.00     0.312 C 
BRANCH   9  10
HETATM   10  C6  UNK     1      33.858  -8.013  31.824  1.00  0.00    -0.011 A 
HETATM   11  C8  UNK     1      32.858  -8.620  30.934  1.00  0.00     0.009 A 
HETATM   12  C11 UNK     1      32.927  -8.346  29.567  1.00  0.00     0.090 A 
HETATM   13  C12 UNK     1      31.832  -9.465  31.376  1.00  0.00     0.051 A 
HETATM   14  C14 UNK     1      32.019  -8.881  28.652  1.00  0.00     0.041 A 
HETATM   15  O1  UNK     1      33.930  -7.505  29.042  1.00  0.00    -0.275 OA
HETATM   16  C18 UNK     1      31.007  -9.717  29.113  1.00  0.00     0.039 A 
HETATM   17  C15 UNK     1      30.913 -10.008  30.471  1.00  0.00     0.069 A 
HETATM   18  C13 UNK     1      34.884  -6.918  29.858  1.00  0.00     0.288 A 
HETATM   19  O4  UNK     1      35.759  -6.185  29.412  1.00  0.00    -0.260 OA
HETATM   20  C9  UNK     1      34.799  -7.217  31.297  1.00  0.00     0.092 A 
BRANCH  17  21
HETATM   21  O3  UNK     1      29.922 -10.827  30.923  1.00  0.00    -0.351 OA
BRANCH  21  22
HETATM   22  C22 UNK     1      30.321 -12.041  31.557  1.00  0.00     0.171 C 
HETATM   23  C23 UNK     1      30.316 -13.156  30.534  1.00  0.00     0.034 C 
ENDBRANCH  21  22
ENDBRANCH  17  21
ENDBRANCH   9  10
ENDBRANCH   2   9
BRANCH   8  24
HETATM   24  C10 UNK     1      30.620  -5.612  38.123  1.00  0.00     0.109 A 
HETATM   25  C16 UNK     1      30.126  -6.859  38.504  1.00  0.00     0.135 A 
HETATM   26  C19 UNK     1      28.797  -6.991  38.905  1.00  0.00     0.043 A 
HETATM   27  F1  UNK     1      30.921  -7.939  38.488  1.00  0.00    -0.205 F 
HETATM   28  C21 UNK     1      27.961  -5.875  38.926  1.00  0.00     0.006 A 
HETATM   29  C20 UNK     1      28.455  -4.627  38.546  1.00  0.00     0.043 A 
HETATM   30  C17 UNK     1      29.784  -4.495  38.144  1.00  0.00     0.135 A 
HETATM   31  F2  UNK     1      30.248  -3.291  37.780  1.00  0.00    -0.205 F 
ENDBRANCH   8  24
TORSDOF 5
ENDMDL
MODEL 7
REMARK VINA RESULT:      -8.6      2.563      3.048
REMARK  5 active torsions:
REMARK  status: ('A' for Active; 'I' for Inactive)
REMARK    1  A    between atoms: C15_23  and  O3_5 
REMARK    2  A    between atoms: C22_30  and  O3_5 
REMARK    3  A    between atoms: C5_13  and  N1_7 
REMARK       I    between atoms: C7_15  and  N2_8 
REMARK    4  A    between atoms: C5_13  and  C6_14 
REMARK    5  A    between atoms: C10_18  and  C7_15 
ROOT
HETATM    1  O2  UNK     1      32.562  -7.704  38.480  1.00  0.00    -0.267 OA
HETATM    2  N1  UNK     1      31.287  -9.612  34.055  1.00  0.00     0.095 N 
HETATM    3  N2  UNK     1      31.719  -7.897  36.308  1.00  0.00    -0.344 N 
HETATM    4  C1  UNK     1      30.199  -8.763  34.562  1.00  0.00     0.292 C 
HETATM    5  C2  UNK     1      32.164 -10.035  35.158  1.00  0.00     0.292 C 
HETATM    6  C3  UNK     1      30.751  -7.524  35.271  1.00  0.00     0.156 C 
HETATM    7  C4  UNK     1      32.762  -8.820  35.866  1.00  0.00     0.156 C 
HETATM    8  C7  UNK     1      31.751  -7.392  37.610  1.00  0.00     0.260 C 
ENDROOT
BRANCH   2   9
HETATM    9  C5  UNK     1      30.747 -10.776  33.354  1.00  0.00     0.312 C 
BRANCH   9  10
HETATM   10  C6  UNK     1      31.110 -10.780  31.909  1.00  0.00    -0.011 A 
HETATM   11  C8  UNK     1      30.227 -10.127  30.931  1.00  0.00     0.009 A 
HETATM   12  C11 UNK     1      30.594 -10.146  29.584  1.00  0.00     0.090 A 
HETATM   13  C12 UNK     1      29.031  -9.483  31.269  1.00  0.00     0.051 A 
HETATM   14  C14 UNK     1      29.815  -9.552  28.590  1.00  0.00     0.041 A 
HETATM   15  O1  UNK     1      31.784 -10.774  29.162  1.00  0.00    -0.275 OA
HETATM   16  C18 UNK     1      28.630  -8.916  28.948  1.00  0.00     0.039 A 
HETATM   17  C15 UNK     1      28.239  -8.881  30.284  1.00  0.00     0.069 A 
HETATM   18  C13 UNK     1      32.635 -11.395  30.062  1.00  0.00     0.288 A 
HETATM   19  O4  UNK     1      33.672 -11.943  29.705  1.00  0.00    -0.260 OA
HETATM   20  C9  UNK     1      32.235 -11.368  31.479  1.00  0.00     0.092 A 
BRANCH  17  21
HETATM   21  O3  UNK     1      27.079  -8.259  30.636  1.00  0.00    -0.351 OA
BRANCH  21  22
HETATM   22  C22 UNK     1      27.080  -6.833  30.629  1.00  0.00     0.171 C 
HETATM   23  C23 UNK     1      27.560  -6.333  31.975  1.00  0.00     0.034 C 
ENDBRANCH  21  22
ENDBRANCH  17  21
ENDBRANCH   9  10
ENDBRANCH   2   9
BRANCH   8  24
HETATM   24  C10 UNK     1      30.742  -6.394  37.992  1.00  0.00     0.109 A 
HETATM   25  C16 UNK     1      31.002  -5.035  37.813  1.00  0.00     0.135 A 
HETATM   26  C19 UNK     1      30.044  -4.088  38.176  1.00  0.00     0.043 A 
HETATM   27  F1  UNK     1      32.170  -4.629  37.293  1.00  0.00    -0.205 F 
HETATM   28  C21 UNK     1      28.827  -4.500  38.717  1.00  0.00     0.006 A 
HETATM   29  C20 UNK     1      28.567  -5.859  38.895  1.00  0.00     0.043 A 
HETATM   30  C17 UNK     1      29.524  -6.806  38.533  1.00  0.00     0.135 A 
HETATM   31  F2  UNK     1      29.263  -8.109  38.710  1.00  0.00    -0.205 F 
ENDBRANCH   8  24
TORSDOF 5
ENDMDL
MODEL 8
REMARK VINA RESULT:      -8.5      2.504      2.716
REMARK  5 active torsions:
REMARK  status: ('A' for Active; 'I' for Inactive)
REMARK    1  A    between atoms: C15_23  and  O3_5 
REMARK    2  A    between atoms: C22_30  and  O3_5 
REMARK    3  A    between atoms: C5_13  and  N1_7 
REMARK       I    between atoms: C7_15  and  N2_8 
REMARK    4  A    between atoms: C5_13  and  C6_14 
REMARK    5  A    between atoms: C10_18  and  C7_15 
ROOT
HETATM    1  O2  UNK     1      32.846  -7.387  38.292  1.00  0.00    -0.267 OA
HETATM    2  N1  UNK     1      31.400  -9.490  34.010  1.00  0.00     0.095 N 
HETATM    3  N2  UNK     1      31.872  -7.691  36.189  1.00  0.00    -0.344 N 
HETATM    4  C1  UNK     1      30.296  -8.698  34.573  1.00  0.00     0.292 C 
HETATM    5  C2  UNK     1      32.375  -9.827  35.058  1.00  0.00     0.292 C 
HETATM    6  C3  UNK     1      30.812  -7.408  35.214  1.00  0.00     0.156 C 
HETATM    7  C4  UNK     1      32.940  -8.558  35.696  1.00  0.00     0.156 C 
HETATM    8  C7  UNK     1      31.959  -7.151  37.474  1.00  0.00     0.260 C 
ENDROOT
BRANCH   2   9
HETATM    9  C5  UNK     1      30.890 -10.704  33.374  1.00  0.00     0.312 C 
BRANCH   9  10
HETATM   10  C6  UNK     1      31.231 -10.764  31.925  1.00  0.00    -0.011 A 
HETATM   11  C8  UNK     1      30.331 -10.155  30.935  1.00  0.00     0.009 A 
HETATM   12  C11 UNK     1      30.677 -10.227  29.585  1.00  0.00     0.090 A 
HETATM   13  C12 UNK     1      29.137  -9.502  31.266  1.00  0.00     0.051 A 
HETATM   14  C14 UNK     1      29.880  -9.677  28.580  1.00  0.00     0.041 A 
HETATM   15  O1  UNK     1      31.863 -10.867  29.170  1.00  0.00    -0.275 OA
HETATM   16  C18 UNK     1      28.698  -9.031  28.930  1.00  0.00     0.039 A 
HETATM   17  C15 UNK     1      28.327  -8.944  30.270  1.00  0.00     0.069 A 
HETATM   18  C13 UNK     1      32.731 -11.448  30.081  1.00  0.00     0.288 A 
HETATM   19  O4  UNK     1      33.764 -12.006  29.730  1.00  0.00    -0.260 OA
HETATM   20  C9  UNK     1      32.352 -11.365  31.502  1.00  0.00     0.092 A 
BRANCH  17  21
HETATM   21  O3  UNK     1      27.170  -8.313  30.614  1.00  0.00    -0.351 OA
BRANCH  21  22
HETATM   22  C22 UNK     1      27.162  -6.888  30.543  1.00  0.00     0.171 C 
HETATM   23  C23 UNK     1      25.807  -6.425  30.053  1.00  0.00     0.034 C 
ENDBRANCH  21  22
ENDBRANCH  17  21
ENDBRANCH   9  10
ENDBRANCH   2   9
BRANCH   8  24
HETATM   24  C10 UNK     1      30.915  -6.209  37.903  1.00  0.00     0.109 A 
HETATM   25  C16 UNK     1      29.748  -6.686  38.499  1.00  0.00     0.135 A 
HETATM   26  C19 UNK     1      28.757  -5.793  38.906  1.00  0.00     0.043 A 
HETATM   27  F1  UNK     1      29.569  -8.003  38.687  1.00  0.00    -0.205 F 
HETATM   28  C21 UNK     1      28.933  -4.423  38.717  1.00  0.00     0.006 A 
HETATM   29  C20 UNK     1      30.101  -3.946  38.121  1.00  0.00     0.043 A 
HETATM   30  C17 UNK     1      31.092  -4.839  37.714  1.00  0.00     0.135 A 
HETATM   31  F2  UNK     1      32.209  -4.369  37.141  1.00  0.00    -0.205 F 
ENDBRANCH   8  24
TORSDOF 5
ENDMDL
MODEL 9
REMARK VINA RESULT:      -8.5      5.418      8.659
REMARK  5 active torsions:
REMARK  status: ('A' for Active; 'I' for Inactive)
REMARK    1  A    between atoms: C15_23  and  O3_5 
REMARK    2  A    between atoms: C22_30  and  O3_5 
REMARK    3  A    between atoms: C5_13  and  N1_7 
REMARK       I    between atoms: C7_15  and  N2_8 
REMARK    4  A    between atoms: C5_13  and  C6_14 
REMARK    5  A    between atoms: C10_18  and  C7_15 
ROOT
HETATM    1  O2  UNK     1      31.781  -7.994  38.598  1.00  0.00    -0.267 OA
HETATM    2  N1  UNK     1      27.049  -8.887  37.309  1.00  0.00     0.095 N 
HETATM    3  N2  UNK     1      29.810  -8.122  37.349  1.00  0.00    -0.344 N 
HETATM    4  C1  UNK     1      27.464  -7.571  36.799  1.00  0.00     0.292 C 
HETATM    5  C2  UNK     1      27.925  -9.307  38.415  1.00  0.00     0.292 C 
HETATM    6  C3  UNK     1      28.914  -7.600  36.311  1.00  0.00     0.156 C 
HETATM    7  C4  UNK     1      29.379  -9.382  37.950  1.00  0.00     0.156 C 
HETATM    8  C7  UNK     1      31.029  -7.558  37.729  1.00  0.00     0.260 C 
ENDROOT
BRANCH   2   9
HETATM    9  C5  UNK     1      25.653  -8.853  37.745  1.00  0.00     0.312 C 
BRANCH   9  10
HETATM   10  C6  UNK     1      24.797  -9.781  36.955  1.00  0.00    -0.011 A 
HETATM   11  C8  UNK     1      23.406  -9.415  36.652  1.00  0.00     0.009 A 
HETATM   12  C11 UNK     1      22.627 -10.304  35.910  1.00  0.00     0.090 A 
HETATM   13  C12 UNK     1      22.808  -8.217  37.066  1.00  0.00     0.051 A 
HETATM   14  C14 UNK     1      21.298 -10.036  35.578  1.00  0.00     0.041 A 
HETATM   15  O1  UNK     1      23.155 -11.530  35.455  1.00  0.00    -0.275 OA
HETATM   16  C18 UNK     1      20.724  -8.840  35.999  1.00  0.00     0.039 A 
HETATM   17  C15 UNK     1      21.476  -7.933  36.741  1.00  0.00     0.069 A 
HETATM   18  C13 UNK     1      24.464 -11.901  35.725  1.00  0.00     0.288 A 
HETATM   19  O4  UNK     1      24.932 -12.963  35.333  1.00  0.00    -0.260 OA
HETATM   20  C9  UNK     1      25.272 -10.952  36.509  1.00  0.00     0.092 A 
BRANCH  17  21
HETATM   21  O3  UNK     1      20.914  -6.763  37.153  1.00  0.00    -0.351 OA
BRANCH  21  22
HETATM   22  C22 UNK     1      19.722  -6.854  37.930  1.00  0.00     0.171 C 
HETATM   23  C23 UNK     1      20.091  -6.899  39.397  1.00  0.00     0.034 C 
ENDBRANCH  21  22
ENDBRANCH  17  21
ENDBRANCH   9  10
ENDBRANCH   2   9
BRANCH   8  24
HETATM   24  C10 UNK     1      31.476  -6.340  37.036  1.00  0.00     0.109 A 
HETATM   25  C16 UNK     1      31.252  -5.089  37.611  1.00  0.00     0.135 A 
HETATM   26  C19 UNK     1      31.675  -3.934  36.953  1.00  0.00     0.043 A 
HETATM   27  F1  UNK     1      30.630  -4.986  38.795  1.00  0.00    -0.205 F 
HETATM   28  C21 UNK     1      32.322  -4.030  35.722  1.00  0.00     0.006 A 
HETATM   29  C20 UNK     1      32.547  -5.281  35.148  1.00  0.00     0.043 A 
HETATM   30  C17 UNK     1      32.123  -6.437  35.805  1.00  0.00     0.135 A 
HETATM   31  F2  UNK     1      32.344  -7.634  35.243  1.00  0.00    -0.205 F 
ENDBRANCH   8  24
TORSDOF 5
ENDMDL
MODEL 10
REMARK VINA RESULT:      -8.5      3.127      8.244
REMARK  5 active torsions:
REMARK  status: ('A' for Active; 'I' for Inactive)
REMARK    1  A    between atoms: C15_23  and  O3_5 
REMARK    2  A    between atoms: C22_30  and  O3_5 
REMARK    3  A    between atoms: C5_13  and  N1_7 
REMARK       I    between atoms: C7_15  and  N2_8 
REMARK    4  A    between atoms: C5_13  and  C6_14 
REMARK    5  A    between atoms: C10_18  and  C7_15 
ROOT
HETATM    1  O2  UNK     1      31.653  -8.156  31.656  1.00  0.00    -0.267 OA
HETATM    2  N1  UNK     1      30.925  -9.881  36.276  1.00  0.00     0.095 N 
HETATM    3  N2  UNK     1      30.666  -9.183  33.510  1.00  0.00    -0.344 N 
HETATM    4  C1  UNK     1      29.691  -9.253  35.780  1.00  0.00     0.292 C 
HETATM    5  C2  UNK     1      32.088  -9.398  35.516  1.00  0.00     0.292 C 
HETATM    6  C3  UNK     1      29.480  -9.548  34.293  1.00  0.00     0.156 C 
HETATM    7  C4  UNK     1      31.926  -9.710  34.029  1.00  0.00     0.156 C 
HETATM    8  C7  UNK     1      30.660  -8.462  32.314  1.00  0.00     0.260 C 
ENDROOT
BRANCH   2   9
HETATM    9  C5  UNK     1      31.099  -9.617  37.704  1.00  0.00     0.312 C 
BRANCH   9  10
HETATM   10  C6  UNK     1      29.973  -8.820  38.268  1.00  0.00    -0.011 A 
HETATM   11  C8  UNK     1      30.083  -7.357  38.353  1.00  0.00     0.009 A 
HETATM   12  C11 UNK     1      29.012  -6.637  38.886  1.00  0.00     0.090 A 
HETATM   13  C12 UNK     1      31.205  -6.633  37.930  1.00  0.00     0.051 A 
HETATM   14  C14 UNK     1      29.033  -5.246  39.003  1.00  0.00     0.041 A 
HETATM   15  O1  UNK     1      27.846  -7.290  39.334  1.00  0.00    -0.275 OA
HETATM   16  C18 UNK     1      30.158  -4.547  38.576  1.00  0.00     0.039 A 
HETATM   17  C15 UNK     1      31.241  -5.239  38.041  1.00  0.00     0.069 A 
HETATM   18  C13 UNK     1      27.715  -8.669  39.264  1.00  0.00     0.288 A 
HETATM   19  O4  UNK     1      26.704  -9.246  39.650  1.00  0.00    -0.260 OA
HETATM   20  C9  UNK     1      28.852  -9.414  38.701  1.00  0.00     0.092 A 
BRANCH  17  21
HETATM   21  O3  UNK     1      32.342  -4.555  37.622  1.00  0.00    -0.351 OA
BRANCH  21  22
HETATM   22  C22 UNK     1      32.167  -3.642  36.541  1.00  0.00     0.171 C 
HETATM   23  C23 UNK     1      32.394  -4.373  35.235  1.00  0.00     0.034 C 
ENDBRANCH  21  22
ENDBRANCH  17  21
ENDBRANCH   9  10
ENDBRANCH   2   9
BRANCH   8  24
HETATM   24  C10 UNK     1      29.364  -8.029  31.772  1.00  0.00     0.109 A 
HETATM   25  C16 UNK     1      28.816  -6.809  32.168  1.00  0.00     0.135 A 
HETATM   26  C19 UNK     1      27.586  -6.397  31.655  1.00  0.00     0.043 A 
HETATM   27  F1  UNK     1      29.463  -6.024  33.042  1.00  0.00    -0.205 F 
HETATM   28  C21 UNK     1      26.905  -7.205  30.745  1.00  0.00     0.006 A 
HETATM   29  C20 UNK     1      27.453  -8.425  30.349  1.00  0.00     0.043 A 
HETATM   30  C17 UNK     1      28.683  -8.837  30.863  1.00  0.00     0.135 A 
HETATM   31  F2  UNK     1      29.200 -10.012  30.475  1.00  0.00    -0.205 F 
ENDBRANCH   8  24
TORSDOF 5
ENDMDL
