MODEL 1
REMARK VINA RESULT:      -8.0      0.000      0.000
REMARK  6 active torsions:
REMARK  status: ('A' for Active; 'I' for Inactive)
REMARK    1  A    between atoms: C16_22  and  O2_2 
REMARK    2  A    between atoms: C9_15  and  O2_2 
REMARK    3  A    between atoms: C15_21  and  O4_4 
REMARK    4  A    between atoms: C17_23  and  O5_5 
REMARK    5  A    between atoms: C2_8  and  C5_11 
REMARK    6  A    between atoms: C16_22  and  C17_23 
ROOT
HETATM    1  O1  UNK     1      18.081   4.098  33.637  1.00  0.00    -0.321 OA
HETATM    2  O3  UNK     1      18.405   6.832  30.625  1.00  0.00    -0.286 OA
HETATM    3  C1  UNK     1      18.430   4.572  31.282  1.00  0.00     0.049 A 
HETATM    4  C2  UNK     1      18.007   6.423  32.937  1.00  0.00     0.048 A 
HETATM    5  C3  UNK     1      18.321   3.684  32.353  1.00  0.00     0.091 A 
HETATM    6  C4  UNK     1      18.287   6.018  31.532  1.00  0.00     0.197 A 
HETATM    7  C6  UNK     1      18.677   4.092  29.993  1.00  0.00     0.021 A 
HETATM    8  C7  UNK     1      18.459   2.312  32.139  1.00  0.00     0.075 A 
HETATM    9  C8  UNK     1      17.928   5.446  33.854  1.00  0.00     0.159 A 
HETATM   10  C9  UNK     1      18.705   1.831  30.853  1.00  0.00     0.072 A 
HETATM   11  C10 UNK     1      18.813   2.719  29.783  1.00  0.00     0.038 A 
ENDROOT
BRANCH   4  12
HETATM   12  C5  UNK     1      17.802   7.830  33.316  1.00  0.00    -0.020 A 
HETATM   13  C11 UNK     1      16.522   8.387  33.278  1.00  0.00     0.015 A 
HETATM   14  C13 UNK     1      16.328   9.721  33.636  1.00  0.00     0.037 A 
HETATM   15  C15 UNK     1      17.414  10.502  34.033  1.00  0.00     0.068 A 
HETATM   16  C14 UNK     1      18.693   9.948  34.072  1.00  0.00     0.037 A 
HETATM   17  C12 UNK     1      18.887   8.614  33.714  1.00  0.00     0.015 A 
BRANCH  15  18
HETATM   18  O4  UNK     1      17.224  11.803  34.385  1.00  0.00    -0.356 OA
HETATM   19  C18 UNK     1      18.141  12.759  33.854  1.00  0.00     0.210 C 
ENDBRANCH  15  18
ENDBRANCH   4  12
BRANCH  10  20
HETATM   20  O2  UNK     1      18.838   0.493  30.642  1.00  0.00    -0.341 OA
BRANCH  20  21
HETATM   21  C16 UNK     1      20.165  -0.015  30.519  1.00  0.00     0.286 C 
BRANCH  21  22
HETATM   22  C17 UNK     1      20.222  -0.946  29.336  1.00  0.00     0.282 C 
HETATM   23  O6  UNK     1      20.001  -0.621  28.177  1.00  0.00    -0.263 OA
BRANCH  22  24
HETATM   24  O5  UNK     1      20.557  -2.196  29.770  1.00  0.00    -0.325 OA
HETATM   25  C19 UNK     1      20.610  -2.361  31.191  1.00  0.00     0.213 C 
ENDBRANCH  22  24
ENDBRANCH  21  22
ENDBRANCH  20  21
ENDBRANCH  10  20
TORSDOF 6
ENDMDL
MODEL 2
REMARK VINA RESULT:      -7.8      1.349      9.320
REMARK  6 active torsions:
REMARK  status: ('A' for Active; 'I' for Inactive)
REMARK    1  A    between atoms: C16_22  and  O2_2 
REMARK    2  A    between atoms: C9_15  and  O2_2 
REMARK    3  A    between atoms: C15_21  and  O4_4 
REMARK    4  A    between atoms: C17_23  and  O5_5 
REMARK    5  A    between atoms: C2_8  and  C5_11 
REMARK    6  A    between atoms: C16_22  and  C17_23 
ROOT
HETATM    1  O1  UNK     1      18.679   5.960  30.014  1.00  0.00    -0.321 OA
HETATM    2  O3  UNK     1      17.897   3.051  32.767  1.00  0.00    -0.286 OA
HETATM    3  C1  UNK     1      17.800   5.331  32.187  1.00  0.00     0.049 A 
HETATM    4  C2  UNK     1      18.726   3.604  30.604  1.00  0.00     0.048 A 
HETATM    5  C3  UNK     1      18.100   6.283  31.213  1.00  0.00     0.091 A 
HETATM    6  C4  UNK     1      18.117   3.914  31.927  1.00  0.00     0.197 A 
HETATM    7  C6  UNK     1      17.210   5.719  33.393  1.00  0.00     0.021 A 
HETATM    8  C7  UNK     1      17.813   7.629  31.441  1.00  0.00     0.075 A 
HETATM    9  C8  UNK     1      18.951   4.634  29.774  1.00  0.00     0.159 A 
HETATM   10  C9  UNK     1      17.223   8.019  32.644  1.00  0.00     0.072 A 
HETATM   11  C10 UNK     1      16.923   7.067  33.617  1.00  0.00     0.038 A 
ENDROOT
BRANCH   4  12
HETATM   12  C5  UNK     1      19.055   2.227  30.202  1.00  0.00    -0.020 A 
HETATM   13  C11 UNK     1      18.650   1.745  28.955  1.00  0.00     0.015 A 
HETATM   14  C13 UNK     1      18.961   0.440  28.574  1.00  0.00     0.037 A 
HETATM   15  C15 UNK     1      19.677  -0.387  29.439  1.00  0.00     0.068 A 
HETATM   16  C14 UNK     1      20.083   0.092  30.685  1.00  0.00     0.037 A 
HETATM   17  C12 UNK     1      19.772   1.397  31.066  1.00  0.00     0.015 A 
BRANCH  15  18
HETATM   18  O4  UNK     1      19.982  -1.660  29.066  1.00  0.00    -0.356 OA
HETATM   19  C18 UNK     1      20.541  -2.512  30.065  1.00  0.00     0.210 C 
ENDBRANCH  15  18
ENDBRANCH   4  12
BRANCH  10  20
HETATM   20  O2  UNK     1      16.941   9.332  32.868  1.00  0.00    -0.341 OA
BRANCH  20  21
HETATM   21  C16 UNK     1      17.342   9.877  34.124  1.00  0.00     0.286 C 
BRANCH  21  22
HETATM   22  C17 UNK     1      18.761  10.370  34.009  1.00  0.00     0.282 C 
HETATM   23  O6  UNK     1      19.750   9.750  34.376  1.00  0.00    -0.263 OA
BRANCH  22  24
HETATM   24  O5  UNK     1      18.755  11.609  33.435  1.00  0.00    -0.325 OA
HETATM   25  C19 UNK     1      17.766  12.515  33.935  1.00  0.00     0.213 C 
ENDBRANCH  22  24
ENDBRANCH  21  22
ENDBRANCH  20  21
ENDBRANCH  10  20
TORSDOF 6
ENDMDL
MODEL 3
REMARK VINA RESULT:      -7.7      1.100      1.705
REMARK  6 active torsions:
REMARK  status: ('A' for Active; 'I' for Inactive)
REMARK    1  A    between atoms: C16_22  and  O2_2 
REMARK    2  A    between atoms: C9_15  and  O2_2 
REMARK    3  A    between atoms: C15_21  and  O4_4 
REMARK    4  A    between atoms: C17_23  and  O5_5 
REMARK    5  A    between atoms: C2_8  and  C5_11 
REMARK    6  A    between atoms: C16_22  and  C17_23 
ROOT
HETATM    1  O1  UNK     1      17.919   4.199  33.569  1.00  0.00    -0.321 OA
HETATM    2  O3  UNK     1      18.722   6.963  30.677  1.00  0.00    -0.286 OA
HETATM    3  C1  UNK     1      18.515   4.694  31.269  1.00  0.00     0.049 A 
HETATM    4  C2  UNK     1      18.086   6.537  32.932  1.00  0.00     0.048 A 
HETATM    5  C3  UNK     1      18.243   3.795  32.300  1.00  0.00     0.091 A 
HETATM    6  C4  UNK     1      18.460   6.141  31.546  1.00  0.00     0.197 A 
HETATM    7  C6  UNK     1      18.840   4.224  29.994  1.00  0.00     0.021 A 
HETATM    8  C7  UNK     1      18.293   2.422  32.061  1.00  0.00     0.075 A 
HETATM    9  C8  UNK     1      17.851   5.550  33.810  1.00  0.00     0.159 A 
HETATM   10  C9  UNK     1      18.617   1.950  30.789  1.00  0.00     0.072 A 
HETATM   11  C10 UNK     1      18.890   2.849  29.757  1.00  0.00     0.038 A 
ENDROOT
BRANCH   4  12
HETATM   12  C5  UNK     1      17.956   7.948  33.331  1.00  0.00    -0.020 A 
HETATM   13  C11 UNK     1      19.071   8.651  33.793  1.00  0.00     0.015 A 
HETATM   14  C13 UNK     1      18.948   9.987  34.172  1.00  0.00     0.037 A 
HETATM   15  C15 UNK     1      17.710  10.624  34.090  1.00  0.00     0.068 A 
HETATM   16  C14 UNK     1      16.595   9.924  33.628  1.00  0.00     0.037 A 
HETATM   17  C12 UNK     1      16.718   8.588  33.250  1.00  0.00     0.015 A 
BRANCH  15  18
HETATM   18  O4  UNK     1      17.590  11.930  34.458  1.00  0.00    -0.356 OA
HETATM   19  C18 UNK     1      16.269  12.425  34.674  1.00  0.00     0.210 C 
ENDBRANCH  15  18
ENDBRANCH   4  12
BRANCH  10  20
HETATM   20  O2  UNK     1      18.667   0.610  30.553  1.00  0.00    -0.341 OA
BRANCH  20  21
HETATM   21  C16 UNK     1      19.819  -0.088  31.019  1.00  0.00     0.286 C 
BRANCH  21  22
HETATM   22  C17 UNK     1      19.391  -1.102  32.047  1.00  0.00     0.282 C 
HETATM   23  O6  UNK     1      18.240  -1.274  32.425  1.00  0.00    -0.263 OA
BRANCH  22  24
HETATM   24  O5  UNK     1      20.490  -1.787  32.480  1.00  0.00    -0.325 OA
HETATM   25  C19 UNK     1      20.332  -2.482  33.721  1.00  0.00     0.213 C 
ENDBRANCH  22  24
ENDBRANCH  21  22
ENDBRANCH  20  21
ENDBRANCH  10  20
TORSDOF 6
ENDMDL
MODEL 4
REMARK VINA RESULT:      -7.6     23.327     24.865
REMARK  6 active torsions:
REMARK  status: ('A' for Active; 'I' for Inactive)
REMARK    1  A    between atoms: C16_22  and  O2_2 
REMARK    2  A    between atoms: C9_15  and  O2_2 
REMARK    3  A    between atoms: C15_21  and  O4_4 
REMARK    4  A    between atoms: C17_23  and  O5_5 
REMARK    5  A    between atoms: C2_8  and  C5_11 
REMARK    6  A    between atoms: C16_22  and  C17_23 
ROOT
HETATM    1  O1  UNK     1      11.191   8.377   9.977  1.00  0.00    -0.321 OA
HETATM    2  O3  UNK     1      13.683   7.304   6.930  1.00  0.00    -0.286 OA
HETATM    3  C1  UNK     1      11.540   7.178   7.896  1.00  0.00     0.049 A 
HETATM    4  C2  UNK     1      13.383   8.539   8.944  1.00  0.00     0.048 A 
HETATM    5  C3  UNK     1      10.737   7.568   8.968  1.00  0.00     0.091 A 
HETATM    6  C4  UNK     1      12.937   7.646   7.838  1.00  0.00     0.197 A 
HETATM    7  C6  UNK     1      11.024   6.351   6.895  1.00  0.00     0.021 A 
HETATM    8  C7  UNK     1       9.414   7.132   9.045  1.00  0.00     0.075 A 
HETATM    9  C8  UNK     1      12.488   8.824   9.902  1.00  0.00     0.159 A 
HETATM   10  C9  UNK     1       8.896   6.307   8.047  1.00  0.00     0.072 A 
HETATM   11  C10 UNK     1       9.699   5.917   6.974  1.00  0.00     0.038 A 
ENDROOT
BRANCH   4  12
HETATM   12  C5  UNK     1      14.739   9.109   8.986  1.00  0.00    -0.020 A 
HETATM   13  C11 UNK     1      15.742   8.476   9.723  1.00  0.00     0.015 A 
HETATM   14  C13 UNK     1      17.028   9.016   9.763  1.00  0.00     0.037 A 
HETATM   15  C15 UNK     1      17.313  10.190   9.067  1.00  0.00     0.068 A 
HETATM   16  C14 UNK     1      16.313  10.824   8.330  1.00  0.00     0.037 A 
HETATM   17  C12 UNK     1      15.027  10.284   8.290  1.00  0.00     0.015 A 
BRANCH  15  18
HETATM   18  O4  UNK     1      18.568  10.716   9.105  1.00  0.00    -0.356 OA
HETATM   19  C18 UNK     1      18.882  11.717   8.137  1.00  0.00     0.210 C 
ENDBRANCH  15  18
ENDBRANCH   4  12
BRANCH  10  20
HETATM   20  O2  UNK     1       7.605   5.881   8.119  1.00  0.00    -0.341 OA
BRANCH  20  21
HETATM   21  C16 UNK     1       7.139   5.436   9.392  1.00  0.00     0.286 C 
BRANCH  21  22
HETATM   22  C17 UNK     1       6.916   3.947   9.335  1.00  0.00     0.282 C 
HETATM   23  O6  UNK     1       6.887   3.281   8.309  1.00  0.00    -0.263 OA
BRANCH  22  24
HETATM   24  O5  UNK     1       6.755   3.474  10.606  1.00  0.00    -0.325 OA
HETATM   25  C19 UNK     1       5.794   2.424  10.754  1.00  0.00     0.213 C 
ENDBRANCH  22  24
ENDBRANCH  21  22
ENDBRANCH  20  21
ENDBRANCH  10  20
TORSDOF 6
ENDMDL
MODEL 5
REMARK VINA RESULT:      -7.5      1.791      9.757
REMARK  6 active torsions:
REMARK  status: ('A' for Active; 'I' for Inactive)
REMARK    1  A    between atoms: C16_22  and  O2_2 
REMARK    2  A    between atoms: C9_15  and  O2_2 
REMARK    3  A    between atoms: C15_21  and  O4_4 
REMARK    4  A    between atoms: C17_23  and  O5_5 
REMARK    5  A    between atoms: C2_8  and  C5_11 
REMARK    6  A    between atoms: C16_22  and  C17_23 
ROOT
HETATM    1  O1  UNK     1      19.492   8.158  33.601  1.00  0.00    -0.321 OA
HETATM    2  O3  UNK     1      15.983   6.549  32.278  1.00  0.00    -0.286 OA
HETATM    3  C1  UNK     1      17.110   8.399  33.201  1.00  0.00     0.049 A 
HETATM    4  C2  UNK     1      18.326   6.275  32.602  1.00  0.00     0.048 A 
HETATM    5  C3  UNK     1      18.336   8.892  33.649  1.00  0.00     0.091 A 
HETATM    6  C4  UNK     1      17.043   7.031  32.655  1.00  0.00     0.197 A 
HETATM    7  C6  UNK     1      15.963   9.193  33.275  1.00  0.00     0.021 A 
HETATM    8  C7  UNK     1      18.420  10.182  34.174  1.00  0.00     0.075 A 
HETATM    9  C8  UNK     1      19.422   6.892  33.071  1.00  0.00     0.159 A 
HETATM   10  C9  UNK     1      17.276  10.976  34.248  1.00  0.00     0.072 A 
HETATM   11  C10 UNK     1      16.050  10.484  33.800  1.00  0.00     0.038 A 
ENDROOT
BRANCH   4  12
HETATM   12  C5  UNK     1      18.407   4.916  32.044  1.00  0.00    -0.020 A 
HETATM   13  C11 UNK     1      18.138   3.809  32.852  1.00  0.00     0.015 A 
HETATM   14  C13 UNK     1      18.216   2.521  32.324  1.00  0.00     0.037 A 
HETATM   15  C15 UNK     1      18.562   2.336  30.986  1.00  0.00     0.068 A 
HETATM   16  C14 UNK     1      18.831   3.440  30.176  1.00  0.00     0.037 A 
HETATM   17  C12 UNK     1      18.753   4.728  30.705  1.00  0.00     0.015 A 
BRANCH  15  18
HETATM   18  O4  UNK     1      18.635   1.078  30.469  1.00  0.00    -0.356 OA
HETATM   19  C18 UNK     1      19.351   0.920  29.245  1.00  0.00     0.210 C 
ENDBRANCH  15  18
ENDBRANCH   4  12
BRANCH  10  20
HETATM   20  O2  UNK     1      17.355  12.236  34.759  1.00  0.00    -0.341 OA
BRANCH  20  21
HETATM   21  C16 UNK     1      17.127  13.317  33.858  1.00  0.00     0.286 C 
BRANCH  21  22
HETATM   22  C17 UNK     1      18.455  13.835  33.371  1.00  0.00     0.282 C 
HETATM   23  O6  UNK     1      19.032  13.447  32.365  1.00  0.00    -0.263 OA
BRANCH  22  24
HETATM   24  O5  UNK     1      18.899  14.797  34.233  1.00  0.00    -0.325 OA
HETATM   25  C19 UNK     1      19.730  15.807  33.652  1.00  0.00     0.213 C 
ENDBRANCH  22  24
ENDBRANCH  21  22
ENDBRANCH  20  21
ENDBRANCH  10  20
TORSDOF 6
ENDMDL
MODEL 6
REMARK VINA RESULT:      -7.5      0.998      2.120
REMARK  6 active torsions:
REMARK  status: ('A' for Active; 'I' for Inactive)
REMARK    1  A    between atoms: C16_22  and  O2_2 
REMARK    2  A    between atoms: C9_15  and  O2_2 
REMARK    3  A    between atoms: C15_21  and  O4_4 
REMARK    4  A    between atoms: C17_23  and  O5_5 
REMARK    5  A    between atoms: C2_8  and  C5_11 
REMARK    6  A    between atoms: C16_22  and  C17_23 
ROOT
HETATM    1  O1  UNK     1      18.474   5.942  29.874  1.00  0.00    -0.321 OA
HETATM    2  O3  UNK     1      17.441   5.390  33.783  1.00  0.00    -0.286 OA
HETATM    3  C1  UNK     1      18.158   4.438  31.753  1.00  0.00     0.049 A 
HETATM    4  C2  UNK     1      17.783   6.918  31.988  1.00  0.00     0.048 A 
HETATM    5  C3  UNK     1      18.489   4.685  30.420  1.00  0.00     0.091 A 
HETATM    6  C4  UNK     1      17.768   5.568  32.617  1.00  0.00     0.197 A 
HETATM    7  C6  UNK     1      18.191   3.135  32.256  1.00  0.00     0.021 A 
HETATM    8  C7  UNK     1      18.857   3.630  29.585  1.00  0.00     0.075 A 
HETATM    9  C8  UNK     1      18.129   6.990  30.694  1.00  0.00     0.159 A 
HETATM   10  C9  UNK     1      18.891   2.328  30.085  1.00  0.00     0.072 A 
HETATM   11  C10 UNK     1      18.559   2.081  31.417  1.00  0.00     0.038 A 
ENDROOT
BRANCH   4  12
HETATM   12  C5  UNK     1      17.455   8.134  32.749  1.00  0.00    -0.020 A 
HETATM   13  C11 UNK     1      18.444   8.789  33.486  1.00  0.00     0.015 A 
HETATM   14  C13 UNK     1      18.132   9.941  34.207  1.00  0.00     0.037 A 
HETATM   15  C15 UNK     1      16.831  10.442  34.194  1.00  0.00     0.068 A 
HETATM   16  C14 UNK     1      15.841   9.790  33.458  1.00  0.00     0.037 A 
HETATM   17  C12 UNK     1      16.152   8.638  32.737  1.00  0.00     0.015 A 
BRANCH  15  18
HETATM   18  O4  UNK     1      16.527  11.568  34.896  1.00  0.00    -0.356 OA
HETATM   19  C18 UNK     1      15.199  11.677  35.405  1.00  0.00     0.210 C 
ENDBRANCH  15  18
ENDBRANCH   4  12
BRANCH  10  20
HETATM   20  O2  UNK     1      19.249   1.297  29.271  1.00  0.00    -0.341 OA
BRANCH  20  21
HETATM   21  C16 UNK     1      20.105   0.300  29.827  1.00  0.00     0.286 C 
BRANCH  21  22
HETATM   22  C17 UNK     1      20.076  -0.916  28.938  1.00  0.00     0.282 C 
HETATM   23  O6  UNK     1      19.613  -0.946  27.806  1.00  0.00    -0.263 OA
BRANCH  22  24
HETATM   24  O5  UNK     1      20.649  -1.963  29.600  1.00  0.00    -0.325 OA
HETATM   25  C19 UNK     1      20.312  -2.073  30.987  1.00  0.00     0.213 C 
ENDBRANCH  22  24
ENDBRANCH  21  22
ENDBRANCH  20  21
ENDBRANCH  10  20
TORSDOF 6
ENDMDL
MODEL 7
REMARK VINA RESULT:      -7.5      5.581     11.204
REMARK  6 active torsions:
REMARK  status: ('A' for Active; 'I' for Inactive)
REMARK    1  A    between atoms: C16_22  and  O2_2 
REMARK    2  A    between atoms: C9_15  and  O2_2 
REMARK    3  A    between atoms: C15_21  and  O4_4 
REMARK    4  A    between atoms: C17_23  and  O5_5 
REMARK    5  A    between atoms: C2_8  and  C5_11 
REMARK    6  A    between atoms: C16_22  and  C17_23 
ROOT
HETATM    1  O1  UNK     1      19.765  -1.929  33.930  1.00  0.00    -0.321 OA
HETATM    2  O3  UNK     1      18.471  -2.157  37.793  1.00  0.00    -0.286 OA
HETATM    3  C1  UNK     1      18.465  -0.987  35.751  1.00  0.00     0.049 A 
HETATM    4  C2  UNK     1      19.722  -3.152  36.028  1.00  0.00     0.048 A 
HETATM    5  C3  UNK     1      18.947  -0.956  34.442  1.00  0.00     0.091 A 
HETATM    6  C4  UNK     1      18.848  -2.107  36.630  1.00  0.00     0.197 A 
HETATM    7  C6  UNK     1      17.633   0.034  36.219  1.00  0.00     0.021 A 
HETATM    8  C7  UNK     1      18.600   0.097  33.595  1.00  0.00     0.075 A 
HETATM    9  C8  UNK     1      20.099  -2.978  34.753  1.00  0.00     0.159 A 
HETATM   10  C9  UNK     1      17.770   1.117  34.060  1.00  0.00     0.072 A 
HETATM   11  C10 UNK     1      17.287   1.086  35.368  1.00  0.00     0.038 A 
ENDROOT
BRANCH   4  12
HETATM   12  C5  UNK     1      20.146  -4.342  36.784  1.00  0.00    -0.020 A 
HETATM   13  C11 UNK     1      21.319  -4.311  37.541  1.00  0.00     0.015 A 
HETATM   14  C13 UNK     1      21.721  -5.438  38.256  1.00  0.00     0.037 A 
HETATM   15  C15 UNK     1      20.951  -6.601  38.216  1.00  0.00     0.068 A 
HETATM   16  C14 UNK     1      19.779  -6.635  37.461  1.00  0.00     0.037 A 
HETATM   17  C12 UNK     1      19.377  -5.507  36.745  1.00  0.00     0.015 A 
BRANCH  15  18
HETATM   18  O4  UNK     1      21.343  -7.701  38.916  1.00  0.00    -0.356 OA
HETATM   19  C18 UNK     1      22.473  -7.557  39.774  1.00  0.00     0.210 C 
ENDBRANCH  15  18
ENDBRANCH   4  12
BRANCH  10  20
HETATM   20  O2  UNK     1      17.429   2.145  33.235  1.00  0.00    -0.341 OA
BRANCH  20  21
HETATM   21  C16 UNK     1      18.486   2.986  32.776  1.00  0.00     0.286 C 
BRANCH  21  22
HETATM   22  C17 UNK     1      18.174   3.439  31.374  1.00  0.00     0.282 C 
HETATM   23  O6  UNK     1      18.514   4.511  30.891  1.00  0.00    -0.263 OA
BRANCH  22  24
HETATM   24  O5  UNK     1      17.456   2.465  30.742  1.00  0.00    -0.325 OA
HETATM   25  C19 UNK     1      17.960   2.059  29.465  1.00  0.00     0.213 C 
ENDBRANCH  22  24
ENDBRANCH  21  22
ENDBRANCH  20  21
ENDBRANCH  10  20
TORSDOF 6
ENDMDL
MODEL 8
REMARK VINA RESULT:      -7.5      3.712      9.352
REMARK  6 active torsions:
REMARK  status: ('A' for Active; 'I' for Inactive)
REMARK    1  A    between atoms: C16_22  and  O2_2 
REMARK    2  A    between atoms: C9_15  and  O2_2 
REMARK    3  A    between atoms: C15_21  and  O4_4 
REMARK    4  A    between atoms: C17_23  and  O5_5 
REMARK    5  A    between atoms: C2_8  and  C5_11 
REMARK    6  A    between atoms: C16_22  and  C17_23 
ROOT
HETATM    1  O1  UNK     1      18.403   2.949  35.332  1.00  0.00    -0.321 OA
HETATM    2  O3  UNK     1      18.507  -0.110  32.633  1.00  0.00    -0.286 OA
HETATM    3  C1  UNK     1      18.340   2.206  33.022  1.00  0.00     0.049 A 
HETATM    4  C2  UNK     1      18.625   0.566  34.914  1.00  0.00     0.048 A 
HETATM    5  C3  UNK     1      18.300   3.209  33.990  1.00  0.00     0.091 A 
HETATM    6  C4  UNK     1      18.496   0.803  33.449  1.00  0.00     0.197 A 
HETATM    7  C6  UNK     1      18.229   2.530  31.667  1.00  0.00     0.021 A 
HETATM    8  C7  UNK     1      18.148   4.542  33.608  1.00  0.00     0.075 A 
HETATM    9  C8  UNK     1      18.569   1.640  35.716  1.00  0.00     0.159 A 
HETATM   10  C9  UNK     1      18.038   4.869  32.256  1.00  0.00     0.072 A 
HETATM   11  C10 UNK     1      18.078   3.865  31.288  1.00  0.00     0.038 A 
ENDROOT
BRANCH   4  12
HETATM   12  C5  UNK     1      18.825  -0.781  35.470  1.00  0.00    -0.020 A 
HETATM   13  C11 UNK     1      17.864  -1.341  36.314  1.00  0.00     0.015 A 
HETATM   14  C13 UNK     1      18.054  -2.618  36.842  1.00  0.00     0.037 A 
HETATM   15  C15 UNK     1      19.206  -3.337  36.529  1.00  0.00     0.068 A 
HETATM   16  C14 UNK     1      20.168  -2.781  35.686  1.00  0.00     0.037 A 
HETATM   17  C12 UNK     1      19.978  -1.504  35.158  1.00  0.00     0.015 A 
BRANCH  15  18
HETATM   18  O4  UNK     1      19.391  -4.585  37.043  1.00  0.00    -0.356 OA
HETATM   19  C18 UNK     1      20.675  -4.877  37.593  1.00  0.00     0.210 C 
ENDBRANCH  15  18
ENDBRANCH   4  12
BRANCH  10  20
HETATM   20  O2  UNK     1      17.890   6.169  31.881  1.00  0.00    -0.341 OA
BRANCH  20  21
HETATM   21  C16 UNK     1      16.999   6.970  32.654  1.00  0.00     0.286 C 
BRANCH  21  22
HETATM   22  C17 UNK     1      16.024   7.647  31.727  1.00  0.00     0.282 C 
HETATM   23  O6  UNK     1      16.335   8.340  30.767  1.00  0.00    -0.263 OA
BRANCH  22  24
HETATM   24  O5  UNK     1      14.752   7.360  32.133  1.00  0.00    -0.325 OA
HETATM   25  C19 UNK     1      14.512   7.488  33.538  1.00  0.00     0.213 C 
ENDBRANCH  22  24
ENDBRANCH  21  22
ENDBRANCH  20  21
ENDBRANCH  10  20
TORSDOF 6
ENDMDL
MODEL 9
REMARK VINA RESULT:      -7.4      2.591      9.958
REMARK  6 active torsions:
REMARK  status: ('A' for Active; 'I' for Inactive)
REMARK    1  A    between atoms: C16_22  and  O2_2 
REMARK    2  A    between atoms: C9_15  and  O2_2 
REMARK    3  A    between atoms: C15_21  and  O4_4 
REMARK    4  A    between atoms: C17_23  and  O5_5 
REMARK    5  A    between atoms: C2_8  and  C5_11 
REMARK    6  A    between atoms: C16_22  and  C17_23 
ROOT
HETATM    1  O1  UNK     1      18.248   9.270  33.855  1.00  0.00    -0.321 OA
HETATM    2  O3  UNK     1      15.343   7.351  31.728  1.00  0.00    -0.286 OA
HETATM    3  C1  UNK     1      15.965   9.208  33.034  1.00  0.00     0.049 A 
HETATM    4  C2  UNK     1      17.608   7.385  32.464  1.00  0.00     0.048 A 
HETATM    5  C3  UNK     1      16.994   9.813  33.756  1.00  0.00     0.091 A 
HETATM    6  C4  UNK     1      16.226   7.929  32.347  1.00  0.00     0.197 A 
HETATM    7  C6  UNK     1      14.705   9.807  32.968  1.00  0.00     0.021 A 
HETATM    8  C7  UNK     1      16.767  11.020  34.417  1.00  0.00     0.075 A 
HETATM    9  C8  UNK     1      18.486   8.089  33.194  1.00  0.00     0.159 A 
HETATM   10  C9  UNK     1      15.509  11.621  34.353  1.00  0.00     0.072 A 
HETATM   11  C10 UNK     1      14.481  11.016  33.630  1.00  0.00     0.038 A 
ENDROOT
BRANCH   4  12
HETATM   12  C5  UNK     1      18.012   6.138  31.795  1.00  0.00    -0.020 A 
HETATM   13  C11 UNK     1      18.690   6.186  30.575  1.00  0.00     0.015 A 
HETATM   14  C13 UNK     1      19.073   5.004  29.940  1.00  0.00     0.037 A 
HETATM   15  C15 UNK     1      18.779   3.772  30.524  1.00  0.00     0.068 A 
HETATM   16  C14 UNK     1      18.102   3.722  31.742  1.00  0.00     0.037 A 
HETATM   17  C12 UNK     1      17.719   4.904  32.377  1.00  0.00     0.015 A 
BRANCH  15  18
HETATM   18  O4  UNK     1      19.154   2.619  29.905  1.00  0.00    -0.356 OA
HETATM   19  C18 UNK     1      18.241   2.060  28.962  1.00  0.00     0.210 C 
ENDBRANCH  15  18
ENDBRANCH   4  12
BRANCH  10  20
HETATM   20  O2  UNK     1      15.285  12.800  34.996  1.00  0.00    -0.341 OA
BRANCH  20  21
HETATM   21  C16 UNK     1      14.208  12.835  35.930  1.00  0.00     0.286 C 
BRANCH  21  22
HETATM   22  C17 UNK     1      14.709  12.361  37.269  1.00  0.00     0.282 C 
HETATM   23  O6  UNK     1      15.506  12.965  37.974  1.00  0.00    -0.263 OA
BRANCH  22  24
HETATM   24  O5  UNK     1      14.131  11.158  37.559  1.00  0.00    -0.325 OA
HETATM   25  C19 UNK     1      13.283  11.145  38.712  1.00  0.00     0.213 C 
ENDBRANCH  22  24
ENDBRANCH  21  22
ENDBRANCH  20  21
ENDBRANCH  10  20
TORSDOF 6
ENDMDL
MODEL 10
REMARK VINA RESULT:      -7.4      2.183      3.603
REMARK  6 active torsions:
REMARK  status: ('A' for Active; 'I' for Inactive)
REMARK    1  A    between atoms: C16_22  and  O2_2 
REMARK    2  A    between atoms: C9_15  and  O2_2 
REMARK    3  A    between atoms: C15_21  and  O4_4 
REMARK    4  A    between atoms: C17_23  and  O5_5 
REMARK    5  A    between atoms: C2_8  and  C5_11 
REMARK    6  A    between atoms: C16_22  and  C17_23 
ROOT
HETATM    1  O1  UNK     1      16.215   7.365  31.938  1.00  0.00    -0.321 OA
HETATM    2  O3  UNK     1      18.997   9.091  34.372  1.00  0.00    -0.286 OA
HETATM    3  C1  UNK     1      18.486   7.423  32.792  1.00  0.00     0.049 A 
HETATM    4  C2  UNK     1      16.770   9.112  33.531  1.00  0.00     0.048 A 
HETATM    5  C3  UNK     1      17.491   6.867  31.988  1.00  0.00     0.091 A 
HETATM    6  C4  UNK     1      18.162   8.592  33.630  1.00  0.00     0.197 A 
HETATM    7  C6  UNK     1      19.770   6.873  32.803  1.00  0.00     0.021 A 
HETATM    8  C7  UNK     1      17.775   5.759  31.190  1.00  0.00     0.075 A 
HETATM    9  C8  UNK     1      15.930   8.467  32.708  1.00  0.00     0.159 A 
HETATM   10  C9  UNK     1      19.057   5.208  31.199  1.00  0.00     0.072 A 
HETATM   11  C10 UNK     1      20.052   5.763  32.003  1.00  0.00     0.038 A 
ENDROOT
BRANCH   4  12
HETATM   12  C5  UNK     1      16.326  10.296  34.284  1.00  0.00    -0.020 A 
HETATM   13  C11 UNK     1      15.169  10.238  35.065  1.00  0.00     0.015 A 
HETATM   14  C13 UNK     1      14.748  11.360  35.778  1.00  0.00     0.037 A 
HETATM   15  C15 UNK     1      15.481  12.544  35.710  1.00  0.00     0.068 A 
HETATM   16  C14 UNK     1      16.637  12.606  34.931  1.00  0.00     0.037 A 
HETATM   17  C12 UNK     1      17.058  11.483  34.218  1.00  0.00     0.015 A 
BRANCH  15  18
HETATM   18  O4  UNK     1      15.072  13.639  36.408  1.00  0.00    -0.356 OA
HETATM   19  C18 UNK     1      15.269  13.620  37.821  1.00  0.00     0.210 C 
ENDBRANCH  15  18
ENDBRANCH   4  12
BRANCH  10  20
HETATM   20  O2  UNK     1      19.337   4.126  30.421  1.00  0.00    -0.341 OA
BRANCH  20  21
HETATM   21  C16 UNK     1      18.438   3.021  30.498  1.00  0.00     0.286 C 
BRANCH  21  22
HETATM   22  C17 UNK     1      18.537   2.224  29.224  1.00  0.00     0.282 C 
HETATM   23  O6  UNK     1      17.905   2.455  28.202  1.00  0.00    -0.263 OA
BRANCH  22  24
HETATM   24  O5  UNK     1      19.439   1.214  29.401  1.00  0.00    -0.325 OA
HETATM   25  C19 UNK     1      19.422   0.592  30.690  1.00  0.00     0.213 C 
ENDBRANCH  22  24
ENDBRANCH  21  22
ENDBRANCH  20  21
ENDBRANCH  10  20
TORSDOF 6
ENDMDL
