MODEL 1
REMARK VINA RESULT:      -8.3      0.000      0.000
REMARK  3 active torsions:
REMARK  status: ('A' for Active; 'I' for Inactive)
REMARK    1  A    between atoms: C15_19  and  O2_2 
REMARK    2  A    between atoms: C11_15  and  O4_4 
REMARK    3  A    between atoms: C2_6  and  C4_8 
ROOT
HETATM    1  O1  UNK     1      19.569   1.218  31.390  1.00  0.00    -0.309 OA
HETATM    2  O3  UNK     1      19.080  -0.170  27.591  1.00  0.00    -0.287 OA
HETATM    3  C1  UNK     1      19.763  -0.616  29.809  1.00  0.00     0.048 A 
HETATM    4  C2  UNK     1      19.078   2.027  30.378  1.00  0.00     0.090 A 
HETATM    5  C3  UNK     1      19.903  -0.078  31.088  1.00  0.00     0.093 A 
HETATM    6  C5  UNK     1      19.233   0.237  28.735  1.00  0.00     0.187 A 
HETATM    7  C6  UNK     1      18.891   1.624  29.111  1.00  0.00     0.093 A 
HETATM    8  C7  UNK     1      20.119  -1.943  29.558  1.00  0.00     0.021 A 
HETATM    9  C8  UNK     1      20.402  -0.867  32.124  1.00  0.00     0.074 A 
HETATM   10  C11 UNK     1      20.759  -2.192  31.878  1.00  0.00     0.068 A 
HETATM   11  C12 UNK     1      20.617  -2.729  30.597  1.00  0.00     0.037 A 
ENDROOT
BRANCH   4  12
HETATM   12  C4  UNK     1      18.745   3.398  30.814  1.00  0.00    -0.002 A 
HETATM   13  C10 UNK     1      19.075   4.491  30.008  1.00  0.00     0.017 A 
HETATM   14  C14 UNK     1      18.762   5.785  30.421  1.00  0.00     0.037 A 
HETATM   15  C15 UNK     1      18.114   5.992  31.639  1.00  0.00     0.068 A 
HETATM   16  C13 UNK     1      17.782   4.904  32.446  1.00  0.00     0.037 A 
HETATM   17  C9  UNK     1      18.097   3.609  32.033  1.00  0.00     0.017 A 
BRANCH  15  18
HETATM   18  O2  UNK     1      17.809   7.256  32.041  1.00  0.00    -0.356 OA
HETATM   19  C16 UNK     1      16.597   7.821  31.542  1.00  0.00     0.210 C 
ENDBRANCH  15  18
ENDBRANCH   4  12
BRANCH  10  20
HETATM   20  O4  UNK     1      21.246  -2.965  32.888  1.00  0.00    -0.361 OA
HETATM   21  H9  UNK     1      21.730  -3.716  32.504  1.00  0.00     0.217 HD
ENDBRANCH  10  20
TORSDOF 3
ENDMDL
MODEL 2
REMARK VINA RESULT:      -8.0     12.727     16.075
REMARK  3 active torsions:
REMARK  status: ('A' for Active; 'I' for Inactive)
REMARK    1  A    between atoms: C15_19  and  O2_2 
REMARK    2  A    between atoms: C11_15  and  O4_4 
REMARK    3  A    between atoms: C2_6  and  C4_8 
ROOT
HETATM    1  O1  UNK     1      19.055  -0.905  17.269  1.00  0.00    -0.309 OA
HETATM    2  O3  UNK     1      19.387   2.752  15.504  1.00  0.00    -0.287 OA
HETATM    3  C1  UNK     1      19.228   1.507  17.505  1.00  0.00     0.048 A 
HETATM    4  C2  UNK     1      19.100  -0.764  15.891  1.00  0.00     0.090 A 
HETATM    5  C3  UNK     1      19.115   0.226  18.044  1.00  0.00     0.093 A 
HETATM    6  C5  UNK     1      19.286   1.659  16.044  1.00  0.00     0.187 A 
HETATM    7  C6  UNK     1      19.214   0.412  15.254  1.00  0.00     0.093 A 
HETATM    8  C7  UNK     1      19.286   2.622  18.344  1.00  0.00     0.021 A 
HETATM    9  C8  UNK     1      19.060   0.053  19.427  1.00  0.00     0.074 A 
HETATM   10  C11 UNK     1      19.117   1.165  20.268  1.00  0.00     0.068 A 
HETATM   11  C12 UNK     1      19.230   2.447  19.727  1.00  0.00     0.037 A 
ENDROOT
BRANCH   4  12
HETATM   12  C4  UNK     1      19.035  -2.042  15.154  1.00  0.00    -0.002 A 
HETATM   13  C10 UNK     1      19.901  -2.281  14.085  1.00  0.00     0.017 A 
HETATM   14  C14 UNK     1      19.839  -3.487  13.388  1.00  0.00     0.037 A 
HETATM   15  C15 UNK     1      18.911  -4.461  13.761  1.00  0.00     0.068 A 
HETATM   16  C13 UNK     1      18.045  -4.227  14.828  1.00  0.00     0.037 A 
HETATM   17  C9  UNK     1      18.107  -3.019  15.524  1.00  0.00     0.017 A 
BRANCH  15  18
HETATM   18  O2  UNK     1      18.851  -5.638  13.080  1.00  0.00    -0.356 OA
HETATM   19  C16 UNK     1      17.875  -6.586  13.510  1.00  0.00     0.210 C 
ENDBRANCH  15  18
ENDBRANCH   4  12
BRANCH  10  20
HETATM   20  O4  UNK     1      19.063   1.000  21.618  1.00  0.00    -0.361 OA
HETATM   21  H9  UNK     1      18.313   1.512  21.968  1.00  0.00     0.217 HD
ENDBRANCH  10  20
TORSDOF 3
ENDMDL
MODEL 3
REMARK VINA RESULT:      -7.9      1.522      1.933
REMARK  3 active torsions:
REMARK  status: ('A' for Active; 'I' for Inactive)
REMARK    1  A    between atoms: C15_19  and  O2_2 
REMARK    2  A    between atoms: C11_15  and  O4_4 
REMARK    3  A    between atoms: C2_6  and  C4_8 
ROOT
HETATM    1  O1  UNK     1      19.264   2.054  31.314  1.00  0.00    -0.309 OA
HETATM    2  O3  UNK     1      17.783   2.038  27.519  1.00  0.00    -0.287 OA
HETATM    3  C1  UNK     1      18.941   0.872  29.217  1.00  0.00     0.048 A 
HETATM    4  C2  UNK     1      18.606   3.153  30.786  1.00  0.00     0.090 A 
HETATM    5  C3  UNK     1      19.421   0.943  30.524  1.00  0.00     0.093 A 
HETATM    6  C5  UNK     1      18.233   2.033  28.656  1.00  0.00     0.187 A 
HETATM    7  C6  UNK     1      18.094   3.204  29.546  1.00  0.00     0.093 A 
HETATM    8  C7  UNK     1      19.129  -0.285  28.458  1.00  0.00     0.021 A 
HETATM    9  C8  UNK     1      20.094  -0.145  31.079  1.00  0.00     0.074 A 
HETATM   10  C11 UNK     1      20.284  -1.303  30.324  1.00  0.00     0.068 A 
HETATM   11  C12 UNK     1      19.802  -1.372  29.016  1.00  0.00     0.037 A 
ENDROOT
BRANCH   4  12
HETATM   12  C4  UNK     1      18.487   4.288  31.723  1.00  0.00    -0.002 A 
HETATM   13  C10 UNK     1      18.666   5.597  31.265  1.00  0.00     0.017 A 
HETATM   14  C14 UNK     1      18.555   6.669  32.150  1.00  0.00     0.037 A 
HETATM   15  C15 UNK     1      18.262   6.437  33.494  1.00  0.00     0.068 A 
HETATM   16  C13 UNK     1      18.083   5.133  33.954  1.00  0.00     0.037 A 
HETATM   17  C9  UNK     1      18.195   4.061  33.069  1.00  0.00     0.017 A 
BRANCH  15  18
HETATM   18  O2  UNK     1      18.155   7.485  34.357  1.00  0.00    -0.356 OA
HETATM   19  C16 UNK     1      16.910   7.640  35.037  1.00  0.00     0.210 C 
ENDBRANCH  15  18
ENDBRANCH   4  12
BRANCH  10  20
HETATM   20  O4  UNK     1      20.941  -2.366  30.864  1.00  0.00    -0.361 OA
HETATM   21  H9  UNK     1      21.802  -2.461  30.423  1.00  0.00     0.217 HD
ENDBRANCH  10  20
TORSDOF 3
ENDMDL
MODEL 4
REMARK VINA RESULT:      -7.8      2.024      2.867
REMARK  3 active torsions:
REMARK  status: ('A' for Active; 'I' for Inactive)
REMARK    1  A    between atoms: C15_19  and  O2_2 
REMARK    2  A    between atoms: C11_15  and  O4_4 
REMARK    3  A    between atoms: C2_6  and  C4_8 
ROOT
HETATM    1  O1  UNK     1      18.128   2.782  33.025  1.00  0.00    -0.309 OA
HETATM    2  O3  UNK     1      19.409   1.271  29.466  1.00  0.00    -0.287 OA
HETATM    3  C1  UNK     1      18.837   0.859  31.721  1.00  0.00     0.048 A 
HETATM    4  C2  UNK     1      18.314   3.592  31.917  1.00  0.00     0.090 A 
HETATM    5  C3  UNK     1      18.394   1.441  32.909  1.00  0.00     0.093 A 
HETATM    6  C5  UNK     1      19.026   1.714  30.540  1.00  0.00     0.187 A 
HETATM    7  C6  UNK     1      18.729   3.150  30.719  1.00  0.00     0.093 A 
HETATM    8  C7  UNK     1      19.093  -0.512  31.660  1.00  0.00     0.021 A 
HETATM    9  C8  UNK     1      18.205   0.652  34.043  1.00  0.00     0.074 A 
HETATM   10  C11 UNK     1      18.460  -0.718  33.986  1.00  0.00     0.068 A 
HETATM   11  C12 UNK     1      18.903  -1.299  32.796  1.00  0.00     0.037 A 
ENDROOT
BRANCH   4  12
HETATM   12  C4  UNK     1      17.992   5.014  32.151  1.00  0.00    -0.002 A 
HETATM   13  C10 UNK     1      17.628   5.450  33.428  1.00  0.00     0.017 A 
HETATM   14  C14 UNK     1      17.322   6.792  33.649  1.00  0.00     0.037 A 
HETATM   15  C15 UNK     1      17.382   7.704  32.595  1.00  0.00     0.068 A 
HETATM   16  C13 UNK     1      17.744   7.273  31.319  1.00  0.00     0.037 A 
HETATM   17  C9  UNK     1      18.049   5.930  31.098  1.00  0.00     0.017 A 
BRANCH  15  18
HETATM   18  O2  UNK     1      17.083   9.014  32.811  1.00  0.00    -0.356 OA
HETATM   19  C16 UNK     1      17.769   9.669  33.878  1.00  0.00     0.210 C 
ENDBRANCH  15  18
ENDBRANCH   4  12
BRANCH  10  20
HETATM   20  O4  UNK     1      18.276  -1.491  35.092  1.00  0.00    -0.361 OA
HETATM   21  H9  UNK     1      17.539  -1.126  35.612  1.00  0.00     0.217 HD
ENDBRANCH  10  20
TORSDOF 3
ENDMDL
MODEL 5
REMARK VINA RESULT:      -7.7      2.937      8.977
REMARK  3 active torsions:
REMARK  status: ('A' for Active; 'I' for Inactive)
REMARK    1  A    between atoms: C15_19  and  O2_2 
REMARK    2  A    between atoms: C11_15  and  O4_4 
REMARK    3  A    between atoms: C2_6  and  C4_8 
ROOT
HETATM    1  O1  UNK     1      16.876   7.229  32.116  1.00  0.00    -0.309 OA
HETATM    2  O3  UNK     1      19.600   9.051  34.535  1.00  0.00    -0.287 OA
HETATM    3  C1  UNK     1      17.451   9.099  33.555  1.00  0.00     0.048 A 
HETATM    4  C2  UNK     1      18.126   6.678  32.346  1.00  0.00     0.090 A 
HETATM    5  C3  UNK     1      16.565   8.422  32.717  1.00  0.00     0.093 A 
HETATM    6  C5  UNK     1      18.775   8.513  33.809  1.00  0.00     0.187 A 
HETATM    7  C6  UNK     1      19.061   7.229  33.136  1.00  0.00     0.093 A 
HETATM    8  C7  UNK     1      17.081  10.312  34.140  1.00  0.00     0.021 A 
HETATM    9  C8  UNK     1      15.303   8.956  32.461  1.00  0.00     0.074 A 
HETATM   10  C11 UNK     1      14.929  10.167  33.044  1.00  0.00     0.068 A 
HETATM   11  C12 UNK     1      15.817  10.843  33.882  1.00  0.00     0.037 A 
ENDROOT
BRANCH   4  12
HETATM   12  C4  UNK     1      18.352   5.392  31.657  1.00  0.00    -0.002 A 
HETATM   13  C10 UNK     1      18.858   5.373  30.354  1.00  0.00     0.017 A 
HETATM   14  C14 UNK     1      19.070   4.159  29.703  1.00  0.00     0.037 A 
HETATM   15  C15 UNK     1      18.780   2.959  30.352  1.00  0.00     0.068 A 
HETATM   16  C13 UNK     1      18.276   2.973  31.652  1.00  0.00     0.037 A 
HETATM   17  C9  UNK     1      18.063   4.188  32.303  1.00  0.00     0.017 A 
BRANCH  15  18
HETATM   18  O2  UNK     1      18.987   1.773  29.715  1.00  0.00    -0.356 OA
HETATM   19  C16 UNK     1      18.101   1.449  28.645  1.00  0.00     0.210 C 
ENDBRANCH  15  18
ENDBRANCH   4  12
BRANCH  10  20
HETATM   20  O4  UNK     1      13.697  10.691  32.796  1.00  0.00    -0.361 OA
HETATM   21  H9  UNK     1      13.751  11.262  32.011  1.00  0.00     0.217 HD
ENDBRANCH  10  20
TORSDOF 3
ENDMDL
MODEL 6
REMARK VINA RESULT:      -7.7      3.686      5.146
REMARK  3 active torsions:
REMARK  status: ('A' for Active; 'I' for Inactive)
REMARK    1  A    between atoms: C15_19  and  O2_2 
REMARK    2  A    between atoms: C11_15  and  O4_4 
REMARK    3  A    between atoms: C2_6  and  C4_8 
ROOT
HETATM    1  O1  UNK     1      18.858   0.518  34.398  1.00  0.00    -0.309 OA
HETATM    2  O3  UNK     1      17.387   1.023  38.163  1.00  0.00    -0.287 OA
HETATM    3  C1  UNK     1      18.414  -0.416  36.596  1.00  0.00     0.048 A 
HETATM    4  C2  UNK     1      18.300   1.719  34.806  1.00  0.00     0.090 A 
HETATM    5  C3  UNK     1      18.901  -0.521  35.294  1.00  0.00     0.093 A 
HETATM    6  C5  UNK     1      17.830   0.860  37.035  1.00  0.00     0.187 A 
HETATM    7  C6  UNK     1      17.805   1.945  36.033  1.00  0.00     0.093 A 
HETATM    8  C7  UNK     1      18.485  -1.507  37.465  1.00  0.00     0.021 A 
HETATM    9  C8  UNK     1      19.462  -1.719  34.853  1.00  0.00     0.074 A 
HETATM   10  C11 UNK     1      19.533  -2.811  35.718  1.00  0.00     0.068 A 
HETATM   11  C12 UNK     1      19.046  -2.705  37.022  1.00  0.00     0.037 A 
ENDROOT
BRANCH   4  12
HETATM   12  C4  UNK     1      18.311   2.769  33.767  1.00  0.00    -0.002 A 
HETATM   13  C10 UNK     1      18.268   2.419  32.415  1.00  0.00     0.017 A 
HETATM   14  C14 UNK     1      18.280   3.410  31.434  1.00  0.00     0.037 A 
HETATM   15  C15 UNK     1      18.331   4.755  31.802  1.00  0.00     0.068 A 
HETATM   16  C13 UNK     1      18.373   5.109  33.150  1.00  0.00     0.037 A 
HETATM   17  C9  UNK     1      18.362   4.117  34.131  1.00  0.00     0.017 A 
BRANCH  15  18
HETATM   18  O2  UNK     1      18.343   5.723  30.844  1.00  0.00    -0.356 OA
HETATM   19  C16 UNK     1      19.512   5.817  30.032  1.00  0.00     0.210 C 
ENDBRANCH  15  18
ENDBRANCH   4  12
BRANCH  10  20
HETATM   20  O4  UNK     1      20.080  -3.983  35.291  1.00  0.00    -0.361 OA
HETATM   21  H9  UNK     1      19.440  -4.701  35.438  1.00  0.00     0.217 HD
ENDBRANCH  10  20
TORSDOF 3
ENDMDL
MODEL 7
REMARK VINA RESULT:      -7.6      2.215      8.476
REMARK  3 active torsions:
REMARK  status: ('A' for Active; 'I' for Inactive)
REMARK    1  A    between atoms: C15_19  and  O2_2 
REMARK    2  A    between atoms: C11_15  and  O4_4 
REMARK    3  A    between atoms: C2_6  and  C4_8 
ROOT
HETATM    1  O1  UNK     1      16.668   5.722  32.367  1.00  0.00    -0.309 OA
HETATM    2  O3  UNK     1      19.042   7.645  35.063  1.00  0.00    -0.287 OA
HETATM    3  C1  UNK     1      17.009   7.608  33.860  1.00  0.00     0.048 A 
HETATM    4  C2  UNK     1      17.910   5.223  32.729  1.00  0.00     0.090 A 
HETATM    5  C3  UNK     1      16.246   6.899  32.933  1.00  0.00     0.093 A 
HETATM    6  C5  UNK     1      18.322   7.077  34.253  1.00  0.00     0.187 A 
HETATM    7  C6  UNK     1      18.731   5.809  33.614  1.00  0.00     0.093 A 
HETATM    8  C7  UNK     1      16.528   8.801  34.403  1.00  0.00     0.021 A 
HETATM    9  C8  UNK     1      14.996   7.380  32.545  1.00  0.00     0.074 A 
HETATM   10  C11 UNK     1      14.513   8.572  33.085  1.00  0.00     0.068 A 
HETATM   11  C12 UNK     1      15.277   9.281  34.013  1.00  0.00     0.037 A 
ENDROOT
BRANCH   4  12
HETATM   12  C4  UNK     1      18.261   3.951  32.067  1.00  0.00    -0.002 A 
HETATM   13  C10 UNK     1      18.226   2.753  32.785  1.00  0.00     0.017 A 
HETATM   14  C14 UNK     1      18.560   1.552  32.160  1.00  0.00     0.037 A 
HETATM   15  C15 UNK     1      18.926   1.543  30.814  1.00  0.00     0.068 A 
HETATM   16  C13 UNK     1      18.961   2.737  30.094  1.00  0.00     0.037 A 
HETATM   17  C9  UNK     1      18.629   3.939  30.719  1.00  0.00     0.017 A 
BRANCH  15  18
HETATM   18  O2  UNK     1      19.252   0.370  30.205  1.00  0.00    -0.356 OA
HETATM   19  C16 UNK     1      20.549  -0.161  30.472  1.00  0.00     0.210 C 
ENDBRANCH  15  18
ENDBRANCH   4  12
BRANCH  10  20
HETATM   20  O4  UNK     1      13.293   9.045  32.708  1.00  0.00    -0.361 OA
HETATM   21  H9  UNK     1      13.281   9.148  31.741  1.00  0.00     0.217 HD
ENDBRANCH  10  20
TORSDOF 3
ENDMDL
MODEL 8
REMARK VINA RESULT:      -7.5      3.157      4.270
REMARK  3 active torsions:
REMARK  status: ('A' for Active; 'I' for Inactive)
REMARK    1  A    between atoms: C15_19  and  O2_2 
REMARK    2  A    between atoms: C11_15  and  O4_4 
REMARK    3  A    between atoms: C2_6  and  C4_8 
ROOT
HETATM    1  O1  UNK     1      18.253   3.869  34.416  1.00  0.00    -0.309 OA
HETATM    2  O3  UNK     1      18.307   1.772  30.924  1.00  0.00    -0.287 OA
HETATM    3  C1  UNK     1      18.306   1.719  33.286  1.00  0.00     0.048 A 
HETATM    4  C2  UNK     1      18.251   4.506  33.186  1.00  0.00     0.090 A 
HETATM    5  C3  UNK     1      18.284   2.497  34.443  1.00  0.00     0.093 A 
HETATM    6  C5  UNK     1      18.293   2.392  31.978  1.00  0.00     0.187 A 
HETATM    7  C6  UNK     1      18.262   3.869  32.004  1.00  0.00     0.093 A 
HETATM    8  C7  UNK     1      18.337   0.326  33.374  1.00  0.00     0.021 A 
HETATM    9  C8  UNK     1      18.294   1.884  35.696  1.00  0.00     0.074 A 
HETATM   10  C11 UNK     1      18.326   0.493  35.787  1.00  0.00     0.068 A 
HETATM   11  C12 UNK     1      18.346  -0.284  34.628  1.00  0.00     0.037 A 
ENDROOT
BRANCH   4  12
HETATM   12  C4  UNK     1      18.209   5.980  33.273  1.00  0.00    -0.002 A 
HETATM   13  C10 UNK     1      19.235   6.673  33.921  1.00  0.00     0.017 A 
HETATM   14  C14 UNK     1      19.195   8.065  34.005  1.00  0.00     0.037 A 
HETATM   15  C15 UNK     1      18.132   8.768  33.437  1.00  0.00     0.068 A 
HETATM   16  C13 UNK     1      17.108   8.079  32.788  1.00  0.00     0.037 A 
HETATM   17  C9  UNK     1      17.147   6.687  32.706  1.00  0.00     0.017 A 
BRANCH  15  18
HETATM   18  O2  UNK     1      18.094  10.126  33.519  1.00  0.00    -0.356 OA
HETATM   19  C16 UNK     1      16.943  10.707  34.129  1.00  0.00     0.210 C 
ENDBRANCH  15  18
ENDBRANCH   4  12
BRANCH  10  20
HETATM   20  O4  UNK     1      18.335  -0.109  37.009  1.00  0.00    -0.361 OA
HETATM   21  H9  UNK     1      19.184  -0.567  37.127  1.00  0.00     0.217 HD
ENDBRANCH  10  20
TORSDOF 3
ENDMDL
MODEL 9
REMARK VINA RESULT:      -7.5     13.404     15.881
REMARK  3 active torsions:
REMARK  status: ('A' for Active; 'I' for Inactive)
REMARK    1  A    between atoms: C15_19  and  O2_2 
REMARK    2  A    between atoms: C11_15  and  O4_4 
REMARK    3  A    between atoms: C2_6  and  C4_8 
ROOT
HETATM    1  O1  UNK     1      19.593  -0.783  14.848  1.00  0.00    -0.309 OA
HETATM    2  O3  UNK     1      17.651  -4.359  15.038  1.00  0.00    -0.287 OA
HETATM    3  C1  UNK     1      18.953  -2.858  13.759  1.00  0.00     0.048 A 
HETATM    4  C2  UNK     1      18.910  -1.180  15.986  1.00  0.00     0.090 A 
HETATM    5  C3  UNK     1      19.598  -1.622  13.762  1.00  0.00     0.093 A 
HETATM    6  C5  UNK     1      18.236  -3.287  14.969  1.00  0.00     0.187 A 
HETATM    7  C6  UNK     1      18.258  -2.346  16.109  1.00  0.00     0.093 A 
HETATM    8  C7  UNK     1      18.991  -3.671  12.625  1.00  0.00     0.021 A 
HETATM    9  C8  UNK     1      20.286  -1.192  12.628  1.00  0.00     0.074 A 
HETATM   10  C11 UNK     1      20.327  -2.002  11.492  1.00  0.00     0.068 A 
HETATM   11  C12 UNK     1      19.681  -3.239  11.492  1.00  0.00     0.037 A 
ENDROOT
BRANCH   4  12
HETATM   12  C4  UNK     1      18.975  -0.206  17.095  1.00  0.00    -0.002 A 
HETATM   13  C10 UNK     1      18.990  -0.651  18.420  1.00  0.00     0.017 A 
HETATM   14  C14 UNK     1      19.050   0.268  19.466  1.00  0.00     0.037 A 
HETATM   15  C15 UNK     1      19.098   1.636  19.193  1.00  0.00     0.068 A 
HETATM   16  C13 UNK     1      19.085   2.083  17.872  1.00  0.00     0.037 A 
HETATM   17  C9  UNK     1      19.023   1.164  16.825  1.00  0.00     0.017 A 
BRANCH  15  18
HETATM   18  O2  UNK     1      19.156   2.532  20.215  1.00  0.00    -0.356 OA
HETATM   19  C16 UNK     1      19.698   2.072  21.452  1.00  0.00     0.210 C 
ENDBRANCH  15  18
ENDBRANCH   4  12
BRANCH  10  20
HETATM   20  O4  UNK     1      20.998  -1.586  10.383  1.00  0.00    -0.361 OA
HETATM   21  H9  UNK     1      21.199  -0.638  10.474  1.00  0.00     0.217 HD
ENDBRANCH  10  20
TORSDOF 3
ENDMDL
MODEL 10
REMARK VINA RESULT:      -7.5      6.416      9.630
REMARK  3 active torsions:
REMARK  status: ('A' for Active; 'I' for Inactive)
REMARK    1  A    between atoms: C15_19  and  O2_2 
REMARK    2  A    between atoms: C11_15  and  O4_4 
REMARK    3  A    between atoms: C2_6  and  C4_8 
ROOT
HETATM    1  O1  UNK     1      20.557  -6.153  35.700  1.00  0.00    -0.309 OA
HETATM    2  O3  UNK     1      20.762  -7.282  39.609  1.00  0.00    -0.287 OA
HETATM    3  C1  UNK     1      20.973  -7.898  37.338  1.00  0.00     0.048 A 
HETATM    4  C2  UNK     1      20.291  -5.263  36.729  1.00  0.00     0.090 A 
HETATM    5  C3  UNK     1      20.887  -7.445  36.022  1.00  0.00     0.093 A 
HETATM    6  C5  UNK     1      20.702  -6.954  38.432  1.00  0.00     0.187 A 
HETATM    7  C6  UNK     1      20.348  -5.576  38.033  1.00  0.00     0.093 A 
HETATM    8  C7  UNK     1      21.315  -9.225  37.606  1.00  0.00     0.021 A 
HETATM    9  C8  UNK     1      21.142  -8.320  34.966  1.00  0.00     0.074 A 
HETATM   10  C11 UNK     1      21.482  -9.647  35.230  1.00  0.00     0.068 A 
HETATM   11  C12 UNK     1      21.569 -10.098  36.548  1.00  0.00     0.037 A 
ENDROOT
BRANCH   4  12
HETATM   12  C4  UNK     1      19.953  -3.900  36.271  1.00  0.00    -0.002 A 
HETATM   13  C10 UNK     1      19.332  -3.001  37.142  1.00  0.00     0.017 A 
HETATM   14  C14 UNK     1      19.012  -1.715  36.710  1.00  0.00     0.037 A 
HETATM   15  C15 UNK     1      19.314  -1.321  35.406  1.00  0.00     0.068 A 
HETATM   16  C13 UNK     1      19.935  -2.215  34.534  1.00  0.00     0.037 A 
HETATM   17  C9  UNK     1      20.254  -3.503  34.966  1.00  0.00     0.017 A 
BRANCH  15  18
HETATM   18  O2  UNK     1      19.001  -0.065  34.985  1.00  0.00    -0.356 OA
HETATM   19  C16 UNK     1      18.629   0.881  35.986  1.00  0.00     0.210 C 
ENDBRANCH  15  18
ENDBRANCH   4  12
BRANCH  10  20
HETATM   20  O4  UNK     1      21.732 -10.503  34.201  1.00  0.00    -0.361 OA
HETATM   21  H9  UNK     1      21.349 -10.135  33.386  1.00  0.00     0.217 HD
ENDBRANCH  10  20
TORSDOF 3
ENDMDL
