MODEL 1
REMARK VINA RESULT:      -8.6      0.000      0.000
REMARK  2 active torsions:
REMARK  status: ('A' for Active; 'I' for Inactive)
REMARK    1  A    between atoms: C7_13  and  N2_5 
REMARK    2  A    between atoms: C1_7  and  C5_11 
ROOT
HETATM    1  O1  UNK     1      13.648  10.565  11.647  1.00  0.00    -0.274 OA
HETATM    2  O2  UNK     1      12.443   8.635  11.692  1.00  0.00    -0.259 OA
HETATM    3  N1  UNK     1      16.888   8.414  10.057  1.00  0.00    -0.340 N 
HETATM    4  N3  UNK     1      15.770   3.744   9.807  1.00  0.00    -0.191 NA
HETATM    5  C1  UNK     1      14.472   7.013  10.468  1.00  0.00     0.107 C 
HETATM    6  C2  UNK     1      14.641   8.501  10.795  1.00  0.00     0.059 A 
HETATM    7  C3  UNK     1      15.812   9.122  10.554  1.00  0.00     0.060 A 
HETATM    8  C4  UNK     1      15.787   6.324  10.061  1.00  0.00     0.079 C 
HETATM    9  C6  UNK     1      15.949  10.560  10.835  1.00  0.00     0.025 A 
HETATM   10  C7  UNK     1      16.925   7.039   9.853  1.00  0.00     0.117 C 
HETATM   11  C8  UNK     1      13.489   9.210  11.407  1.00  0.00     0.298 A 
HETATM   12  C9  UNK     1      14.853  11.237  11.370  1.00  0.00     0.092 A 
HETATM   13  C12 UNK     1      17.110  11.310  10.594  1.00  0.00     0.016 A 
HETATM   14  C13 UNK     1      14.882  12.603  11.663  1.00  0.00     0.038 A 
HETATM   15  C14 UNK     1      15.778   4.898   9.920  1.00  0.00     0.100 C 
HETATM   16  C15 UNK     1      17.156  12.680  10.884  1.00  0.00     0.001 A 
HETATM   17  C18 UNK     1      16.043  13.325  11.417  1.00  0.00     0.003 A 
HETATM   18  H2  UNK     1      17.759   8.898   9.886  1.00  0.00     0.167 HD
ENDROOT
BRANCH   5  19
HETATM   19  C5  UNK     1      13.450   6.835   9.381  1.00  0.00    -0.044 A 
HETATM   20  C10 UNK     1      13.593   7.528   8.186  1.00  0.00     0.010 A 
HETATM   21  C16 UNK     1      12.644   7.362   7.176  1.00  0.00     0.024 A 
HETATM   22  C19 UNK     1      11.562   6.505   7.370  1.00  0.00     0.034 A 
HETATM   23  C17 UNK     1      11.427   5.813   8.574  1.00  0.00     0.024 A 
HETATM   24 Cl1  UNK     1      10.392   6.299   6.124  1.00  0.00    -0.084 Cl
HETATM   25  C11 UNK     1      12.375   5.978   9.583  1.00  0.00     0.010 A 
ENDBRANCH   5  19
BRANCH  10  26
HETATM   26  N2  UNK     1      18.107   6.454   9.463  1.00  0.00    -0.384 N 
HETATM   27  H7  UNK     1      18.891   7.015   9.154  1.00  0.00     0.157 HD
HETATM   28  H8  UNK     1      18.185   5.446   9.490  1.00  0.00     0.157 HD
ENDBRANCH  10  26
TORSDOF 2
ENDMDL
MODEL 2
REMARK VINA RESULT:      -8.0     32.835     34.560
REMARK  2 active torsions:
REMARK  status: ('A' for Active; 'I' for Inactive)
REMARK    1  A    between atoms: C7_13  and  N2_5 
REMARK    2  A    between atoms: C1_7  and  C5_11 
ROOT
HETATM    1  O1  UNK     1      30.625  -9.320  37.233  1.00  0.00    -0.274 OA
HETATM    2  O2  UNK     1      32.430  -9.348  35.848  1.00  0.00    -0.259 OA
HETATM    3  N1  UNK     1      30.696  -5.122  37.116  1.00  0.00    -0.340 N 
HETATM    4  N3  UNK     1      34.467  -3.633  34.529  1.00  0.00    -0.191 NA
HETATM    5  C1  UNK     1      32.559  -6.500  35.504  1.00  0.00     0.107 C 
HETATM    6  C2  UNK     1      31.541  -7.213  36.401  1.00  0.00     0.059 A 
HETATM    7  C3  UNK     1      30.660  -6.501  37.130  1.00  0.00     0.060 A 
HETATM    8  C4  UNK     1      32.581  -4.974  35.699  1.00  0.00     0.079 C 
HETATM    9  C6  UNK     1      29.662  -7.199  37.956  1.00  0.00     0.025 A 
HETATM   10  C7  UNK     1      31.652  -4.345  36.469  1.00  0.00     0.117 C 
HETATM   11  C8  UNK     1      31.587  -8.696  36.455  1.00  0.00     0.298 A 
HETATM   12  C9  UNK     1      29.675  -8.593  37.974  1.00  0.00     0.092 A 
HETATM   13  C12 UNK     1      28.681  -6.557  38.729  1.00  0.00     0.016 A 
HETATM   14  C13 UNK     1      28.765  -9.345  38.721  1.00  0.00     0.038 A 
HETATM   15  C14 UNK     1      33.623  -4.233  35.053  1.00  0.00     0.100 C 
HETATM   16  C15 UNK     1      27.761  -7.296  39.483  1.00  0.00     0.001 A 
HETATM   17  C18 UNK     1      27.803  -8.689  39.479  1.00  0.00     0.003 A 
HETATM   18  H2  UNK     1      30.028  -4.606  37.673  1.00  0.00     0.167 HD
ENDROOT
BRANCH   5  19
HETATM   19  C5  UNK     1      32.291  -6.822  34.061  1.00  0.00    -0.044 A 
HETATM   20  C10 UNK     1      31.042  -6.549  33.518  1.00  0.00     0.010 A 
HETATM   21  C16 UNK     1      30.794  -6.847  32.177  1.00  0.00     0.024 A 
HETATM   22  C19 UNK     1      31.797  -7.414  31.392  1.00  0.00     0.034 A 
HETATM   23  C17 UNK     1      33.049  -7.684  31.946  1.00  0.00     0.024 A 
HETATM   24 Cl1  UNK     1      31.491  -7.781  29.738  1.00  0.00    -0.084 Cl
HETATM   25  C11 UNK     1      33.297  -7.386  33.286  1.00  0.00     0.010 A 
ENDBRANCH   5  19
BRANCH  10  26
HETATM   26  N2  UNK     1      31.631  -2.981  36.640  1.00  0.00    -0.384 N 
HETATM   27  H7  UNK     1      30.919  -2.411  36.201  1.00  0.00     0.157 HD
HETATM   28  H8  UNK     1      32.341  -2.550  37.217  1.00  0.00     0.157 HD
ENDBRANCH  10  26
TORSDOF 2
ENDMDL
MODEL 3
REMARK VINA RESULT:      -7.8     32.640     34.330
REMARK  2 active torsions:
REMARK  status: ('A' for Active; 'I' for Inactive)
REMARK    1  A    between atoms: C7_13  and  N2_5 
REMARK    2  A    between atoms: C1_7  and  C5_11 
ROOT
HETATM    1  O1  UNK     1      29.187  -7.292  33.379  1.00  0.00    -0.274 OA
HETATM    2  O2  UNK     1      27.501  -6.743  34.806  1.00  0.00    -0.259 OA
HETATM    3  N1  UNK     1      31.935  -5.736  36.148  1.00  0.00    -0.340 N 
HETATM    4  N3  UNK     1      29.579  -3.839  39.886  1.00  0.00    -0.191 NA
HETATM    5  C1  UNK     1      29.215  -5.776  36.898  1.00  0.00     0.107 C 
HETATM    6  C2  UNK     1      29.716  -6.293  35.546  1.00  0.00     0.059 A 
HETATM    7  C3  UNK     1      31.031  -6.270  35.253  1.00  0.00     0.060 A 
HETATM    8  C4  UNK     1      30.307  -5.079  37.729  1.00  0.00     0.079 C 
HETATM    9  C6  UNK     1      31.504  -6.807  33.967  1.00  0.00     0.025 A 
HETATM   10  C7  UNK     1      31.611  -5.101  37.343  1.00  0.00     0.117 C 
HETATM   11  C8  UNK     1      28.705  -6.783  34.574  1.00  0.00     0.298 A 
HETATM   12  C9  UNK     1      30.559  -7.308  33.072  1.00  0.00     0.092 A 
HETATM   13  C12 UNK     1      32.851  -6.861  33.575  1.00  0.00     0.016 A 
HETATM   14  C13 UNK     1      30.910  -7.844  31.830  1.00  0.00     0.038 A 
HETATM   15  C14 UNK     1      29.905  -4.394  38.921  1.00  0.00     0.100 C 
HETATM   16  C15 UNK     1      33.219  -7.395  32.334  1.00  0.00     0.001 A 
HETATM   17  C18 UNK     1      32.250  -7.886  31.463  1.00  0.00     0.003 A 
HETATM   18  H2  UNK     1      32.918  -5.726  35.909  1.00  0.00     0.167 HD
ENDROOT
BRANCH   5  19
HETATM   19  C5  UNK     1      28.615  -6.901  37.692  1.00  0.00    -0.044 A 
HETATM   20  C10 UNK     1      29.363  -8.047  37.930  1.00  0.00     0.010 A 
HETATM   21  C16 UNK     1      28.807  -9.093  38.668  1.00  0.00     0.024 A 
HETATM   22  C19 UNK     1      27.507  -8.982  39.163  1.00  0.00     0.034 A 
HETATM   23  C17 UNK     1      26.764  -7.827  38.919  1.00  0.00     0.024 A 
HETATM   24 Cl1  UNK     1      26.821 -10.271  40.074  1.00  0.00    -0.084 Cl
HETATM   25  C11 UNK     1      27.320  -6.782  38.182  1.00  0.00     0.010 A 
ENDBRANCH   5  19
BRANCH  10  26
HETATM   26  N2  UNK     1      32.612  -4.512  38.079  1.00  0.00    -0.384 N 
HETATM   27  H7  UNK     1      32.476  -3.611  38.520  1.00  0.00     0.157 HD
HETATM   28  H8  UNK     1      33.495  -4.996  38.176  1.00  0.00     0.157 HD
ENDBRANCH  10  26
TORSDOF 2
ENDMDL
MODEL 4
REMARK VINA RESULT:      -7.7     30.655     32.435
REMARK  2 active torsions:
REMARK  status: ('A' for Active; 'I' for Inactive)
REMARK    1  A    between atoms: C7_13  and  N2_5 
REMARK    2  A    between atoms: C1_7  and  C5_11 
ROOT
HETATM    1  O1  UNK     1      31.534  -9.126  34.880  1.00  0.00    -0.274 OA
HETATM    2  O2  UNK     1      30.129 -10.162  33.419  1.00  0.00    -0.259 OA
HETATM    3  N1  UNK     1      33.538  -7.405  31.614  1.00  0.00    -0.340 N 
HETATM    4  N3  UNK     1      31.646  -9.036  27.504  1.00  0.00    -0.191 NA
HETATM    5  C1  UNK     1      31.254  -8.968  31.061  1.00  0.00     0.107 C 
HETATM    6  C2  UNK     1      31.778  -8.727  32.481  1.00  0.00     0.059 A 
HETATM    7  C3  UNK     1      32.860  -7.951  32.685  1.00  0.00     0.060 A 
HETATM    8  C4  UNK     1      32.187  -8.424  29.965  1.00  0.00     0.079 C 
HETATM    9  C6  UNK     1      33.329  -7.695  34.056  1.00  0.00     0.025 A 
HETATM   10  C7  UNK     1      33.267  -7.657  30.273  1.00  0.00     0.117 C 
HETATM   11  C8  UNK     1      31.073  -9.400  33.602  1.00  0.00     0.298 A 
HETATM   12  C9  UNK     1      32.642  -8.291  35.113  1.00  0.00     0.092 A 
HETATM   13  C12 UNK     1      34.424  -6.880  34.382  1.00  0.00     0.016 A 
HETATM   14  C13 UNK     1      33.006  -8.103  36.448  1.00  0.00     0.038 A 
HETATM   15  C14 UNK     1      31.888  -8.762  28.605  1.00  0.00     0.100 C 
HETATM   16  C15 UNK     1      34.803  -6.682  35.716  1.00  0.00     0.001 A 
HETATM   17  C18 UNK     1      34.094  -7.292  36.748  1.00  0.00     0.003 A 
HETATM   18  H2  UNK     1      34.350  -6.828  31.788  1.00  0.00     0.167 HD
ENDROOT
BRANCH   5  19
HETATM   19  C5  UNK     1      29.886  -8.367  30.906  1.00  0.00    -0.044 A 
HETATM   20  C10 UNK     1      28.823  -9.172  30.514  1.00  0.00     0.010 A 
HETATM   21  C16 UNK     1      27.552  -8.615  30.371  1.00  0.00     0.024 A 
HETATM   22  C19 UNK     1      27.354  -7.257  30.622  1.00  0.00     0.034 A 
HETATM   23  C17 UNK     1      28.427  -6.457  31.015  1.00  0.00     0.024 A 
HETATM   24 Cl1  UNK     1      25.786  -6.569  30.446  1.00  0.00    -0.084 Cl
HETATM   25  C11 UNK     1      29.697  -7.014  31.159  1.00  0.00     0.010 A 
ENDBRANCH   5  19
BRANCH  10  26
HETATM   26  N2  UNK     1      34.102  -7.133  29.314  1.00  0.00    -0.384 N 
HETATM   27  H7  UNK     1      34.545  -6.232  29.442  1.00  0.00     0.157 HD
HETATM   28  H8  UNK     1      34.271  -7.666  28.471  1.00  0.00     0.157 HD
ENDBRANCH  10  26
TORSDOF 2
ENDMDL
MODEL 5
REMARK VINA RESULT:      -7.6     32.508     34.369
REMARK  2 active torsions:
REMARK  status: ('A' for Active; 'I' for Inactive)
REMARK    1  A    between atoms: C7_13  and  N2_5 
REMARK    2  A    between atoms: C1_7  and  C5_11 
ROOT
HETATM    1  O1  UNK     1      28.956  -6.753  38.718  1.00  0.00    -0.274 OA
HETATM    2  O2  UNK     1      30.121  -5.017  37.818  1.00  0.00    -0.259 OA
HETATM    3  N1  UNK     1      28.272  -8.207  34.837  1.00  0.00    -0.340 N 
HETATM    4  N3  UNK     1      30.112  -5.154  31.610  1.00  0.00    -0.191 NA
HETATM    5  C1  UNK     1      29.906  -5.921  35.100  1.00  0.00     0.107 C 
HETATM    6  C2  UNK     1      29.274  -6.638  36.298  1.00  0.00     0.059 A 
HETATM    7  C3  UNK     1      28.522  -7.741  36.112  1.00  0.00     0.060 A 
HETATM    8  C4  UNK     1      29.425  -6.461  33.742  1.00  0.00     0.079 C 
HETATM    9  C6  UNK     1      27.954  -8.444  37.273  1.00  0.00     0.025 A 
HETATM   10  C7  UNK     1      28.655  -7.578  33.657  1.00  0.00     0.117 C 
HETATM   11  C8  UNK     1      29.495  -6.059  37.647  1.00  0.00     0.298 A 
HETATM   12  C9  UNK     1      28.198  -7.925  38.545  1.00  0.00     0.092 A 
HETATM   13  C12 UNK     1      27.185  -9.615  37.195  1.00  0.00     0.016 A 
HETATM   14  C13 UNK     1      27.708  -8.524  39.708  1.00  0.00     0.038 A 
HETATM   15  C14 UNK     1      29.805  -5.738  32.564  1.00  0.00     0.100 C 
HETATM   16  C15 UNK     1      26.686 -10.227  38.352  1.00  0.00     0.001 A 
HETATM   17  C18 UNK     1      26.948  -9.682  39.607  1.00  0.00     0.003 A 
HETATM   18  H2  UNK     1      27.703  -9.035  34.719  1.00  0.00     0.167 HD
ENDROOT
BRANCH   5  19
HETATM   19  C5  UNK     1      31.403  -6.006  35.177  1.00  0.00    -0.044 A 
HETATM   20  C10 UNK     1      32.014  -7.248  35.303  1.00  0.00     0.010 A 
HETATM   21  C16 UNK     1      33.406  -7.328  35.374  1.00  0.00     0.024 A 
HETATM   22  C19 UNK     1      34.174  -6.165  35.318  1.00  0.00     0.034 A 
HETATM   23  C17 UNK     1      33.552  -4.923  35.192  1.00  0.00     0.024 A 
HETATM   24 Cl1  UNK     1      35.890  -6.264  35.405  1.00  0.00    -0.084 Cl
HETATM   25  C11 UNK     1      32.161  -4.843  35.121  1.00  0.00     0.010 A 
ENDBRANCH   5  19
BRANCH  10  26
HETATM   26  N2  UNK     1      28.233  -8.100  32.456  1.00  0.00    -0.384 N 
HETATM   27  H7  UNK     1      28.407  -7.614  31.586  1.00  0.00     0.157 HD
HETATM   28  H8  UNK     1      27.745  -8.985  32.454  1.00  0.00     0.157 HD
ENDBRANCH  10  26
TORSDOF 2
ENDMDL
MODEL 6
REMARK VINA RESULT:      -7.5     32.071     33.672
REMARK  2 active torsions:
REMARK  status: ('A' for Active; 'I' for Inactive)
REMARK    1  A    between atoms: C7_13  and  N2_5 
REMARK    2  A    between atoms: C1_7  and  C5_11 
ROOT
HETATM    1  O1  UNK     1      30.120  -7.904  36.651  1.00  0.00    -0.274 OA
HETATM    2  O2  UNK     1      31.067  -9.264  35.091  1.00  0.00    -0.259 OA
HETATM    3  N1  UNK     1      32.835  -4.890  35.561  1.00  0.00    -0.340 N 
HETATM    4  N3  UNK     1      35.882  -6.570  32.242  1.00  0.00    -0.191 NA
HETATM    5  C1  UNK     1      32.901  -7.295  34.086  1.00  0.00     0.107 C 
HETATM    6  C2  UNK     1      31.929  -7.052  35.245  1.00  0.00     0.059 A 
HETATM    7  C3  UNK     1      31.927  -5.873  35.897  1.00  0.00     0.060 A 
HETATM    8  C4  UNK     1      33.945  -6.176  33.920  1.00  0.00     0.079 C 
HETATM    9  C6  UNK     1      30.961  -5.638  36.982  1.00  0.00     0.025 A 
HETATM   10  C7  UNK     1      33.865  -5.023  34.636  1.00  0.00     0.117 C 
HETATM   11  C8  UNK     1      31.024  -8.164  35.634  1.00  0.00     0.298 A 
HETATM   12  C9  UNK     1      30.081  -6.667  37.319  1.00  0.00     0.092 A 
HETATM   13  C12 UNK     1      30.853  -4.440  37.704  1.00  0.00     0.016 A 
HETATM   14  C13 UNK     1      29.125  -6.537  38.329  1.00  0.00     0.038 A 
HETATM   15  C14 UNK     1      35.015  -6.394  32.993  1.00  0.00     0.100 C 
HETATM   16  C15 UNK     1      29.899  -4.294  38.720  1.00  0.00     0.001 A 
HETATM   17  C18 UNK     1      29.036  -5.342  39.031  1.00  0.00     0.003 A 
HETATM   18  H2  UNK     1      32.819  -4.012  36.064  1.00  0.00     0.167 HD
ENDROOT
BRANCH   5  19
HETATM   19  C5  UNK     1      32.142  -7.473  32.803  1.00  0.00    -0.044 A 
HETATM   20  C10 UNK     1      31.241  -6.497  32.398  1.00  0.00     0.010 A 
HETATM   21  C16 UNK     1      30.536  -6.662  31.205  1.00  0.00     0.024 A 
HETATM   22  C19 UNK     1      30.738  -7.802  30.427  1.00  0.00     0.034 A 
HETATM   23  C17 UNK     1      31.646  -8.777  30.842  1.00  0.00     0.024 A 
HETATM   24 Cl1  UNK     1      29.869  -8.005  28.955  1.00  0.00    -0.084 Cl
HETATM   25  C11 UNK     1      32.351  -8.612  32.034  1.00  0.00     0.010 A 
ENDBRANCH   5  19
BRANCH  10  26
HETATM   26  N2  UNK     1      34.767  -3.995  34.489  1.00  0.00    -0.384 N 
HETATM   27  H7  UNK     1      35.616  -3.962  35.039  1.00  0.00     0.157 HD
HETATM   28  H8  UNK     1      34.569  -3.266  33.817  1.00  0.00     0.157 HD
ENDBRANCH  10  26
TORSDOF 2
ENDMDL
MODEL 7
REMARK VINA RESULT:      -7.5      3.671      6.704
REMARK  2 active torsions:
REMARK  status: ('A' for Active; 'I' for Inactive)
REMARK    1  A    between atoms: C7_13  and  N2_5 
REMARK    2  A    between atoms: C1_7  and  C5_11 
ROOT
HETATM    1  O1  UNK     1      13.172   6.064   7.668  1.00  0.00    -0.274 OA
HETATM    2  O2  UNK     1      15.021   6.373   8.960  1.00  0.00    -0.259 OA
HETATM    3  N1  UNK     1      11.166   8.937   9.985  1.00  0.00    -0.340 N 
HETATM    4  N3  UNK     1      14.016  10.418  13.564  1.00  0.00    -0.191 NA
HETATM    5  C1  UNK     1      13.889   8.472  10.562  1.00  0.00     0.107 C 
HETATM    6  C2  UNK     1      13.132   7.731   9.455  1.00  0.00     0.059 A 
HETATM    7  C3  UNK     1      11.837   8.013   9.210  1.00  0.00     0.060 A 
HETATM    8  C4  UNK     1      12.983   9.359  11.434  1.00  0.00     0.079 C 
HETATM    9  C6  UNK     1      11.132   7.324   8.117  1.00  0.00     0.025 A 
HETATM   10  C7  UNK     1      11.680   9.574  11.110  1.00  0.00     0.117 C 
HETATM   11  C8  UNK     1      13.863   6.684   8.697  1.00  0.00     0.298 A 
HETATM   12  C9  UNK     1      11.831   6.371   7.376  1.00  0.00     0.092 A 
HETATM   13  C12 UNK     1       9.797   7.563   7.757  1.00  0.00     0.016 A 
HETATM   14  C13 UNK     1      11.251   5.670   6.316  1.00  0.00     0.038 A 
HETATM   15  C14 UNK     1      13.554   9.944  12.611  1.00  0.00     0.100 C 
HETATM   16  C15 UNK     1       9.201   6.868   6.697  1.00  0.00     0.001 A 
HETATM   17  C18 UNK     1       9.928   5.922   5.978  1.00  0.00     0.003 A 
HETATM   18  H2  UNK     1      10.194   9.133   9.786  1.00  0.00     0.167 HD
ENDROOT
BRANCH   5  19
HETATM   19  C5  UNK     1      14.991   9.302   9.968  1.00  0.00    -0.044 A 
HETATM   20  C10 UNK     1      16.290   9.154  10.438  1.00  0.00     0.010 A 
HETATM   21  C16 UNK     1      17.315   9.925   9.886  1.00  0.00     0.024 A 
HETATM   22  C19 UNK     1      17.031  10.836   8.869  1.00  0.00     0.034 A 
HETATM   23  C17 UNK     1      15.723  10.977   8.403  1.00  0.00     0.024 A 
HETATM   24 Cl1  UNK     1      18.294  11.786   8.187  1.00  0.00    -0.084 Cl
HETATM   25  C11 UNK     1      14.700  10.207   8.955  1.00  0.00     0.010 A 
ENDBRANCH   5  19
BRANCH  10  26
HETATM   26  N2  UNK     1      10.855  10.384  11.854  1.00  0.00    -0.384 N 
HETATM   27  H7  UNK     1      11.209  10.908  12.644  1.00  0.00     0.157 HD
HETATM   28  H8  UNK     1       9.878  10.452  11.598  1.00  0.00     0.157 HD
ENDBRANCH  10  26
TORSDOF 2
ENDMDL
MODEL 8
REMARK VINA RESULT:      -7.4     31.198     33.125
REMARK  2 active torsions:
REMARK  status: ('A' for Active; 'I' for Inactive)
REMARK    1  A    between atoms: C7_13  and  N2_5 
REMARK    2  A    between atoms: C1_7  and  C5_11 
ROOT
HETATM    1  O1  UNK     1      29.490  -5.820  31.414  1.00  0.00    -0.274 OA
HETATM    2  O2  UNK     1      30.567  -4.189  32.581  1.00  0.00    -0.259 OA
HETATM    3  N1  UNK     1      32.181  -8.626  33.005  1.00  0.00    -0.340 N 
HETATM    4  N3  UNK     1      35.467  -6.378  35.702  1.00  0.00    -0.191 NA
HETATM    5  C1  UNK     1      32.403  -5.959  33.901  1.00  0.00     0.107 C 
HETATM    6  C2  UNK     1      31.356  -6.412  32.878  1.00  0.00     0.059 A 
HETATM    7  C3  UNK     1      31.283  -7.705  32.506  1.00  0.00     0.060 A 
HETATM    8  C4  UNK     1      33.423  -7.054  34.258  1.00  0.00     0.079 C 
HETATM    9  C6  UNK     1      30.248  -8.135  31.553  1.00  0.00     0.025 A 
HETATM   10  C7  UNK     1      33.269  -8.333  33.822  1.00  0.00     0.117 C 
HETATM   11  C8  UNK     1      30.461  -5.378  32.299  1.00  0.00     0.298 A 
HETATM   12  C9  UNK     1      29.378  -7.172  31.041  1.00  0.00     0.092 A 
HETATM   13  C12 UNK     1      30.063  -9.458  31.123  1.00  0.00     0.016 A 
HETATM   14  C13 UNK     1      28.359  -7.483  30.137  1.00  0.00     0.038 A 
HETATM   15  C14 UNK     1      34.553  -6.681  35.056  1.00  0.00     0.100 C 
HETATM   16  C15 UNK     1      29.046  -9.786  30.216  1.00  0.00     0.001 A 
HETATM   17  C18 UNK     1      28.195  -8.799  29.725  1.00  0.00     0.003 A 
HETATM   18  H2  UNK     1      32.112  -9.592  32.711  1.00  0.00     0.167 HD
ENDROOT
BRANCH   5  19
HETATM   19  C5  UNK     1      31.727  -5.471  35.150  1.00  0.00    -0.044 A 
HETATM   20  C10 UNK     1      30.715  -6.231  35.724  1.00  0.00     0.010 A 
HETATM   21  C16 UNK     1      30.087  -5.778  36.886  1.00  0.00     0.024 A 
HETATM   22  C19 UNK     1      30.477  -4.570  37.463  1.00  0.00     0.034 A 
HETATM   23  C17 UNK     1      31.494  -3.814  36.880  1.00  0.00     0.024 A 
HETATM   24 Cl1  UNK     1      29.704  -4.012  38.896  1.00  0.00    -0.084 Cl
HETATM   25  C11 UNK     1      32.122  -4.267  35.720  1.00  0.00     0.010 A 
ENDBRANCH   5  19
BRANCH  10  26
HETATM   26  N2  UNK     1      34.149  -9.339  34.147  1.00  0.00    -0.384 N 
HETATM   27  H7  UNK     1      35.074  -9.130  34.501  1.00  0.00     0.157 HD
HETATM   28  H8  UNK     1      33.856 -10.300  34.028  1.00  0.00     0.157 HD
ENDBRANCH  10  26
TORSDOF 2
ENDMDL
MODEL 9
REMARK VINA RESULT:      -7.3     33.245     34.752
REMARK  2 active torsions:
REMARK  status: ('A' for Active; 'I' for Inactive)
REMARK    1  A    between atoms: C7_13  and  N2_5 
REMARK    2  A    between atoms: C1_7  and  C5_11 
ROOT
HETATM    1  O1  UNK     1      32.706  -6.768  32.876  1.00  0.00    -0.274 OA
HETATM    2  O2  UNK     1      30.555  -6.154  33.296  1.00  0.00    -0.259 OA
HETATM    3  N1  UNK     1      33.639  -5.960  36.891  1.00  0.00    -0.340 N 
HETATM    4  N3  UNK     1      29.770  -4.195  39.135  1.00  0.00    -0.191 NA
HETATM    5  C1  UNK     1      30.942  -5.695  36.105  1.00  0.00     0.107 C 
HETATM    6  C2  UNK     1      32.056  -6.117  35.140  1.00  0.00     0.059 A 
HETATM    7  C3  UNK     1      33.323  -6.250  35.580  1.00  0.00     0.060 A 
HETATM    8  C4  UNK     1      31.462  -5.266  37.488  1.00  0.00     0.079 C 
HETATM    9  C6  UNK     1      34.376  -6.694  34.653  1.00  0.00     0.025 A 
HETATM   10  C7  UNK     1      32.766  -5.429  37.835  1.00  0.00     0.117 C 
HETATM   11  C8  UNK     1      31.692  -6.339  33.718  1.00  0.00     0.298 A 
HETATM   12  C9  UNK     1      34.027  -6.945  33.326  1.00  0.00     0.092 A 
HETATM   13  C12 UNK     1      35.718  -6.895  35.012  1.00  0.00     0.016 A 
HETATM   14  C13 UNK     1      34.954  -7.377  32.374  1.00  0.00     0.038 A 
HETATM   15  C14 UNK     1      30.527  -4.674  38.398  1.00  0.00     0.100 C 
HETATM   16  C15 UNK     1      36.659  -7.327  34.069  1.00  0.00     0.001 A 
HETATM   17  C18 UNK     1      36.277  -7.568  32.752  1.00  0.00     0.003 A 
HETATM   18  H2  UNK     1      34.597  -6.063  37.201  1.00  0.00     0.167 HD
ENDROOT
BRANCH   5  19
HETATM   19  C5  UNK     1      29.945  -6.808  36.261  1.00  0.00    -0.044 A 
HETATM   20  C10 UNK     1      28.609  -6.580  35.955  1.00  0.00     0.010 A 
HETATM   21  C16 UNK     1      27.683  -7.614  36.099  1.00  0.00     0.024 A 
HETATM   22  C19 UNK     1      28.101  -8.867  36.549  1.00  0.00     0.034 A 
HETATM   23  C17 UNK     1      29.444  -9.086  36.853  1.00  0.00     0.024 A 
HETATM   24 Cl1  UNK     1      26.959 -10.142  36.726  1.00  0.00    -0.084 Cl
HETATM   25  C11 UNK     1      30.370  -8.053  36.709  1.00  0.00     0.010 A 
ENDBRANCH   5  19
BRANCH  10  26
HETATM   26  N2  UNK     1      33.253  -5.081  39.073  1.00  0.00    -0.384 N 
HETATM   27  H7  UNK     1      32.738  -4.457  39.681  1.00  0.00     0.157 HD
HETATM   28  H8  UNK     1      34.142  -5.461  39.372  1.00  0.00     0.157 HD
ENDBRANCH  10  26
TORSDOF 2
ENDMDL
MODEL 10
REMARK VINA RESULT:      -7.3     32.865     35.007
REMARK  2 active torsions:
REMARK  status: ('A' for Active; 'I' for Inactive)
REMARK    1  A    between atoms: C7_13  and  N2_5 
REMARK    2  A    between atoms: C1_7  and  C5_11 
ROOT
HETATM    1  O1  UNK     1      33.670  -8.079  29.395  1.00  0.00    -0.274 OA
HETATM    2  O2  UNK     1      35.639  -7.485  30.370  1.00  0.00    -0.259 OA
HETATM    3  N1  UNK     1      33.724 -11.636  31.629  1.00  0.00    -0.340 N 
HETATM    4  N3  UNK     1      37.786 -11.884  34.191  1.00  0.00    -0.191 NA
HETATM    5  C1  UNK     1      35.790  -9.772  32.102  1.00  0.00     0.107 C 
HETATM    6  C2  UNK     1      34.670  -9.537  31.082  1.00  0.00     0.059 A 
HETATM    7  C3  UNK     1      33.697 -10.454  30.917  1.00  0.00     0.060 A 
HETATM    8  C4  UNK     1      35.775 -11.185  32.711  1.00  0.00     0.079 C 
HETATM    9  C6  UNK     1      32.605 -10.199  29.963  1.00  0.00     0.025 A 
HETATM   10  C7  UNK     1      34.750 -12.047  32.474  1.00  0.00     0.117 C 
HETATM   11  C8  UNK     1      34.720  -8.292  30.274  1.00  0.00     0.298 A 
HETATM   12  C9  UNK     1      32.627  -9.009  29.236  1.00  0.00     0.092 A 
HETATM   13  C12 UNK     1      31.528 -11.069  29.737  1.00  0.00     0.016 A 
HETATM   14  C13 UNK     1      31.633  -8.674  28.313  1.00  0.00     0.038 A 
HETATM   15  C14 UNK     1      36.887 -11.571  33.529  1.00  0.00     0.100 C 
HETATM   16  C15 UNK     1      30.524 -10.748  28.815  1.00  0.00     0.001 A 
HETATM   17  C18 UNK     1      30.576  -9.551  28.104  1.00  0.00     0.003 A 
HETATM   18  H2  UNK     1      32.986 -12.313  31.488  1.00  0.00     0.167 HD
ENDROOT
BRANCH   5  19
HETATM   19  C5  UNK     1      35.714  -8.747  33.198  1.00  0.00    -0.044 A 
HETATM   20  C10 UNK     1      34.515  -8.553  33.874  1.00  0.00     0.010 A 
HETATM   21  C16 UNK     1      34.445  -7.602  34.893  1.00  0.00     0.024 A 
HETATM   22  C19 UNK     1      35.573  -6.854  35.227  1.00  0.00     0.034 A 
HETATM   23  C17 UNK     1      36.772  -7.056  34.544  1.00  0.00     0.024 A 
HETATM   24 Cl1  UNK     1      35.486  -5.682  36.485  1.00  0.00    -0.084 Cl
HETATM   25  C11 UNK     1      36.843  -8.007  33.525  1.00  0.00     0.010 A 
ENDBRANCH   5  19
BRANCH  10  26
HETATM   26  N2  UNK     1      34.696 -13.305  33.026  1.00  0.00    -0.384 N 
HETATM   27  H7  UNK     1      35.527 -13.750  33.395  1.00  0.00     0.157 HD
HETATM   28  H8  UNK     1      33.806 -13.784  33.062  1.00  0.00     0.157 HD
ENDBRANCH  10  26
TORSDOF 2
ENDMDL
