MODEL 1
REMARK VINA RESULT:      -8.2      0.000      0.000
REMARK  6 active torsions:
REMARK  status: ('A' for Active; 'I' for Inactive)
REMARK    1  A    between atoms: C14_20  and  O2_3 
REMARK    2  A    between atoms: C8_14  and  O2_3 
REMARK    3  A    between atoms: C11_17  and  O3_4 
REMARK    4  A    between atoms: C17_23  and  O3_4 
REMARK    5  A    between atoms: C3_9  and  C5_11 
REMARK    6  A    between atoms: C14_20  and  C17_23 
ROOT
HETATM    1  O1  UNK     1      19.746  -2.131  34.062  1.00  0.00    -0.321 OA
HETATM    2  O4  UNK     1      18.706  -2.150  38.007  1.00  0.00    -0.286 OA
HETATM    3  C1  UNK     1      18.575  -1.085  35.912  1.00  0.00     0.049 A 
HETATM    4  C2  UNK     1      18.970  -1.124  34.575  1.00  0.00     0.091 A 
HETATM    5  C3  UNK     1      19.830  -3.247  36.217  1.00  0.00     0.048 A 
HETATM    6  C4  UNK     1      19.006  -2.163  36.820  1.00  0.00     0.197 A 
HETATM    7  C6  UNK     1      18.577  -0.111  33.700  1.00  0.00     0.075 A 
HETATM    8  C7  UNK     1      17.784  -0.032  36.381  1.00  0.00     0.021 A 
HETATM    9  C8  UNK     1      17.787   0.941  34.165  1.00  0.00     0.072 A 
HETATM   10  C9  UNK     1      17.392   0.980  35.503  1.00  0.00     0.038 A 
HETATM   11  C10 UNK     1      20.124  -3.141  34.913  1.00  0.00     0.159 A 
ENDROOT
BRANCH   9  12
HETATM   12  O2  UNK     1      17.402   1.930  33.314  1.00  0.00    -0.341 OA
BRANCH  12  13
HETATM   13  C14 UNK     1      18.234   3.085  33.241  1.00  0.00     0.286 C 
BRANCH  13  14
HETATM   14  C17 UNK     1      18.229   3.601  31.827  1.00  0.00     0.283 C 
HETATM   15  O5  UNK     1      18.600   4.715  31.485  1.00  0.00    -0.263 OA
BRANCH  14  16
HETATM   16  O3  UNK     1      17.747   2.627  31.000  1.00  0.00    -0.315 OA
BRANCH  16  17
HETATM   17  C11 UNK     1      18.627   2.221  29.946  1.00  0.00     0.123 C 
HETATM   18  C15 UNK     1      19.324   0.931  30.345  1.00  0.00     0.040 C 
HETATM   19  C16 UNK     1      17.829   2.061  28.661  1.00  0.00     0.040 C 
ENDBRANCH  16  17
ENDBRANCH  14  16
ENDBRANCH  13  14
ENDBRANCH  12  13
ENDBRANCH   9  12
BRANCH   5  20
HETATM   20  C5  UNK     1      20.293  -4.403  37.003  1.00  0.00    -0.020 A 
HETATM   21  C12 UNK     1      21.536  -4.365  37.638  1.00  0.00     0.014 A 
HETATM   22  C18 UNK     1      21.975  -5.459  38.384  1.00  0.00     0.024 A 
HETATM   23  C20 UNK     1      21.170  -6.593  38.496  1.00  0.00     0.034 A 
HETATM   24  C19 UNK     1      19.928  -6.633  37.864  1.00  0.00     0.024 A 
HETATM   25 Cl1  UNK     1      21.711  -7.944  39.416  1.00  0.00    -0.084 Cl
HETATM   26  C13 UNK     1      19.490  -5.539  37.117  1.00  0.00     0.014 A 
ENDBRANCH   5  20
TORSDOF 6
ENDMDL
MODEL 2
REMARK VINA RESULT:      -8.0      7.431     11.729
REMARK  6 active torsions:
REMARK  status: ('A' for Active; 'I' for Inactive)
REMARK    1  A    between atoms: C14_20  and  O2_3 
REMARK    2  A    between atoms: C8_14  and  O2_3 
REMARK    3  A    between atoms: C11_17  and  O3_4 
REMARK    4  A    between atoms: C17_23  and  O3_4 
REMARK    5  A    between atoms: C3_9  and  C5_11 
REMARK    6  A    between atoms: C14_20  and  C17_23 
ROOT
HETATM    1  O1  UNK     1      15.878   7.066  32.466  1.00  0.00    -0.321 OA
HETATM    2  O4  UNK     1      18.811   9.365  34.128  1.00  0.00    -0.286 OA
HETATM    3  C1  UNK     1      18.239   7.456  32.874  1.00  0.00     0.049 A 
HETATM    4  C2  UNK     1      17.194   6.704  32.337  1.00  0.00     0.091 A 
HETATM    5  C3  UNK     1      16.486   9.058  33.714  1.00  0.00     0.048 A 
HETATM    6  C4  UNK     1      17.926   8.692  33.615  1.00  0.00     0.197 A 
HETATM    7  C6  UNK     1      17.468   5.529  31.636  1.00  0.00     0.075 A 
HETATM    8  C7  UNK     1      19.562   7.038  32.713  1.00  0.00     0.021 A 
HETATM    9  C8  UNK     1      18.788   5.109  31.473  1.00  0.00     0.072 A 
HETATM   10  C9  UNK     1      19.833   5.862  32.010  1.00  0.00     0.038 A 
HETATM   11  C10 UNK     1      15.601   8.230  33.141  1.00  0.00     0.159 A 
ENDROOT
BRANCH   9  12
HETATM   12  O2  UNK     1      19.058   3.964  30.789  1.00  0.00    -0.341 OA
BRANCH  12  13
HETATM   13  C14 UNK     1      18.032   2.975  30.749  1.00  0.00     0.286 C 
BRANCH  13  14
HETATM   14  C17 UNK     1      18.218   2.131  29.515  1.00  0.00     0.283 C 
HETATM   15  O5  UNK     1      18.077   2.528  28.367  1.00  0.00    -0.263 OA
BRANCH  14  16
HETATM   16  O3  UNK     1      18.567   0.865  29.891  1.00  0.00    -0.315 OA
BRANCH  16  17
HETATM   17  C11 UNK     1      19.820   0.395  29.384  1.00  0.00     0.123 C 
HETATM   18  C15 UNK     1      20.632  -0.197  30.525  1.00  0.00     0.040 C 
HETATM   19  C16 UNK     1      19.565  -0.622  28.282  1.00  0.00     0.040 C 
ENDBRANCH  16  17
ENDBRANCH  14  16
ENDBRANCH  13  14
ENDBRANCH  12  13
ENDBRANCH   9  12
BRANCH   5  20
HETATM   20  C5  UNK     1      16.039  10.286  34.393  1.00  0.00    -0.020 A 
HETATM   21  C12 UNK     1      16.730  11.485  34.199  1.00  0.00     0.014 A 
HETATM   22  C18 UNK     1      16.306  12.648  34.840  1.00  0.00     0.024 A 
HETATM   23  C20 UNK     1      15.190  12.616  35.676  1.00  0.00     0.034 A 
HETATM   24  C19 UNK     1      14.498  11.421  35.871  1.00  0.00     0.024 A 
HETATM   25 Cl1  UNK     1      14.667  14.052  36.469  1.00  0.00    -0.084 Cl
HETATM   26  C13 UNK     1      14.922  10.257  35.230  1.00  0.00     0.014 A 
ENDBRANCH   5  20
TORSDOF 6
ENDMDL
MODEL 3
REMARK VINA RESULT:      -7.8      1.159      2.135
REMARK  6 active torsions:
REMARK  status: ('A' for Active; 'I' for Inactive)
REMARK    1  A    between atoms: C14_20  and  O2_3 
REMARK    2  A    between atoms: C8_14  and  O2_3 
REMARK    3  A    between atoms: C11_17  and  O3_4 
REMARK    4  A    between atoms: C17_23  and  O3_4 
REMARK    5  A    between atoms: C3_9  and  C5_11 
REMARK    6  A    between atoms: C14_20  and  C17_23 
ROOT
HETATM    1  O1  UNK     1      19.732  -1.917  33.890  1.00  0.00    -0.321 OA
HETATM    2  O4  UNK     1      18.606  -1.935  37.812  1.00  0.00    -0.286 OA
HETATM    3  C1  UNK     1      18.579  -0.834  35.731  1.00  0.00     0.049 A 
HETATM    4  C2  UNK     1      19.001  -0.876  34.403  1.00  0.00     0.091 A 
HETATM    5  C3  UNK     1      19.707  -3.066  36.029  1.00  0.00     0.048 A 
HETATM    6  C4  UNK     1      18.931  -1.948  36.631  1.00  0.00     0.197 A 
HETATM    7  C6  UNK     1      18.684   0.170  33.535  1.00  0.00     0.075 A 
HETATM    8  C7  UNK     1      17.838   0.254  36.200  1.00  0.00     0.021 A 
HETATM    9  C8  UNK     1      17.943   1.257  34.000  1.00  0.00     0.072 A 
HETATM   10  C9  UNK     1      17.521   1.298  35.329  1.00  0.00     0.038 A 
HETATM   11  C10 UNK     1      20.035  -2.959  34.733  1.00  0.00     0.159 A 
ENDROOT
BRANCH   9  12
HETATM   12  O2  UNK     1      17.630   2.277  33.156  1.00  0.00    -0.341 OA
BRANCH  12  13
HETATM   13  C14 UNK     1      18.393   2.383  31.955  1.00  0.00     0.286 C 
BRANCH  13  14
HETATM   14  C17 UNK     1      18.291   3.793  31.437  1.00  0.00     0.283 C 
HETATM   15  O5  UNK     1      18.949   4.250  30.513  1.00  0.00    -0.263 OA
BRANCH  14  16
HETATM   16  O3  UNK     1      17.350   4.466  32.163  1.00  0.00    -0.315 OA
BRANCH  16  17
HETATM   17  C11 UNK     1      17.643   5.843  32.426  1.00  0.00     0.123 C 
HETATM   18  C15 UNK     1      16.354   6.648  32.378  1.00  0.00     0.040 C 
HETATM   19  C16 UNK     1      18.333   5.958  33.777  1.00  0.00     0.040 C 
ENDBRANCH  16  17
ENDBRANCH  14  16
ENDBRANCH  13  14
ENDBRANCH  12  13
ENDBRANCH   9  12
BRANCH   5  20
HETATM   20  C5  UNK     1      20.089  -4.257  36.806  1.00  0.00    -0.020 A 
HETATM   21  C12 UNK     1      21.283  -4.267  37.531  1.00  0.00     0.014 A 
HETATM   22  C18 UNK     1      21.644  -5.394  38.269  1.00  0.00     0.024 A 
HETATM   23  C20 UNK     1      20.812  -6.514  38.284  1.00  0.00     0.034 A 
HETATM   24  C19 UNK     1      19.618  -6.506  37.562  1.00  0.00     0.024 A 
HETATM   25 Cl1  UNK     1      21.257  -7.906  39.194  1.00  0.00    -0.084 Cl
HETATM   26  C13 UNK     1      19.258  -5.379  36.823  1.00  0.00     0.014 A 
ENDBRANCH   5  20
TORSDOF 6
ENDMDL
MODEL 4
REMARK VINA RESULT:      -7.8      1.176      2.617
REMARK  6 active torsions:
REMARK  status: ('A' for Active; 'I' for Inactive)
REMARK    1  A    between atoms: C14_20  and  O2_3 
REMARK    2  A    between atoms: C8_14  and  O2_3 
REMARK    3  A    between atoms: C11_17  and  O3_4 
REMARK    4  A    between atoms: C17_23  and  O3_4 
REMARK    5  A    between atoms: C3_9  and  C5_11 
REMARK    6  A    between atoms: C14_20  and  C17_23 
ROOT
HETATM    1  O1  UNK     1      18.419  -1.321  36.939  1.00  0.00    -0.321 OA
HETATM    2  O4  UNK     1      20.462  -3.733  34.360  1.00  0.00    -0.286 OA
HETATM    3  C1  UNK     1      19.254  -1.742  34.700  1.00  0.00     0.049 A 
HETATM    4  C2  UNK     1      18.558  -0.963  35.623  1.00  0.00     0.091 A 
HETATM    5  C3  UNK     1      19.712  -3.346  36.587  1.00  0.00     0.048 A 
HETATM    6  C4  UNK     1      19.869  -3.006  35.146  1.00  0.00     0.197 A 
HETATM    7  C6  UNK     1      17.964   0.235  35.221  1.00  0.00     0.075 A 
HETATM    8  C7  UNK     1      19.361  -1.328  33.369  1.00  0.00     0.021 A 
HETATM    9  C8  UNK     1      18.070   0.650  33.894  1.00  0.00     0.072 A 
HETATM   10  C9  UNK     1      18.767  -0.129  32.970  1.00  0.00     0.038 A 
HETATM   11  C10 UNK     1      19.014  -2.490  37.348  1.00  0.00     0.159 A 
ENDROOT
BRANCH   9  12
HETATM   12  O2  UNK     1      17.493   1.818  33.499  1.00  0.00    -0.341 OA
BRANCH  12  13
HETATM   13  C14 UNK     1      18.368   2.879  33.120  1.00  0.00     0.286 C 
BRANCH  13  14
HETATM   14  C17 UNK     1      17.975   3.368  31.751  1.00  0.00     0.283 C 
HETATM   15  O5  UNK     1      17.631   2.651  30.822  1.00  0.00    -0.263 OA
BRANCH  14  16
HETATM   16  O3  UNK     1      18.065   4.731  31.724  1.00  0.00    -0.315 OA
BRANCH  16  17
HETATM   17  C11 UNK     1      19.374   5.257  31.480  1.00  0.00     0.123 C 
HETATM   18  C15 UNK     1      19.463   5.731  30.038  1.00  0.00     0.040 C 
HETATM   19  C16 UNK     1      19.653   6.382  32.464  1.00  0.00     0.040 C 
ENDBRANCH  16  17
ENDBRANCH  14  16
ENDBRANCH  13  14
ENDBRANCH  12  13
ENDBRANCH   9  12
BRANCH   5  20
HETATM   20  C5  UNK     1      20.309  -4.558  37.171  1.00  0.00    -0.020 A 
HETATM   21  C12 UNK     1      19.637  -5.780  37.088  1.00  0.00     0.014 A 
HETATM   22  C18 UNK     1      20.204  -6.929  37.640  1.00  0.00     0.024 A 
HETATM   23  C20 UNK     1      21.444  -6.859  38.274  1.00  0.00     0.034 A 
HETATM   24  C19 UNK     1      22.118  -5.640  38.357  1.00  0.00     0.024 A 
HETATM   25 Cl1  UNK     1      22.144  -8.276  38.956  1.00  0.00    -0.084 Cl
HETATM   26  C13 UNK     1      21.551  -4.491  37.806  1.00  0.00     0.014 A 
ENDBRANCH   5  20
TORSDOF 6
ENDMDL
MODEL 5
REMARK VINA RESULT:      -7.6      7.805     12.608
REMARK  6 active torsions:
REMARK  status: ('A' for Active; 'I' for Inactive)
REMARK    1  A    between atoms: C14_20  and  O2_3 
REMARK    2  A    between atoms: C8_14  and  O2_3 
REMARK    3  A    between atoms: C11_17  and  O3_4 
REMARK    4  A    between atoms: C17_23  and  O3_4 
REMARK    5  A    between atoms: C3_9  and  C5_11 
REMARK    6  A    between atoms: C14_20  and  C17_23 
ROOT
HETATM    1  O1  UNK     1      14.863   7.284  33.205  1.00  0.00    -0.321 OA
HETATM    2  O4  UNK     1      16.748  10.772  34.164  1.00  0.00    -0.286 OA
HETATM    3  C1  UNK     1      16.930   8.521  33.500  1.00  0.00     0.049 A 
HETATM    4  C2  UNK     1      16.232   7.354  33.192  1.00  0.00     0.091 A 
HETATM    5  C3  UNK     1      14.689   9.621  33.840  1.00  0.00     0.048 A 
HETATM    6  C4  UNK     1      16.174   9.736  33.858  1.00  0.00     0.197 A 
HETATM    7  C6  UNK     1      16.928   6.192  32.855  1.00  0.00     0.075 A 
HETATM    8  C7  UNK     1      18.327   8.534  33.472  1.00  0.00     0.021 A 
HETATM    9  C8  UNK     1      18.323   6.202  32.826  1.00  0.00     0.072 A 
HETATM   10  C9  UNK     1      19.020   7.370  33.134  1.00  0.00     0.038 A 
HETATM   11  C10 UNK     1      14.169   8.427  33.520  1.00  0.00     0.159 A 
ENDROOT
BRANCH   9  12
HETATM   12  O2  UNK     1      19.004   5.071  32.496  1.00  0.00    -0.341 OA
BRANCH  12  13
HETATM   13  C14 UNK     1      18.584   4.379  31.322  1.00  0.00     0.286 C 
BRANCH  13  14
HETATM   14  C17 UNK     1      17.962   3.068  31.726  1.00  0.00     0.283 C 
HETATM   15  O5  UNK     1      17.893   2.649  32.872  1.00  0.00    -0.263 OA
BRANCH  14  16
HETATM   16  O3  UNK     1      17.494   2.436  30.609  1.00  0.00    -0.315 OA
BRANCH  16  17
HETATM   17  C11 UNK     1      18.494   2.010  29.677  1.00  0.00     0.123 C 
HETATM   18  C15 UNK     1      19.282   0.858  30.280  1.00  0.00     0.040 C 
HETATM   19  C16 UNK     1      17.825   1.616  28.370  1.00  0.00     0.040 C 
ENDBRANCH  16  17
ENDBRANCH  14  16
ENDBRANCH  13  14
ENDBRANCH  12  13
ENDBRANCH   9  12
BRANCH   5  20
HETATM   20  C5  UNK     1      13.816  10.768  34.139  1.00  0.00    -0.020 A 
HETATM   21  C12 UNK     1      13.055  11.353  33.125  1.00  0.00     0.014 A 
HETATM   22  C18 UNK     1      12.226  12.438  33.408  1.00  0.00     0.024 A 
HETATM   23  C20 UNK     1      12.156  12.940  34.707  1.00  0.00     0.034 A 
HETATM   24  C19 UNK     1      12.913  12.357  35.724  1.00  0.00     0.024 A 
HETATM   25 Cl1  UNK     1      11.134  14.281  35.058  1.00  0.00    -0.084 Cl
HETATM   26  C13 UNK     1      13.743  11.272  35.439  1.00  0.00     0.014 A 
ENDBRANCH   5  20
TORSDOF 6
ENDMDL
MODEL 6
REMARK VINA RESULT:      -7.6     26.719     29.628
REMARK  6 active torsions:
REMARK  status: ('A' for Active; 'I' for Inactive)
REMARK    1  A    between atoms: C14_20  and  O2_3 
REMARK    2  A    between atoms: C8_14  and  O2_3 
REMARK    3  A    between atoms: C11_17  and  O3_4 
REMARK    4  A    between atoms: C17_23  and  O3_4 
REMARK    5  A    between atoms: C3_9  and  C5_11 
REMARK    6  A    between atoms: C14_20  and  C17_23 
ROOT
HETATM    1  O1  UNK     1      14.605  10.072   8.156  1.00  0.00    -0.321 OA
HETATM    2  O4  UNK     1      18.322  10.012   9.837  1.00  0.00    -0.286 OA
HETATM    3  C1  UNK     1      16.239   8.952   9.557  1.00  0.00     0.049 A 
HETATM    4  C2  UNK     1      14.979   9.031   8.965  1.00  0.00     0.091 A 
HETATM    5  C3  UNK     1      16.776  11.129   8.411  1.00  0.00     0.048 A 
HETATM    6  C4  UNK     1      17.216  10.028   9.312  1.00  0.00     0.197 A 
HETATM    7  C6  UNK     1      14.037   8.025   9.188  1.00  0.00     0.075 A 
HETATM    8  C7  UNK     1      16.565   7.867  10.375  1.00  0.00     0.021 A 
HETATM    9  C8  UNK     1      14.360   6.940  10.003  1.00  0.00     0.072 A 
HETATM   10  C9  UNK     1      15.621   6.861  10.595  1.00  0.00     0.038 A 
HETATM   11  C10 UNK     1      15.532  11.059   7.918  1.00  0.00     0.159 A 
ENDROOT
BRANCH   9  12
HETATM   12  O2  UNK     1      13.444   5.958  10.221  1.00  0.00    -0.341 OA
BRANCH  12  13
HETATM   13  C14 UNK     1      13.014   5.208   9.087  1.00  0.00     0.286 C 
BRANCH  13  14
HETATM   14  C17 UNK     1      11.512   5.111   9.109  1.00  0.00     0.283 C 
HETATM   15  O5  UNK     1      10.828   5.049  10.122  1.00  0.00    -0.263 OA
BRANCH  14  16
HETATM   16  O3  UNK     1      11.048   5.107   7.825  1.00  0.00    -0.315 OA
BRANCH  16  17
HETATM   17  C11 UNK     1      10.426   6.320   7.390  1.00  0.00     0.123 C 
HETATM   18  C15 UNK     1      11.144   6.837   6.154  1.00  0.00     0.040 C 
HETATM   19  C16 UNK     1       8.951   6.059   7.121  1.00  0.00     0.040 C 
ENDBRANCH  16  17
ENDBRANCH  14  16
ENDBRANCH  13  14
ENDBRANCH  12  13
ENDBRANCH   9  12
BRANCH   5  20
HETATM   20  C5  UNK     1      17.667  12.245   8.053  1.00  0.00    -0.020 A 
HETATM   21  C12 UNK     1      17.675  13.411   8.822  1.00  0.00     0.014 A 
HETATM   22  C18 UNK     1      18.520  14.467   8.484  1.00  0.00     0.024 A 
HETATM   23  C20 UNK     1      19.360  14.361   7.375  1.00  0.00     0.034 A 
HETATM   24  C19 UNK     1      19.355  13.197   6.605  1.00  0.00     0.024 A 
HETATM   25 Cl1  UNK     1      20.403  15.665   6.955  1.00  0.00    -0.084 Cl
HETATM   26  C13 UNK     1      18.509  12.141   6.943  1.00  0.00     0.014 A 
ENDBRANCH   5  20
TORSDOF 6
ENDMDL
MODEL 7
REMARK VINA RESULT:      -7.6      2.960      5.199
REMARK  6 active torsions:
REMARK  status: ('A' for Active; 'I' for Inactive)
REMARK    1  A    between atoms: C14_20  and  O2_3 
REMARK    2  A    between atoms: C8_14  and  O2_3 
REMARK    3  A    between atoms: C11_17  and  O3_4 
REMARK    4  A    between atoms: C17_23  and  O3_4 
REMARK    5  A    between atoms: C3_9  and  C5_11 
REMARK    6  A    between atoms: C14_20  and  C17_23 
ROOT
HETATM    1  O1  UNK     1      18.545   2.674  35.473  1.00  0.00    -0.321 OA
HETATM    2  O4  UNK     1      18.459  -0.377  32.766  1.00  0.00    -0.286 OA
HETATM    3  C1  UNK     1      18.368   1.941  33.166  1.00  0.00     0.049 A 
HETATM    4  C2  UNK     1      18.394   2.942  34.137  1.00  0.00     0.091 A 
HETATM    5  C3  UNK     1      18.689   0.289  35.040  1.00  0.00     0.048 A 
HETATM    6  C4  UNK     1      18.506   0.533  33.583  1.00  0.00     0.197 A 
HETATM    7  C6  UNK     1      18.260   4.280  33.765  1.00  0.00     0.075 A 
HETATM    8  C7  UNK     1      18.210   2.273  31.818  1.00  0.00     0.021 A 
HETATM    9  C8  UNK     1      18.103   4.614  32.420  1.00  0.00     0.072 A 
HETATM   10  C9  UNK     1      18.077   3.613  31.449  1.00  0.00     0.038 A 
HETATM   11  C10 UNK     1      18.694   1.360  35.847  1.00  0.00     0.159 A 
ENDROOT
BRANCH   9  12
HETATM   12  O2  UNK     1      17.974   5.919  32.054  1.00  0.00    -0.341 OA
BRANCH  12  13
HETATM   13  C14 UNK     1      16.709   6.536  32.286  1.00  0.00     0.286 C 
BRANCH  13  14
HETATM   14  C17 UNK     1      16.756   7.950  31.771  1.00  0.00     0.283 C 
HETATM   15  O5  UNK     1      16.084   8.381  30.844  1.00  0.00    -0.263 OA
BRANCH  14  16
HETATM   16  O3  UNK     1      17.663   8.660  32.504  1.00  0.00    -0.315 OA
BRANCH  16  17
HETATM   17  C11 UNK     1      17.489   8.602  33.924  1.00  0.00     0.123 C 
HETATM   18  C15 UNK     1      18.841   8.394  34.587  1.00  0.00     0.040 C 
HETATM   19  C16 UNK     1      16.815   9.880  34.399  1.00  0.00     0.040 C 
ENDBRANCH  16  17
ENDBRANCH  14  16
ENDBRANCH  13  14
ENDBRANCH  12  13
ENDBRANCH   9  12
BRANCH   5  20
HETATM   20  C5  UNK     1      18.877  -1.066  35.585  1.00  0.00    -0.020 A 
HETATM   21  C12 UNK     1      17.883  -1.648  36.376  1.00  0.00     0.014 A 
HETATM   22  C18 UNK     1      18.061  -2.931  36.891  1.00  0.00     0.024 A 
HETATM   23  C20 UNK     1      19.232  -3.637  36.617  1.00  0.00     0.034 A 
HETATM   24  C19 UNK     1      20.226  -3.059  35.827  1.00  0.00     0.024 A 
HETATM   25 Cl1  UNK     1      19.453  -5.221  37.253  1.00  0.00    -0.084 Cl
HETATM   26  C13 UNK     1      20.049  -1.774  35.312  1.00  0.00     0.014 A 
ENDBRANCH   5  20
TORSDOF 6
ENDMDL
MODEL 8
REMARK VINA RESULT:      -7.4      9.457     12.028
REMARK  6 active torsions:
REMARK  status: ('A' for Active; 'I' for Inactive)
REMARK    1  A    between atoms: C14_20  and  O2_3 
REMARK    2  A    between atoms: C8_14  and  O2_3 
REMARK    3  A    between atoms: C11_17  and  O3_4 
REMARK    4  A    between atoms: C17_23  and  O3_4 
REMARK    5  A    between atoms: C3_9  and  C5_11 
REMARK    6  A    between atoms: C14_20  and  C17_23 
ROOT
HETATM    1  O1  UNK     1      25.844  -5.150  38.797  1.00  0.00    -0.321 OA
HETATM    2  O4  UNK     1      25.994  -9.215  38.484  1.00  0.00    -0.286 OA
HETATM    3  C1  UNK     1      27.165  -7.177  38.619  1.00  0.00     0.049 A 
HETATM    4  C2  UNK     1      27.053  -5.791  38.716  1.00  0.00     0.091 A 
HETATM    5  C3  UNK     1      24.650  -7.262  38.709  1.00  0.00     0.048 A 
HETATM    6  C4  UNK     1      25.940  -7.997  38.599  1.00  0.00     0.197 A 
HETATM    7  C6  UNK     1      28.200  -4.995  38.733  1.00  0.00     0.075 A 
HETATM    8  C7  UNK     1      28.425  -7.776  38.538  1.00  0.00     0.021 A 
HETATM    9  C8  UNK     1      29.458  -5.591  38.653  1.00  0.00     0.072 A 
HETATM   10  C9  UNK     1      29.571  -6.979  38.555  1.00  0.00     0.038 A 
HETATM   11  C10 UNK     1      24.710  -5.926  38.798  1.00  0.00     0.159 A 
ENDROOT
BRANCH   9  12
HETATM   12  O2  UNK     1      30.579  -4.818  38.669  1.00  0.00    -0.341 OA
BRANCH  12  13
HETATM   13  C14 UNK     1      30.817  -3.995  37.530  1.00  0.00     0.286 C 
BRANCH  13  14
HETATM   14  C17 UNK     1      31.622  -4.777  36.525  1.00  0.00     0.283 C 
HETATM   15  O5  UNK     1      31.156  -5.376  35.567  1.00  0.00    -0.263 OA
BRANCH  14  16
HETATM   16  O3  UNK     1      32.944  -4.702  36.861  1.00  0.00    -0.315 OA
BRANCH  16  17
HETATM   17  C11 UNK     1      33.864  -5.046  35.820  1.00  0.00     0.123 C 
HETATM   18  C15 UNK     1      34.227  -3.794  35.037  1.00  0.00     0.040 C 
HETATM   19  C16 UNK     1      35.090  -5.706  36.433  1.00  0.00     0.040 C 
ENDBRANCH  16  17
ENDBRANCH  14  16
ENDBRANCH  13  14
ENDBRANCH  12  13
ENDBRANCH   9  12
BRANCH   5  20
HETATM   20  C5  UNK     1      23.355  -7.962  38.740  1.00  0.00    -0.020 A 
HETATM   21  C12 UNK     1      22.688  -8.149  39.953  1.00  0.00     0.014 A 
HETATM   22  C18 UNK     1      21.461  -8.810  39.983  1.00  0.00     0.024 A 
HETATM   23  C20 UNK     1      20.897  -9.287  38.799  1.00  0.00     0.034 A 
HETATM   24  C19 UNK     1      21.560  -9.101  37.586  1.00  0.00     0.024 A 
HETATM   25 Cl1  UNK     1      19.382 -10.104  38.835  1.00  0.00    -0.084 Cl
HETATM   26  C13 UNK     1      22.788  -8.440  37.557  1.00  0.00     0.014 A 
ENDBRANCH   5  20
TORSDOF 6
ENDMDL
MODEL 9
REMARK VINA RESULT:      -7.4     27.222     29.278
REMARK  6 active torsions:
REMARK  status: ('A' for Active; 'I' for Inactive)
REMARK    1  A    between atoms: C14_20  and  O2_3 
REMARK    2  A    between atoms: C8_14  and  O2_3 
REMARK    3  A    between atoms: C11_17  and  O3_4 
REMARK    4  A    between atoms: C17_23  and  O3_4 
REMARK    5  A    between atoms: C3_9  and  C5_11 
REMARK    6  A    between atoms: C14_20  and  C17_23 
ROOT
HETATM    1  O1  UNK     1      11.209   8.375   9.901  1.00  0.00    -0.321 OA
HETATM    2  O4  UNK     1      13.767   7.479   6.852  1.00  0.00    -0.286 OA
HETATM    3  C1  UNK     1      11.622   7.245   7.793  1.00  0.00     0.049 A 
HETATM    4  C2  UNK     1      10.796   7.576   8.866  1.00  0.00     0.091 A 
HETATM    5  C3  UNK     1      13.400   8.650   8.893  1.00  0.00     0.048 A 
HETATM    6  C4  UNK     1      13.000   7.770   7.760  1.00  0.00     0.197 A 
HETATM    7  C6  UNK     1       9.490   7.086   8.920  1.00  0.00     0.075 A 
HETATM    8  C7  UNK     1      11.148   6.424   6.767  1.00  0.00     0.021 A 
HETATM    9  C8  UNK     1       9.013   6.267   7.896  1.00  0.00     0.072 A 
HETATM   10  C9  UNK     1       9.841   5.937   6.822  1.00  0.00     0.038 A 
HETATM   11  C10 UNK     1      12.488   8.875   9.849  1.00  0.00     0.159 A 
ENDROOT
BRANCH   9  12
HETATM   12  O2  UNK     1       7.740   5.789   7.944  1.00  0.00    -0.341 OA
BRANCH  12  13
HETATM   13  C14 UNK     1       7.205   5.496   9.233  1.00  0.00     0.286 C 
BRANCH  13  14
HETATM   14  C17 UNK     1       7.001   4.009   9.348  1.00  0.00     0.283 C 
HETATM   15  O5  UNK     1       6.844   3.248   8.404  1.00  0.00    -0.263 OA
BRANCH  14  16
HETATM   16  O3  UNK     1       7.021   3.658  10.668  1.00  0.00    -0.315 OA
BRANCH  16  17
HETATM   17  C11 UNK     1       5.756   3.703  11.336  1.00  0.00     0.123 C 
HETATM   18  C15 UNK     1       5.298   2.285  11.639  1.00  0.00     0.040 C 
HETATM   19  C16 UNK     1       5.886   4.538  12.601  1.00  0.00     0.040 C 
ENDBRANCH  16  17
ENDBRANCH  14  16
ENDBRANCH  13  14
ENDBRANCH  12  13
ENDBRANCH   9  12
BRANCH   5  20
HETATM   20  C5  UNK     1      14.734   9.271   8.963  1.00  0.00    -0.020 A 
HETATM   21  C12 UNK     1      15.749   8.668   9.709  1.00  0.00     0.014 A 
HETATM   22  C18 UNK     1      17.012   9.255   9.774  1.00  0.00     0.024 A 
HETATM   23  C20 UNK     1      17.263  10.446   9.093  1.00  0.00     0.034 A 
HETATM   24  C19 UNK     1      16.252  11.050   8.346  1.00  0.00     0.024 A 
HETATM   25 Cl1  UNK     1      18.823  11.172   9.174  1.00  0.00    -0.084 Cl
HETATM   26  C13 UNK     1      14.988  10.463   8.282  1.00  0.00     0.014 A 
ENDBRANCH   5  20
TORSDOF 6
ENDMDL
MODEL 10
REMARK VINA RESULT:      -7.4      9.438     12.230
REMARK  6 active torsions:
REMARK  status: ('A' for Active; 'I' for Inactive)
REMARK    1  A    between atoms: C14_20  and  O2_3 
REMARK    2  A    between atoms: C8_14  and  O2_3 
REMARK    3  A    between atoms: C11_17  and  O3_4 
REMARK    4  A    between atoms: C17_23  and  O3_4 
REMARK    5  A    between atoms: C3_9  and  C5_11 
REMARK    6  A    between atoms: C14_20  and  C17_23 
ROOT
HETATM    1  O1  UNK     1      27.527  -8.723  38.728  1.00  0.00    -0.321 OA
HETATM    2  O4  UNK     1      25.104  -5.441  38.715  1.00  0.00    -0.286 OA
HETATM    3  C1  UNK     1      27.292  -6.308  38.693  1.00  0.00     0.049 A 
HETATM    4  C2  UNK     1      28.070  -7.465  38.709  1.00  0.00     0.091 A 
HETATM    5  C3  UNK     1      25.275  -7.816  38.698  1.00  0.00     0.048 A 
HETATM    6  C4  UNK     1      25.823  -6.431  38.698  1.00  0.00     0.197 A 
HETATM    7  C6  UNK     1      29.463  -7.371  38.710  1.00  0.00     0.075 A 
HETATM    8  C7  UNK     1      27.901  -5.050  38.676  1.00  0.00     0.021 A 
HETATM    9  C8  UNK     1      30.074  -6.117  38.692  1.00  0.00     0.072 A 
HETATM   10  C9  UNK     1      29.294  -4.959  38.675  1.00  0.00     0.038 A 
HETATM   11  C10 UNK     1      26.157  -8.826  38.712  1.00  0.00     0.159 A 
ENDROOT
BRANCH   9  12
HETATM   12  O2  UNK     1      31.431  -6.021  38.691  1.00  0.00    -0.341 OA
BRANCH  12  13
HETATM   13  C14 UNK     1      32.147  -6.960  37.891  1.00  0.00     0.286 C 
BRANCH  13  14
HETATM   14  C17 UNK     1      32.182  -6.461  36.470  1.00  0.00     0.283 C 
HETATM   15  O5  UNK     1      31.434  -6.833  35.578  1.00  0.00    -0.263 OA
BRANCH  14  16
HETATM   16  O3  UNK     1      33.177  -5.533  36.350  1.00  0.00    -0.315 OA
BRANCH  16  17
HETATM   17  C11 UNK     1      32.852  -4.379  35.567  1.00  0.00     0.123 C 
HETATM   18  C15 UNK     1      32.154  -3.356  36.448  1.00  0.00     0.040 C 
HETATM   19  C16 UNK     1      34.124  -3.820  34.948  1.00  0.00     0.040 C 
ENDBRANCH  16  17
ENDBRANCH  14  16
ENDBRANCH  13  14
ENDBRANCH  12  13
ENDBRANCH   9  12
BRANCH   5  20
HETATM   20  C5  UNK     1      23.827  -8.081  38.664  1.00  0.00    -0.020 A 
HETATM   21  C12 UNK     1      23.213  -8.468  37.471  1.00  0.00     0.014 A 
HETATM   22  C18 UNK     1      21.842  -8.720  37.439  1.00  0.00     0.024 A 
HETATM   23  C20 UNK     1      21.081  -8.586  38.600  1.00  0.00     0.034 A 
HETATM   24  C19 UNK     1      21.691  -8.200  39.794  1.00  0.00     0.024 A 
HETATM   25 Cl1  UNK     1      19.388  -8.896  38.561  1.00  0.00    -0.084 Cl
HETATM   26  C13 UNK     1      23.062  -7.947  39.825  1.00  0.00     0.014 A 
ENDBRANCH   5  20
TORSDOF 6
ENDMDL
