MODEL 1
REMARK VINA RESULT:      -8.8      0.000      0.000
REMARK  3 active torsions:
REMARK  status: ('A' for Active; 'I' for Inactive)
REMARK    1  A    between atoms: C13_17  and  O2_2 
REMARK    2  A    between atoms: C11_15  and  O4_4 
REMARK    3  A    between atoms: C2_6  and  C4_8 
ROOT
HETATM    1  O1  UNK     1      18.788  -0.526  33.654  1.00  0.00    -0.309 OA
HETATM    2  O3  UNK     1      20.566  -3.607  35.639  1.00  0.00    -0.287 OA
HETATM    3  C1  UNK     1      19.132  -1.732  35.734  1.00  0.00     0.048 A 
HETATM    4  C2  UNK     1      19.622  -1.424  33.006  1.00  0.00     0.090 A 
HETATM    5  C3  UNK     1      18.557  -0.699  34.996  1.00  0.00     0.093 A 
HETATM    6  C5  UNK     1      20.025  -2.681  35.052  1.00  0.00     0.187 A 
HETATM    7  C6  UNK     1      20.238  -2.454  33.609  1.00  0.00     0.093 A 
HETATM    8  C7  UNK     1      18.861  -1.859  37.099  1.00  0.00     0.021 A 
HETATM    9  C8  UNK     1      17.708   0.216  35.619  1.00  0.00     0.074 A 
HETATM   10  C11 UNK     1      17.437   0.093  36.982  1.00  0.00     0.068 A 
HETATM   11  C12 UNK     1      18.012  -0.943  37.720  1.00  0.00     0.037 A 
ENDROOT
BRANCH   4  12
HETATM   12  C4  UNK     1      19.805  -1.143  31.568  1.00  0.00     0.001 A 
HETATM   13  C10 UNK     1      20.330  -2.124  30.724  1.00  0.00     0.014 A 
HETATM   14  C14 UNK     1      20.503  -1.860  29.365  1.00  0.00     0.004 A 
HETATM   15  C15 UNK     1      20.151  -0.614  28.846  1.00  0.00     0.037 A 
HETATM   16  C13 UNK     1      19.626   0.368  29.687  1.00  0.00     0.069 A 
HETATM   17  C9  UNK     1      19.454   0.104  31.045  1.00  0.00     0.051 A 
BRANCH  16  18
HETATM   18  O2  UNK     1      19.281   1.583  29.180  1.00  0.00    -0.356 OA
HETATM   19  C16 UNK     1      17.944   1.732  28.703  1.00  0.00     0.210 C 
ENDBRANCH  16  18
ENDBRANCH   4  12
BRANCH  10  20
HETATM   20  O4  UNK     1      16.608   0.984  37.593  1.00  0.00    -0.361 OA
HETATM   21  H9  UNK     1      16.050   1.408  36.919  1.00  0.00     0.217 HD
ENDBRANCH  10  20
TORSDOF 3
ENDMDL
MODEL 2
REMARK VINA RESULT:      -8.2     13.407     17.492
REMARK  3 active torsions:
REMARK  status: ('A' for Active; 'I' for Inactive)
REMARK    1  A    between atoms: C13_17  and  O2_2 
REMARK    2  A    between atoms: C11_15  and  O4_4 
REMARK    3  A    between atoms: C2_6  and  C4_8 
ROOT
HETATM    1  O1  UNK     1      19.123  -0.915  17.218  1.00  0.00    -0.309 OA
HETATM    2  O3  UNK     1      19.340   2.767  15.490  1.00  0.00    -0.287 OA
HETATM    3  C1  UNK     1      19.207   1.498  17.478  1.00  0.00     0.048 A 
HETATM    4  C2  UNK     1      19.198  -0.760  15.843  1.00  0.00     0.090 A 
HETATM    5  C3  UNK     1      19.132   0.209  18.004  1.00  0.00     0.093 A 
HETATM    6  C5  UNK     1      19.277   1.667  16.019  1.00  0.00     0.187 A 
HETATM    7  C6  UNK     1      19.267   0.426  15.218  1.00  0.00     0.093 A 
HETATM    8  C7  UNK     1      19.213   2.608  18.328  1.00  0.00     0.021 A 
HETATM    9  C8  UNK     1      19.062   0.022  19.385  1.00  0.00     0.074 A 
HETATM   10  C11 UNK     1      19.067   1.127  20.236  1.00  0.00     0.068 A 
HETATM   11  C12 UNK     1      19.143   2.417  19.708  1.00  0.00     0.037 A 
ENDROOT
BRANCH   4  12
HETATM   12  C4  UNK     1      19.175  -2.033  15.093  1.00  0.00     0.001 A 
HETATM   13  C10 UNK     1      19.417  -3.240  15.753  1.00  0.00     0.014 A 
HETATM   14  C14 UNK     1      19.395  -4.442  15.047  1.00  0.00     0.004 A 
HETATM   15  C15 UNK     1      19.133  -4.442  13.677  1.00  0.00     0.037 A 
HETATM   16  C13 UNK     1      18.891  -3.238  13.014  1.00  0.00     0.069 A 
HETATM   17  C9  UNK     1      18.913  -2.036  13.721  1.00  0.00     0.051 A 
BRANCH  16  18
HETATM   18  O2  UNK     1      18.632  -3.238  11.678  1.00  0.00    -0.356 OA
HETATM   19  C16 UNK     1      19.444  -2.397  10.859  1.00  0.00     0.210 C 
ENDBRANCH  16  18
ENDBRANCH   4  12
BRANCH  10  20
HETATM   20  O4  UNK     1      18.999   0.947  21.583  1.00  0.00    -0.361 OA
HETATM   21  H9  UNK     1      19.861   0.630  21.903  1.00  0.00     0.217 HD
ENDBRANCH  10  20
TORSDOF 3
ENDMDL
MODEL 3
REMARK VINA RESULT:      -8.2      1.091      2.581
REMARK  3 active torsions:
REMARK  status: ('A' for Active; 'I' for Inactive)
REMARK    1  A    between atoms: C13_17  and  O2_2 
REMARK    2  A    between atoms: C11_15  and  O4_4 
REMARK    3  A    between atoms: C2_6  and  C4_8 
ROOT
HETATM    1  O1  UNK     1      19.602  -1.624  33.718  1.00  0.00    -0.309 OA
HETATM    2  O3  UNK     1      17.207   1.228  35.368  1.00  0.00    -0.287 OA
HETATM    3  C1  UNK     1      18.480  -0.737  35.681  1.00  0.00     0.048 A 
HETATM    4  C2  UNK     1      19.091  -0.578  32.965  1.00  0.00     0.090 A 
HETATM    5  C3  UNK     1      19.292  -1.681  35.053  1.00  0.00     0.093 A 
HETATM    6  C5  UNK     1      17.929   0.369  34.884  1.00  0.00     0.187 A 
HETATM    7  C6  UNK     1      18.295   0.387  33.453  1.00  0.00     0.093 A 
HETATM    8  C7  UNK     1      18.197  -0.846  37.045  1.00  0.00     0.021 A 
HETATM    9  C8  UNK     1      19.825  -2.741  35.786  1.00  0.00     0.074 A 
HETATM   10  C11 UNK     1      19.544  -2.853  37.149  1.00  0.00     0.068 A 
HETATM   11  C12 UNK     1      18.732  -1.907  37.776  1.00  0.00     0.037 A 
ENDROOT
BRANCH   4  12
HETATM   12  C4  UNK     1      19.483  -0.616  31.541  1.00  0.00     0.001 A 
HETATM   13  C10 UNK     1      20.237  -1.684  31.050  1.00  0.00     0.014 A 
HETATM   14  C14 UNK     1      20.607  -1.722  29.706  1.00  0.00     0.004 A 
HETATM   15  C15 UNK     1      20.224  -0.691  28.848  1.00  0.00     0.037 A 
HETATM   16  C13 UNK     1      19.471   0.378  29.335  1.00  0.00     0.069 A 
HETATM   17  C9  UNK     1      19.101   0.415  30.680  1.00  0.00     0.051 A 
BRANCH  16  18
HETATM   18  O2  UNK     1      19.096   1.383  28.498  1.00  0.00    -0.356 OA
HETATM   19  C16 UNK     1      17.925   2.119  28.850  1.00  0.00     0.210 C 
ENDBRANCH  16  18
ENDBRANCH   4  12
BRANCH  10  20
HETATM   20  O4  UNK     1      20.064  -3.886  37.867  1.00  0.00    -0.361 OA
HETATM   21  H9  UNK     1      20.444  -3.537  38.691  1.00  0.00     0.217 HD
ENDBRANCH  10  20
TORSDOF 3
ENDMDL
MODEL 4
REMARK VINA RESULT:      -8.2     24.745     26.866
REMARK  3 active torsions:
REMARK  status: ('A' for Active; 'I' for Inactive)
REMARK    1  A    between atoms: C13_17  and  O2_2 
REMARK    2  A    between atoms: C11_15  and  O4_4 
REMARK    3  A    between atoms: C2_6  and  C4_8 
ROOT
HETATM    1  O1  UNK     1      13.314   7.503   8.512  1.00  0.00    -0.309 OA
HETATM    2  O3  UNK     1      15.376   4.203   9.718  1.00  0.00    -0.287 OA
HETATM    3  C1  UNK     1      15.300   6.558   9.543  1.00  0.00     0.048 A 
HETATM    4  C2  UNK     1      12.802   6.225   8.348  1.00  0.00     0.090 A 
HETATM    5  C3  UNK     1      14.543   7.644   9.106  1.00  0.00     0.093 A 
HETATM    6  C5  UNK     1      14.764   5.200   9.362  1.00  0.00     0.187 A 
HETATM    7  C6  UNK     1      13.437   5.102   8.721  1.00  0.00     0.093 A 
HETATM    8  C7  UNK     1      16.546   6.761  10.141  1.00  0.00     0.021 A 
HETATM    9  C8  UNK     1      15.029   8.942   9.263  1.00  0.00     0.074 A 
HETATM   10  C11 UNK     1      16.273   9.149   9.859  1.00  0.00     0.068 A 
HETATM   11  C12 UNK     1      17.030   8.060  10.297  1.00  0.00     0.037 A 
ENDROOT
BRANCH   4  12
HETATM   12  C4  UNK     1      11.478   6.188   7.695  1.00  0.00     0.001 A 
HETATM   13  C10 UNK     1      11.383   6.201   6.302  1.00  0.00     0.014 A 
HETATM   14  C14 UNK     1      10.133   6.166   5.684  1.00  0.00     0.004 A 
HETATM   15  C15 UNK     1       8.974   6.118   6.458  1.00  0.00     0.037 A 
HETATM   16  C13 UNK     1       9.065   6.105   7.850  1.00  0.00     0.069 A 
HETATM   17  C9  UNK     1      10.315   6.141   8.467  1.00  0.00     0.051 A 
BRANCH  16  18
HETATM   18  O2  UNK     1       7.933   6.057   8.605  1.00  0.00    -0.356 OA
HETATM   19  C16 UNK     1       7.749   4.904   9.425  1.00  0.00     0.210 C 
ENDBRANCH  16  18
ENDBRANCH   4  12
BRANCH  10  20
HETATM   20  O4  UNK     1      16.750  10.414  10.015  1.00  0.00    -0.361 OA
HETATM   21  H9  UNK     1      16.109  11.041   9.640  1.00  0.00     0.217 HD
ENDBRANCH  10  20
TORSDOF 3
ENDMDL
MODEL 5
REMARK VINA RESULT:      -8.1      1.793      7.075
REMARK  3 active torsions:
REMARK  status: ('A' for Active; 'I' for Inactive)
REMARK    1  A    between atoms: C13_17  and  O2_2 
REMARK    2  A    between atoms: C11_15  and  O4_4 
REMARK    3  A    between atoms: C2_6  and  C4_8 
ROOT
HETATM    1  O1  UNK     1      19.086  -0.406  33.047  1.00  0.00    -0.309 OA
HETATM    2  O3  UNK     1      18.577   2.851  30.654  1.00  0.00    -0.287 OA
HETATM    3  C1  UNK     1      19.294   0.609  30.850  1.00  0.00     0.048 A 
HETATM    4  C2  UNK     1      18.547   0.775  33.531  1.00  0.00     0.090 A 
HETATM    5  C3  UNK     1      19.443  -0.468  31.723  1.00  0.00     0.093 A 
HETATM    6  C5  UNK     1      18.732   1.866  31.363  1.00  0.00     0.187 A 
HETATM    7  C6  UNK     1      18.360   1.880  32.792  1.00  0.00     0.093 A 
HETATM    8  C7  UNK     1      19.676   0.489  29.511  1.00  0.00     0.021 A 
HETATM    9  C8  UNK     1      19.977  -1.672  31.263  1.00  0.00     0.074 A 
HETATM   10  C11 UNK     1      20.360  -1.794  29.927  1.00  0.00     0.068 A 
HETATM   11  C12 UNK     1      20.209  -0.716  29.053  1.00  0.00     0.037 A 
ENDROOT
BRANCH   4  12
HETATM   12  C4  UNK     1      18.203   0.733  34.968  1.00  0.00     0.001 A 
HETATM   13  C10 UNK     1      17.651   1.856  35.588  1.00  0.00     0.014 A 
HETATM   14  C14 UNK     1      17.325   1.818  36.944  1.00  0.00     0.004 A 
HETATM   15  C15 UNK     1      17.551   0.657  37.683  1.00  0.00     0.037 A 
HETATM   16  C13 UNK     1      18.103  -0.466  37.066  1.00  0.00     0.069 A 
HETATM   17  C9  UNK     1      18.429  -0.428  35.710  1.00  0.00     0.051 A 
BRANCH  16  18
HETATM   18  O2  UNK     1      18.321  -1.600  37.787  1.00  0.00    -0.356 OA
HETATM   19  C16 UNK     1      19.271  -2.528  37.265  1.00  0.00     0.210 C 
ENDBRANCH  16  18
ENDBRANCH   4  12
BRANCH  10  20
HETATM   20  O4  UNK     1      20.880  -2.968  29.474  1.00  0.00    -0.361 OA
HETATM   21  H9  UNK     1      20.151  -3.550  29.198  1.00  0.00     0.217 HD
ENDBRANCH  10  20
TORSDOF 3
ENDMDL
MODEL 6
REMARK VINA RESULT:      -8.1      1.842      7.127
REMARK  3 active torsions:
REMARK  status: ('A' for Active; 'I' for Inactive)
REMARK    1  A    between atoms: C13_17  and  O2_2 
REMARK    2  A    between atoms: C11_15  and  O4_4 
REMARK    3  A    between atoms: C2_6  and  C4_8 
ROOT
HETATM    1  O1  UNK     1      18.900  -0.011  32.965  1.00  0.00    -0.309 OA
HETATM    2  O3  UNK     1      17.772   3.848  32.314  1.00  0.00    -0.287 OA
HETATM    3  C1  UNK     1      18.647   1.845  31.418  1.00  0.00     0.048 A 
HETATM    4  C2  UNK     1      18.387   0.778  33.982  1.00  0.00     0.090 A 
HETATM    5  C3  UNK     1      19.016   0.532  31.710  1.00  0.00     0.093 A 
HETATM    6  C5  UNK     1      18.111   2.688  32.498  1.00  0.00     0.187 A 
HETATM    7  C6  UNK     1      18.003   2.055  33.828  1.00  0.00     0.093 A 
HETATM    8  C7  UNK     1      18.787   2.345  30.122  1.00  0.00     0.021 A 
HETATM    9  C8  UNK     1      19.529  -0.288  30.706  1.00  0.00     0.074 A 
HETATM   10  C11 UNK     1      19.671   0.209  29.410  1.00  0.00     0.068 A 
HETATM   11  C12 UNK     1      19.301   1.523  29.119  1.00  0.00     0.037 A 
ENDROOT
BRANCH   4  12
HETATM   12  C4  UNK     1      18.311   0.096  35.291  1.00  0.00     0.001 A 
HETATM   13  C10 UNK     1      17.824   0.778  36.408  1.00  0.00     0.014 A 
HETATM   14  C14 UNK     1      17.751   0.136  37.644  1.00  0.00     0.004 A 
HETATM   15  C15 UNK     1      18.166  -1.191  37.766  1.00  0.00     0.037 A 
HETATM   16  C13 UNK     1      18.653  -1.874  36.652  1.00  0.00     0.069 A 
HETATM   17  C9  UNK     1      18.726  -1.231  35.416  1.00  0.00     0.051 A 
BRANCH  16  18
HETATM   18  O2  UNK     1      19.055  -3.169  36.771  1.00  0.00    -0.356 OA
HETATM   19  C16 UNK     1      20.428  -3.396  37.085  1.00  0.00     0.210 C 
ENDBRANCH  16  18
ENDBRANCH   4  12
BRANCH  10  20
HETATM   20  O4  UNK     1      20.171  -0.590  28.427  1.00  0.00    -0.361 OA
HETATM   21  H9  UNK     1      19.773  -1.473  28.506  1.00  0.00     0.217 HD
ENDBRANCH  10  20
TORSDOF 3
ENDMDL
MODEL 7
REMARK VINA RESULT:      -7.9     13.360     16.857
REMARK  3 active torsions:
REMARK  status: ('A' for Active; 'I' for Inactive)
REMARK    1  A    between atoms: C13_17  and  O2_2 
REMARK    2  A    between atoms: C11_15  and  O4_4 
REMARK    3  A    between atoms: C2_6  and  C4_8 
ROOT
HETATM    1  O1  UNK     1      19.113  -0.973  17.749  1.00  0.00    -0.309 OA
HETATM    2  O3  UNK     1      19.189   2.353  15.399  1.00  0.00    -0.287 OA
HETATM    3  C1  UNK     1      19.136   1.450  17.582  1.00  0.00     0.048 A 
HETATM    4  C2  UNK     1      19.153  -1.060  16.367  1.00  0.00     0.090 A 
HETATM    5  C3  UNK     1      19.110   0.271  18.327  1.00  0.00     0.093 A 
HETATM    6  C5  UNK     1      19.169   1.361  16.114  1.00  0.00     0.187 A 
HETATM    7  C6  UNK     1      19.175  -0.001  15.543  1.00  0.00     0.093 A 
HETATM    8  C7  UNK     1      19.130   2.691  18.224  1.00  0.00     0.021 A 
HETATM    9  C8  UNK     1      19.076   0.327  19.720  1.00  0.00     0.074 A 
HETATM   10  C11 UNK     1      19.069   1.565  20.364  1.00  0.00     0.068 A 
HETATM   11  C12 UNK     1      19.097   2.744  19.618  1.00  0.00     0.037 A 
ENDROOT
BRANCH   4  12
HETATM   12  C4  UNK     1      19.149  -2.445  15.852  1.00  0.00     0.001 A 
HETATM   13  C10 UNK     1      17.961  -3.018  15.393  1.00  0.00     0.014 A 
HETATM   14  C14 UNK     1      17.955  -4.325  14.906  1.00  0.00     0.004 A 
HETATM   15  C15 UNK     1      19.138  -5.064  14.878  1.00  0.00     0.037 A 
HETATM   16  C13 UNK     1      20.326  -4.494  15.336  1.00  0.00     0.069 A 
HETATM   17  C9  UNK     1      20.332  -3.187  15.823  1.00  0.00     0.051 A 
BRANCH  16  18
HETATM   18  O2  UNK     1      21.481  -5.215  15.306  1.00  0.00    -0.356 OA
HETATM   19  C16 UNK     1      22.485  -4.872  16.261  1.00  0.00     0.210 C 
ENDBRANCH  16  18
ENDBRANCH   4  12
BRANCH  10  20
HETATM   20  O4  UNK     1      19.037   1.623  21.724  1.00  0.00    -0.361 OA
HETATM   21  H9  UNK     1      18.266   1.123  22.043  1.00  0.00     0.217 HD
ENDBRANCH  10  20
TORSDOF 3
ENDMDL
MODEL 8
REMARK VINA RESULT:      -7.9      1.311      6.331
REMARK  3 active torsions:
REMARK  status: ('A' for Active; 'I' for Inactive)
REMARK    1  A    between atoms: C13_17  and  O2_2 
REMARK    2  A    between atoms: C11_15  and  O4_4 
REMARK    3  A    between atoms: C2_6  and  C4_8 
ROOT
HETATM    1  O1  UNK     1      19.137  -0.482  32.836  1.00  0.00    -0.309 OA
HETATM    2  O3  UNK     1      21.263  -3.457  31.040  1.00  0.00    -0.287 OA
HETATM    3  C1  UNK     1      20.169  -1.374  30.826  1.00  0.00     0.048 A 
HETATM    4  C2  UNK     1      19.574  -1.592  33.542  1.00  0.00     0.090 A 
HETATM    5  C3  UNK     1      19.444  -0.393  31.501  1.00  0.00     0.093 A 
HETATM    6  C5  UNK     1      20.626  -2.557  31.570  1.00  0.00     0.187 A 
HETATM    7  C6  UNK     1      20.273  -2.603  33.003  1.00  0.00     0.093 A 
HETATM    8  C7  UNK     1      20.452  -1.230  29.465  1.00  0.00     0.021 A 
HETATM    9  C8  UNK     1      18.996   0.738  30.819  1.00  0.00     0.074 A 
HETATM   10  C11 UNK     1      19.276   0.884  29.460  1.00  0.00     0.068 A 
HETATM   11  C12 UNK     1      20.003  -0.098  28.785  1.00  0.00     0.037 A 
ENDROOT
BRANCH   4  12
HETATM   12  C4  UNK     1      19.185  -1.588  34.967  1.00  0.00     0.001 A 
HETATM   13  C10 UNK     1      19.793  -2.472  35.861  1.00  0.00     0.014 A 
HETATM   14  C14 UNK     1      19.427  -2.470  37.207  1.00  0.00     0.004 A 
HETATM   15  C15 UNK     1      18.451  -1.584  37.663  1.00  0.00     0.037 A 
HETATM   16  C13 UNK     1      17.841  -0.700  36.772  1.00  0.00     0.069 A 
HETATM   17  C9  UNK     1      18.208  -0.703  35.426  1.00  0.00     0.051 A 
BRANCH  16  18
HETATM   18  O2  UNK     1      16.890   0.166  37.217  1.00  0.00    -0.356 OA
HETATM   19  C16 UNK     1      17.338   1.440  37.681  1.00  0.00     0.210 C 
ENDBRANCH  16  18
ENDBRANCH   4  12
BRANCH  10  20
HETATM   20  O4  UNK     1      18.841   1.987  28.791  1.00  0.00    -0.361 OA
HETATM   21  H9  UNK     1      18.125   1.728  28.187  1.00  0.00     0.217 HD
ENDBRANCH  10  20
TORSDOF 3
ENDMDL
MODEL 9
REMARK VINA RESULT:      -7.8      5.921      7.786
REMARK  3 active torsions:
REMARK  status: ('A' for Active; 'I' for Inactive)
REMARK    1  A    between atoms: C13_17  and  O2_2 
REMARK    2  A    between atoms: C11_15  and  O4_4 
REMARK    3  A    between atoms: C2_6  and  C4_8 
ROOT
HETATM    1  O1  UNK     1      16.847   5.477  32.020  1.00  0.00    -0.309 OA
HETATM    2  O3  UNK     1      19.701   7.883  33.649  1.00  0.00    -0.287 OA
HETATM    3  C1  UNK     1      17.436   7.600  33.042  1.00  0.00     0.048 A 
HETATM    4  C2  UNK     1      18.164   5.063  32.141  1.00  0.00     0.090 A 
HETATM    5  C3  UNK     1      16.509   6.728  32.473  1.00  0.00     0.093 A 
HETATM    6  C5  UNK     1      18.836   7.168  33.164  1.00  0.00     0.187 A 
HETATM    7  C6  UNK     1      19.147   5.813  32.665  1.00  0.00     0.093 A 
HETATM    8  C7  UNK     1      17.035   8.863  33.486  1.00  0.00     0.021 A 
HETATM    9  C8  UNK     1      15.175   7.114  32.343  1.00  0.00     0.074 A 
HETATM   10  C11 UNK     1      14.772   8.374  32.784  1.00  0.00     0.068 A 
HETATM   11  C12 UNK     1      15.700   9.247  33.355  1.00  0.00     0.037 A 
ENDROOT
BRANCH   4  12
HETATM   12  C4  UNK     1      18.417   3.705  31.619  1.00  0.00     0.001 A 
HETATM   13  C10 UNK     1      18.653   3.512  30.256  1.00  0.00     0.014 A 
HETATM   14  C14 UNK     1      18.893   2.230  29.761  1.00  0.00     0.004 A 
HETATM   15  C15 UNK     1      18.897   1.137  30.627  1.00  0.00     0.037 A 
HETATM   16  C13 UNK     1      18.661   1.327  31.989  1.00  0.00     0.069 A 
HETATM   17  C9  UNK     1      18.421   2.609  32.484  1.00  0.00     0.051 A 
BRANCH  16  18
HETATM   18  O2  UNK     1      18.667   0.260  32.835  1.00  0.00    -0.356 OA
HETATM   19  C16 UNK     1      18.993  -1.011  32.275  1.00  0.00     0.210 C 
ENDBRANCH  16  18
ENDBRANCH   4  12
BRANCH  10  20
HETATM   20  O4  UNK     1      13.471   8.754  32.660  1.00  0.00    -0.361 OA
HETATM   21  H9  UNK     1      13.243   8.794  31.715  1.00  0.00     0.217 HD
ENDBRANCH  10  20
TORSDOF 3
ENDMDL
MODEL 10
REMARK VINA RESULT:      -7.7      3.736      7.231
REMARK  3 active torsions:
REMARK  status: ('A' for Active; 'I' for Inactive)
REMARK    1  A    between atoms: C13_17  and  O2_2 
REMARK    2  A    between atoms: C11_15  and  O4_4 
REMARK    3  A    between atoms: C2_6  and  C4_8 
ROOT
HETATM    1  O1  UNK     1      18.275   3.537  34.535  1.00  0.00    -0.309 OA
HETATM    2  O3  UNK     1      18.279   2.166  30.698  1.00  0.00    -0.287 OA
HETATM    3  C1  UNK     1      18.370   4.023  32.157  1.00  0.00     0.048 A 
HETATM    4  C2  UNK     1      18.200   2.184  34.246  1.00  0.00     0.090 A 
HETATM    5  C3  UNK     1      18.362   4.425  33.492  1.00  0.00     0.093 A 
HETATM    6  C5  UNK     1      18.281   2.588  31.846  1.00  0.00     0.187 A 
HETATM    7  C6  UNK     1      18.193   1.675  33.003  1.00  0.00     0.093 A 
HETATM    8  C7  UNK     1      18.460   4.972  31.135  1.00  0.00     0.021 A 
HETATM    9  C8  UNK     1      18.442   5.780  33.813  1.00  0.00     0.074 A 
HETATM   10  C11 UNK     1      18.532   6.730  32.795  1.00  0.00     0.068 A 
HETATM   11  C12 UNK     1      18.541   6.326  31.459  1.00  0.00     0.037 A 
ENDROOT
BRANCH   4  12
HETATM   12  C4  UNK     1      18.105   1.319  35.440  1.00  0.00     0.001 A 
HETATM   13  C10 UNK     1      17.611   1.834  36.640  1.00  0.00     0.014 A 
HETATM   14  C14 UNK     1      17.520   1.020  37.769  1.00  0.00     0.004 A 
HETATM   15  C15 UNK     1      17.925  -0.313  37.700  1.00  0.00     0.037 A 
HETATM   16  C13 UNK     1      18.420  -0.831  36.503  1.00  0.00     0.069 A 
HETATM   17  C9  UNK     1      18.510  -0.016  35.375  1.00  0.00     0.051 A 
BRANCH  16  18
HETATM   18  O2  UNK     1      18.812  -2.133  36.436  1.00  0.00    -0.356 OA
HETATM   19  C16 UNK     1      20.156  -2.385  36.028  1.00  0.00     0.210 C 
ENDBRANCH  16  18
ENDBRANCH   4  12
BRANCH  10  20
HETATM   20  O4  UNK     1      18.612   8.053  33.106  1.00  0.00    -0.361 OA
HETATM   21  H9  UNK     1      17.966   8.252  33.805  1.00  0.00     0.217 HD
ENDBRANCH  10  20
TORSDOF 3
ENDMDL
