MODEL 1
REMARK VINA RESULT:      -8.6      0.000      0.000
REMARK  1 active torsions:
REMARK  status: ('A' for Active; 'I' for Inactive)
REMARK    1  A    between atoms: C1_5  and  C2_6 
ROOT
HETATM    1  O1  UNK     1      18.761   0.297  32.864  1.00  0.00    -0.274 OA
HETATM    2  O2  UNK     1      17.910   1.810  34.341  1.00  0.00    -0.259 OA
HETATM    3  C2  UNK     1      18.470   2.646  32.178  1.00  0.00     0.070 A 
HETATM    4  C5  UNK     1      19.334   0.985  30.610  1.00  0.00    -0.001 A 
HETATM    5  C6  UNK     1      18.931   2.338  30.955  1.00  0.00     0.034 A 
HETATM    6  C7  UNK     1      19.243  -0.007  31.579  1.00  0.00     0.089 A 
HETATM    7  C8  UNK     1      18.352   1.581  33.219  1.00  0.00     0.301 A 
HETATM    8  C11 UNK     1      19.815   0.648  29.343  1.00  0.00     0.014 A 
HETATM    9  C12 UNK     1      19.616  -1.324  31.318  1.00  0.00     0.038 A 
HETATM   10  C15 UNK     1      20.193  -0.669  29.065  1.00  0.00     0.001 A 
HETATM   11  C16 UNK     1      20.093  -1.653  30.051  1.00  0.00     0.003 A 
ENDROOT
BRANCH   3  12
HETATM   12  C1  UNK     1      18.073   3.987  32.526  1.00  0.00     0.091 A 
HETATM   13  N2  UNK     1      17.184   4.681  31.757  1.00  0.00    -0.229 NA
HETATM   14  C3  UNK     1      17.054   5.846  32.361  1.00  0.00     0.134 A 
HETATM   15  C10 UNK     1      16.272   6.996  32.047  1.00  0.00     0.051 A 
HETATM   16  N1  UNK     1      17.845   5.912  33.504  1.00  0.00    -0.315 N 
HETATM   17  C14 UNK     1      16.325   8.077  32.849  1.00  0.00     0.005 A 
HETATM   18  C13 UNK     1      17.166   8.106  34.035  1.00  0.00     0.018 A 
HETATM   19  C9  UNK     1      17.906   7.026  34.337  1.00  0.00     0.098 A 
HETATM   20  C4  UNK     1      18.499   4.710  33.606  1.00  0.00     0.130 A 
ENDBRANCH   3  12
TORSDOF 1
ENDMDL
MODEL 2
REMARK VINA RESULT:      -8.6      6.941     10.636
REMARK  1 active torsions:
REMARK  status: ('A' for Active; 'I' for Inactive)
REMARK    1  A    between atoms: C1_5  and  C2_6 
ROOT
HETATM    1  O1  UNK     1      19.616  -1.058  34.811  1.00  0.00    -0.274 OA
HETATM    2  O2  UNK     1      20.626  -3.029  34.279  1.00  0.00    -0.259 OA
HETATM    3  C2  UNK     1      19.574  -2.926  36.417  1.00  0.00     0.070 A 
HETATM    4  C5  UNK     1      18.462  -0.813  36.930  1.00  0.00    -0.001 A 
HETATM    5  C6  UNK     1      18.851  -2.174  37.262  1.00  0.00     0.034 A 
HETATM    6  C7  UNK     1      18.859  -0.284  35.709  1.00  0.00     0.089 A 
HETATM    7  C8  UNK     1      19.989  -2.370  35.094  1.00  0.00     0.301 A 
HETATM    8  C11 UNK     1      17.709  -0.017  37.797  1.00  0.00     0.014 A 
HETATM    9  C12 UNK     1      18.525   1.014  35.328  1.00  0.00     0.038 A 
HETATM   10  C15 UNK     1      17.366   1.286  37.430  1.00  0.00     0.001 A 
HETATM   11  C16 UNK     1      17.773   1.802  36.197  1.00  0.00     0.003 A 
ENDROOT
BRANCH   3  12
HETATM   12  C1  UNK     1      19.965  -4.274  36.743  1.00  0.00     0.091 A 
HETATM   13  N2  UNK     1      21.117  -4.528  37.431  1.00  0.00    -0.229 NA
HETATM   14  C3  UNK     1      21.156  -5.839  37.551  1.00  0.00     0.134 A 
HETATM   15  C10 UNK     1      22.104  -6.709  38.167  1.00  0.00     0.051 A 
HETATM   16  N1  UNK     1      20.049  -6.434  36.952  1.00  0.00    -0.315 N 
HETATM   17  C14 UNK     1      21.900  -8.040  38.147  1.00  0.00     0.005 A 
HETATM   18  C13 UNK     1      20.729  -8.621  37.508  1.00  0.00     0.018 A 
HETATM   19  C9  UNK     1      19.832  -7.809  36.926  1.00  0.00     0.098 A 
HETATM   20  C4  UNK     1      19.285  -5.420  36.434  1.00  0.00     0.130 A 
ENDBRANCH   3  12
TORSDOF 1
ENDMDL
MODEL 3
REMARK VINA RESULT:      -8.5     14.584     18.285
REMARK  1 active torsions:
REMARK  status: ('A' for Active; 'I' for Inactive)
REMARK    1  A    between atoms: C1_5  and  C2_6 
ROOT
HETATM    1  O1  UNK     1      19.341   1.150  15.597  1.00  0.00    -0.274 OA
HETATM    2  O2  UNK     1      19.436  -0.343  13.879  1.00  0.00    -0.259 OA
HETATM    3  C2  UNK     1      19.048  -1.255  16.049  1.00  0.00     0.070 A 
HETATM    4  C5  UNK     1      18.906   0.382  17.855  1.00  0.00    -0.001 A 
HETATM    5  C6  UNK     1      18.864  -0.980  17.350  1.00  0.00     0.034 A 
HETATM    6  C7  UNK     1      19.148   1.418  16.963  1.00  0.00     0.089 A 
HETATM    7  C8  UNK     1      19.291  -0.143  15.081  1.00  0.00     0.301 A 
HETATM    8  C11 UNK     1      18.716   0.685  19.206  1.00  0.00     0.014 A 
HETATM    9  C12 UNK     1      19.205   2.747  17.380  1.00  0.00     0.038 A 
HETATM   10  C15 UNK     1      18.769   2.012  19.640  1.00  0.00     0.001 A 
HETATM   11  C16 UNK     1      19.014   3.042  18.728  1.00  0.00     0.003 A 
ENDROOT
BRANCH   3  12
HETATM   12  C1  UNK     1      19.012  -2.604  15.543  1.00  0.00     0.091 A 
HETATM   13  N2  UNK     1      20.162  -3.309  15.334  1.00  0.00    -0.229 NA
HETATM   14  C3  UNK     1      19.762  -4.479  14.879  1.00  0.00     0.134 A 
HETATM   15  C10 UNK     1      20.485  -5.642  14.479  1.00  0.00     0.051 A 
HETATM   16  N1  UNK     1      18.374  -4.538  14.792  1.00  0.00    -0.315 N 
HETATM   17  C14 UNK     1      19.816  -6.727  14.044  1.00  0.00     0.005 A 
HETATM   18  C13 UNK     1      18.364  -6.747  13.968  1.00  0.00     0.018 A 
HETATM   19  C9  UNK     1      17.676  -5.656  14.342  1.00  0.00     0.098 A 
HETATM   20  C4  UNK     1      17.896  -3.327  15.223  1.00  0.00     0.130 A 
ENDBRANCH   3  12
TORSDOF 1
ENDMDL
MODEL 4
REMARK VINA RESULT:      -8.4      1.949      2.416
REMARK  1 active torsions:
REMARK  status: ('A' for Active; 'I' for Inactive)
REMARK    1  A    between atoms: C1_5  and  C2_6 
ROOT
HETATM    1  O1  UNK     1      18.885   1.639  28.604  1.00  0.00    -0.274 OA
HETATM    2  O2  UNK     1      18.231   3.821  28.607  1.00  0.00    -0.259 OA
HETATM    3  C2  UNK     1      18.834   2.897  30.722  1.00  0.00     0.070 A 
HETATM    4  C5  UNK     1      19.574   0.570  30.669  1.00  0.00    -0.001 A 
HETATM    5  C6  UNK     1      19.290   1.812  31.369  1.00  0.00     0.034 A 
HETATM    6  C7  UNK     1      19.360   0.512  29.298  1.00  0.00     0.089 A 
HETATM    7  C8  UNK     1      18.619   2.846  29.244  1.00  0.00     0.301 A 
HETATM    8  C11 UNK     1      20.050  -0.567  31.327  1.00  0.00     0.014 A 
HETATM    9  C12 UNK     1      19.608  -0.647  28.565  1.00  0.00     0.038 A 
HETATM   10  C15 UNK     1      20.303  -1.737  30.607  1.00  0.00     0.001 A 
HETATM   11  C16 UNK     1      20.083  -1.777  29.228  1.00  0.00     0.003 A 
ENDROOT
BRANCH   3  12
HETATM   12  C1  UNK     1      18.547   4.129  31.412  1.00  0.00     0.091 A 
HETATM   13  N2  UNK     1      17.289   4.407  31.865  1.00  0.00    -0.229 NA
HETATM   14  C3  UNK     1      17.390   5.591  32.435  1.00  0.00     0.134 A 
HETATM   15  C10 UNK     1      16.428   6.415  33.090  1.00  0.00     0.051 A 
HETATM   16  N1  UNK     1      18.691   6.079  32.355  1.00  0.00    -0.315 N 
HETATM   17  C14 UNK     1      16.803   7.606  33.594  1.00  0.00     0.005 A 
HETATM   18  C13 UNK     1      18.175   8.081  33.488  1.00  0.00     0.018 A 
HETATM   19  C9  UNK     1      19.086   7.310  32.873  1.00  0.00     0.098 A 
HETATM   20  C4  UNK     1      19.432   5.133  31.695  1.00  0.00     0.130 A 
ENDBRANCH   3  12
TORSDOF 1
ENDMDL
MODEL 5
REMARK VINA RESULT:      -8.0     15.182     17.720
REMARK  1 active torsions:
REMARK  status: ('A' for Active; 'I' for Inactive)
REMARK    1  A    between atoms: C1_5  and  C2_6 
ROOT
HETATM    1  O1  UNK     1      18.195  -3.350  13.577  1.00  0.00    -0.274 OA
HETATM    2  O2  UNK     1      17.310  -2.818  15.608  1.00  0.00    -0.259 OA
HETATM    3  C2  UNK     1      19.069  -1.411  14.823  1.00  0.00     0.070 A 
HETATM    4  C5  UNK     1      19.958  -1.986  12.622  1.00  0.00    -0.001 A 
HETATM    5  C6  UNK     1      19.920  -1.157  13.815  1.00  0.00     0.034 A 
HETATM    6  C7  UNK     1      19.094  -3.069  12.533  1.00  0.00     0.089 A 
HETATM    7  C8  UNK     1      18.124  -2.565  14.725  1.00  0.00     0.301 A 
HETATM    8  C11 UNK     1      20.836  -1.734  11.565  1.00  0.00     0.014 A 
HETATM    9  C12 UNK     1      19.079  -3.907  11.420  1.00  0.00     0.038 A 
HETATM   10  C15 UNK     1      20.834  -2.565  10.441  1.00  0.00     0.001 A 
HETATM   11  C16 UNK     1      19.957  -3.650  10.368  1.00  0.00     0.003 A 
ENDROOT
BRANCH   3  12
HETATM   12  C1  UNK     1      19.030  -0.596  16.010  1.00  0.00     0.091 A 
HETATM   13  N2  UNK     1      19.138   0.763  15.936  1.00  0.00    -0.229 NA
HETATM   14  C3  UNK     1      19.062   1.176  17.185  1.00  0.00     0.134 A 
HETATM   15  C10 UNK     1      19.111   2.481  17.760  1.00  0.00     0.051 A 
HETATM   16  N1  UNK     1      18.908   0.105  18.061  1.00  0.00    -0.315 N 
HETATM   17  C14 UNK     1      19.008   2.626  19.094  1.00  0.00     0.005 A 
HETATM   18  C13 UNK     1      18.848   1.480  19.976  1.00  0.00     0.018 A 
HETATM   19  C9  UNK     1      18.801   0.248  19.442  1.00  0.00     0.098 A 
HETATM   20  C4  UNK     1      18.887  -1.034  17.298  1.00  0.00     0.130 A 
ENDBRANCH   3  12
TORSDOF 1
ENDMDL
MODEL 6
REMARK VINA RESULT:      -8.0      2.478      3.651
REMARK  1 active torsions:
REMARK  status: ('A' for Active; 'I' for Inactive)
REMARK    1  A    between atoms: C1_5  and  C2_6 
ROOT
HETATM    1  O1  UNK     1      18.050   1.845  32.541  1.00  0.00    -0.274 OA
HETATM    2  O2  UNK     1      17.877   3.867  31.505  1.00  0.00    -0.259 OA
HETATM    3  C2  UNK     1      18.336   3.916  33.845  1.00  0.00     0.070 A 
HETATM    4  C5  UNK     1      18.561   1.729  34.908  1.00  0.00    -0.001 A 
HETATM    5  C6  UNK     1      18.570   3.182  34.945  1.00  0.00     0.034 A 
HETATM    6  C7  UNK     1      18.296   1.093  33.702  1.00  0.00     0.089 A 
HETATM    7  C8  UNK     1      18.068   3.238  32.541  1.00  0.00     0.301 A 
HETATM    8  C11 UNK     1      18.804   0.950  36.043  1.00  0.00     0.014 A 
HETATM    9  C12 UNK     1      18.267  -0.297  33.596  1.00  0.00     0.038 A 
HETATM   10  C15 UNK     1      18.779  -0.444  35.953  1.00  0.00     0.001 A 
HETATM   11  C16 UNK     1      18.511  -1.067  34.732  1.00  0.00     0.003 A 
ENDROOT
BRANCH   3  12
HETATM   12  C1  UNK     1      18.340   5.356  33.877  1.00  0.00     0.091 A 
HETATM   13  N2  UNK     1      19.488   6.053  34.122  1.00  0.00    -0.229 NA
HETATM   14  C3  UNK     1      19.129   7.321  34.076  1.00  0.00     0.134 A 
HETATM   15  C10 UNK     1      19.872   8.525  34.250  1.00  0.00     0.051 A 
HETATM   16  N1  UNK     1      17.770   7.450  33.806  1.00  0.00    -0.315 N 
HETATM   17  C14 UNK     1      19.248   9.715  34.149  1.00  0.00     0.005 A 
HETATM   18  C13 UNK     1      17.824   9.806  33.866  1.00  0.00     0.018 A 
HETATM   19  C9  UNK     1      17.118   8.676  33.701  1.00  0.00     0.098 A 
HETATM   20  C4  UNK     1      17.267   6.181  33.678  1.00  0.00     0.130 A 
ENDBRANCH   3  12
TORSDOF 1
ENDMDL
MODEL 7
REMARK VINA RESULT:      -7.9      1.677      2.503
REMARK  1 active torsions:
REMARK  status: ('A' for Active; 'I' for Inactive)
REMARK    1  A    between atoms: C1_5  and  C2_6 
ROOT
HETATM    1  O1  UNK     1      19.029   2.074  30.722  1.00  0.00    -0.274 OA
HETATM    2  O2  UNK     1      18.938   4.274  30.134  1.00  0.00    -0.259 OA
HETATM    3  C2  UNK     1      18.279   3.750  32.367  1.00  0.00     0.070 A 
HETATM    4  C5  UNK     1      18.436   1.389  32.972  1.00  0.00    -0.001 A 
HETATM    5  C6  UNK     1      18.137   2.777  33.281  1.00  0.00     0.034 A 
HETATM    6  C7  UNK     1      18.873   1.069  31.693  1.00  0.00     0.089 A 
HETATM    7  C8  UNK     1      18.766   3.415  30.994  1.00  0.00     0.301 A 
HETATM    8  C11 UNK     1      18.295   0.366  33.912  1.00  0.00     0.014 A 
HETATM    9  C12 UNK     1      19.174  -0.241  31.327  1.00  0.00     0.038 A 
HETATM   10  C15 UNK     1      18.593  -0.953  33.561  1.00  0.00     0.001 A 
HETATM   11  C16 UNK     1      19.032  -1.257  32.270  1.00  0.00     0.003 A 
ENDROOT
BRANCH   3  12
HETATM   12  C1  UNK     1      17.980   5.127  32.667  1.00  0.00     0.091 A 
HETATM   13  N2  UNK     1      16.780   5.679  32.323  1.00  0.00    -0.229 NA
HETATM   14  C3  UNK     1      16.849   6.926  32.743  1.00  0.00     0.134 A 
HETATM   15  C10 UNK     1      15.918   8.004  32.679  1.00  0.00     0.051 A 
HETATM   16  N1  UNK     1      18.075   7.185  33.351  1.00  0.00    -0.315 N 
HETATM   17  C14 UNK     1      16.248   9.203  33.196  1.00  0.00     0.005 A 
HETATM   18  C13 UNK     1      17.541   9.432  33.823  1.00  0.00     0.018 A 
HETATM   19  C9  UNK     1      18.423   8.422  33.887  1.00  0.00     0.098 A 
HETATM   20  C4  UNK     1      18.798   6.021  33.300  1.00  0.00     0.130 A 
ENDBRANCH   3  12
TORSDOF 1
ENDMDL
MODEL 8
REMARK VINA RESULT:      -7.9     14.758     17.319
REMARK  1 active torsions:
REMARK  status: ('A' for Active; 'I' for Inactive)
REMARK    1  A    between atoms: C1_5  and  C2_6 
ROOT
HETATM    1  O1  UNK     1      19.438  -2.622  13.041  1.00  0.00    -0.274 OA
HETATM    2  O2  UNK     1      20.019  -0.511  13.668  1.00  0.00    -0.259 OA
HETATM    3  C2  UNK     1      18.916  -1.835  15.317  1.00  0.00     0.070 A 
HETATM    4  C5  UNK     1      18.352  -4.107  14.622  1.00  0.00    -0.001 A 
HETATM    5  C6  UNK     1      18.386  -3.035  15.602  1.00  0.00     0.034 A 
HETATM    6  C7  UNK     1      18.878  -3.873  13.358  1.00  0.00     0.089 A 
HETATM    7  C8  UNK     1      19.499  -1.582  13.965  1.00  0.00     0.301 A 
HETATM    8  C11 UNK     1      17.806  -5.362  14.903  1.00  0.00     0.014 A 
HETATM    9  C12 UNK     1      18.875  -4.854  12.368  1.00  0.00     0.038 A 
HETATM   10  C15 UNK     1      17.795  -6.356  13.922  1.00  0.00     0.001 A 
HETATM   11  C16 UNK     1      18.329  -6.103  12.656  1.00  0.00     0.003 A 
ENDROOT
BRANCH   3  12
HETATM   12  C1  UNK     1      18.948  -0.768  16.284  1.00  0.00     0.091 A 
HETATM   13  N2  UNK     1      19.115   0.531  15.897  1.00  0.00    -0.229 NA
HETATM   14  C3  UNK     1      19.094   1.223  17.018  1.00  0.00     0.134 A 
HETATM   15  C10 UNK     1      19.218   2.620  17.275  1.00  0.00     0.051 A 
HETATM   16  N1  UNK     1      18.917   0.391  18.120  1.00  0.00    -0.315 N 
HETATM   17  C14 UNK     1      19.160   3.073  18.542  1.00  0.00     0.005 A 
HETATM   18  C13 UNK     1      18.975   2.170  19.667  1.00  0.00     0.018 A 
HETATM   19  C9  UNK     1      18.857   0.852  19.433  1.00  0.00     0.098 A 
HETATM   20  C4  UNK     1      18.822  -0.890  17.641  1.00  0.00     0.130 A 
ENDBRANCH   3  12
TORSDOF 1
ENDMDL
MODEL 9
REMARK VINA RESULT:      -7.8      1.824      6.963
REMARK  1 active torsions:
REMARK  status: ('A' for Active; 'I' for Inactive)
REMARK    1  A    between atoms: C1_5  and  C2_6 
ROOT
HETATM    1  O1  UNK     1      17.768   4.399  34.158  1.00  0.00    -0.274 OA
HETATM    2  O2  UNK     1      18.403   2.214  34.281  1.00  0.00    -0.259 OA
HETATM    3  C2  UNK     1      18.437   3.202  32.110  1.00  0.00     0.070 A 
HETATM    4  C5  UNK     1      17.796   5.557  32.027  1.00  0.00    -0.001 A 
HETATM    5  C6  UNK     1      18.241   4.324  31.399  1.00  0.00     0.034 A 
HETATM    6  C7  UNK     1      17.566   5.564  33.397  1.00  0.00     0.089 A 
HETATM    7  C8  UNK     1      18.209   3.207  33.587  1.00  0.00     0.301 A 
HETATM    8  C11 UNK     1      17.588   6.733  31.302  1.00  0.00     0.014 A 
HETATM    9  C12 UNK     1      17.135   6.710  34.063  1.00  0.00     0.038 A 
HETATM   10  C15 UNK     1      17.157   7.890  31.955  1.00  0.00     0.001 A 
HETATM   11  C16 UNK     1      16.930   7.879  33.334  1.00  0.00     0.003 A 
ENDROOT
BRANCH   3  12
HETATM   12  C1  UNK     1      18.874   1.976  31.492  1.00  0.00     0.091 A 
HETATM   13  N2  UNK     1      18.999   0.826  32.217  1.00  0.00    -0.229 NA
HETATM   14  C3  UNK     1      19.409  -0.077  31.349  1.00  0.00     0.134 A 
HETATM   15  C10 UNK     1      19.718  -1.462  31.493  1.00  0.00     0.051 A 
HETATM   16  N1  UNK     1      19.549   0.473  30.078  1.00  0.00    -0.315 N 
HETATM   17  C14 UNK     1      20.123  -2.170  30.421  1.00  0.00     0.005 A 
HETATM   18  C13 UNK     1      20.258  -1.556  29.109  1.00  0.00     0.018 A 
HETATM   19  C9  UNK     1      19.969  -0.252  28.966  1.00  0.00     0.098 A 
HETATM   20  C4  UNK     1      19.202   1.796  30.176  1.00  0.00     0.130 A 
ENDBRANCH   3  12
TORSDOF 1
ENDMDL
MODEL 10
REMARK VINA RESULT:      -7.8     13.352     14.909
REMARK  1 active torsions:
REMARK  status: ('A' for Active; 'I' for Inactive)
REMARK    1  A    between atoms: C1_5  and  C2_6 
ROOT
HETATM    1  O1  UNK     1      25.677  -5.344  38.798  1.00  0.00    -0.274 OA
HETATM    2  O2  UNK     1      23.399  -5.371  38.789  1.00  0.00    -0.259 OA
HETATM    3  C2  UNK     1      24.481  -7.487  38.581  1.00  0.00     0.070 A 
HETATM    4  C5  UNK     1      26.921  -7.419  38.642  1.00  0.00    -0.001 A 
HETATM    5  C6  UNK     1      25.658  -8.132  38.549  1.00  0.00     0.034 A 
HETATM    6  C7  UNK     1      26.901  -6.036  38.761  1.00  0.00     0.089 A 
HETATM    7  C8  UNK     1      24.451  -6.000  38.727  1.00  0.00     0.301 A 
HETATM    8  C11 UNK     1      28.155  -8.076  38.612  1.00  0.00     0.014 A 
HETATM    9  C12 UNK     1      28.074  -5.289  38.851  1.00  0.00     0.038 A 
HETATM   10  C15 UNK     1      29.340  -7.342  38.702  1.00  0.00     0.001 A 
HETATM   11  C16 UNK     1      29.300  -5.950  38.821  1.00  0.00     0.003 A 
ENDROOT
BRANCH   3  12
HETATM   12  C1  UNK     1      23.226  -8.188  38.485  1.00  0.00     0.091 A 
HETATM   13  N2  UNK     1      22.829  -8.766  37.313  1.00  0.00    -0.229 NA
HETATM   14  C3  UNK     1      21.659  -9.309  37.584  1.00  0.00     0.134 A 
HETATM   15  C10 UNK     1      20.746 -10.050  36.778  1.00  0.00     0.051 A 
HETATM   16  N1  UNK     1      21.297  -9.089  38.910  1.00  0.00    -0.315 N 
HETATM   17  C14 UNK     1      19.595 -10.499  37.315  1.00  0.00     0.005 A 
HETATM   18  C13 UNK     1      19.254 -10.247  38.706  1.00  0.00     0.018 A 
HETATM   19  C9  UNK     1      20.109  -9.550  39.472  1.00  0.00     0.098 A 
HETATM   20  C4  UNK     1      22.311  -8.368  39.486  1.00  0.00     0.130 A 
ENDBRANCH   3  12
TORSDOF 1
ENDMDL
