MODEL 1
REMARK VINA RESULT:      -9.6      0.000      0.000
REMARK  2 active torsions:
REMARK  status: ('A' for Active; 'I' for Inactive)
REMARK    1  A    between atoms: C2_8  and  C5_11 
REMARK    2  A    between atoms: C10_16  and  C9_15 
ROOT
HETATM    1  O1  UNK     1      17.016   8.135  32.910  1.00  0.00    -0.274 OA
HETATM    2  O3  UNK     1      15.930   6.340  32.012  1.00  0.00    -0.259 OA
HETATM    3  C1  UNK     1      19.328   7.921  33.625  1.00  0.00    -0.001 A 
HETATM    4  C2  UNK     1      18.184   5.988  32.696  1.00  0.00     0.096 A 
HETATM    5  C3  UNK     1      18.184   8.694  33.461  1.00  0.00     0.089 A 
HETATM    6  C4  UNK     1      19.295   6.524  33.222  1.00  0.00     0.036 A 
HETATM    7  C6  UNK     1      20.468   8.511  34.174  1.00  0.00     0.014 A 
HETATM    8  C7  UNK     1      16.954   6.803  32.505  1.00  0.00     0.303 A 
HETATM    9  C8  UNK     1      18.148  10.038  33.829  1.00  0.00     0.038 A 
HETATM   10  C11 UNK     1      20.447   9.858  34.549  1.00  0.00     0.001 A 
HETATM   11  C12 UNK     1      19.289  10.620  34.376  1.00  0.00     0.003 A 
ENDROOT
BRANCH   4  12
HETATM   12  C5  UNK     1      18.184   4.610  32.316  1.00  0.00     0.212 A 
HETATM   13  O2  UNK     1      17.780   3.634  33.181  1.00  0.00    -0.190 OA
HETATM   14  N2  UNK     1      17.905   2.420  32.495  1.00  0.00    -0.105 NA
HETATM   15  C9  UNK     1      18.367   2.804  31.302  1.00  0.00     0.189 A 
HETATM   16  N1  UNK     1      18.555   4.147  31.142  1.00  0.00    -0.199 NA
BRANCH  15  17
HETATM   17  C10 UNK     1      18.651   1.874  30.247  1.00  0.00     0.017 A 
HETATM   18  C13 UNK     1      19.690   0.960  30.382  1.00  0.00     0.034 A 
HETATM   19  C15 UNK     1      19.924   0.084  29.336  1.00  0.00     0.117 A 
HETATM   20  N3  UNK     1      19.205   0.061  28.191  1.00  0.00    -0.273 NA
HETATM   21  C16 UNK     1      18.203   0.963  28.095  1.00  0.00     0.117 A 
HETATM   22  C14 UNK     1      17.888   1.881  29.083  1.00  0.00     0.034 A 
ENDBRANCH  15  17
ENDBRANCH   4  12
TORSDOF 2
ENDMDL
MODEL 2
REMARK VINA RESULT:      -9.3      1.263      2.085
REMARK  2 active torsions:
REMARK  status: ('A' for Active; 'I' for Inactive)
REMARK    1  A    between atoms: C2_8  and  C5_11 
REMARK    2  A    between atoms: C10_16  and  C9_15 
ROOT
HETATM    1  O1  UNK     1      19.466   8.050  33.491  1.00  0.00    -0.274 OA
HETATM    2  O3  UNK     1      20.606   6.118  33.073  1.00  0.00    -0.259 OA
HETATM    3  C1  UNK     1      17.044   8.097  33.296  1.00  0.00    -0.001 A 
HETATM    4  C2  UNK     1      18.239   6.034  32.821  1.00  0.00     0.096 A 
HETATM    5  C3  UNK     1      18.243   8.742  33.579  1.00  0.00     0.089 A 
HETATM    6  C4  UNK     1      17.076   6.697  32.905  1.00  0.00     0.036 A 
HETATM    7  C6  UNK     1      15.852   8.816  33.396  1.00  0.00     0.014 A 
HETATM    8  C7  UNK     1      19.530   6.707  33.128  1.00  0.00     0.303 A 
HETATM    9  C8  UNK     1      18.283  10.082  33.958  1.00  0.00     0.038 A 
HETATM   10  C11 UNK     1      15.875  10.162  33.774  1.00  0.00     0.001 A 
HETATM   11  C12 UNK     1      17.089  10.793  34.055  1.00  0.00     0.003 A 
ENDROOT
BRANCH   4  12
HETATM   12  C5  UNK     1      18.234   4.660  32.426  1.00  0.00     0.212 A 
HETATM   13  O2  UNK     1      17.869   3.672  33.294  1.00  0.00    -0.190 OA
HETATM   14  N2  UNK     1      17.977   2.466  32.590  1.00  0.00    -0.105 NA
HETATM   15  C9  UNK     1      18.392   2.867  31.386  1.00  0.00     0.189 A 
HETATM   16  N1  UNK     1      18.566   4.212  31.235  1.00  0.00    -0.199 NA
BRANCH  15  17
HETATM   17  C10 UNK     1      18.644   1.950  30.311  1.00  0.00     0.017 A 
HETATM   18  C13 UNK     1      19.644   0.991  30.431  1.00  0.00     0.034 A 
HETATM   19  C15 UNK     1      19.848   0.129  29.366  1.00  0.00     0.117 A 
HETATM   20  N3  UNK     1      19.136   0.163  28.217  1.00  0.00    -0.273 NA
HETATM   21  C16 UNK     1      18.172   1.108  28.136  1.00  0.00     0.117 A 
HETATM   22  C14 UNK     1      17.890   2.016  29.144  1.00  0.00     0.034 A 
ENDBRANCH  15  17
ENDBRANCH   4  12
TORSDOF 2
ENDMDL
MODEL 3
REMARK VINA RESULT:      -9.1      9.090     10.957
REMARK  2 active torsions:
REMARK  status: ('A' for Active; 'I' for Inactive)
REMARK    1  A    between atoms: C2_8  and  C5_11 
REMARK    2  A    between atoms: C10_16  and  C9_15 
ROOT
HETATM    1  O1  UNK     1      19.487  -1.219  34.633  1.00  0.00    -0.274 OA
HETATM    2  O3  UNK     1      20.663  -3.129  34.211  1.00  0.00    -0.259 OA
HETATM    3  C1  UNK     1      18.467  -0.878  36.811  1.00  0.00    -0.001 A 
HETATM    4  C2  UNK     1      19.692  -2.932  36.377  1.00  0.00     0.096 A 
HETATM    5  C3  UNK     1      18.735  -0.429  35.522  1.00  0.00     0.089 A 
HETATM    6  C4  UNK     1      18.974  -2.178  37.222  1.00  0.00     0.036 A 
HETATM    7  C6  UNK     1      17.718  -0.066  37.665  1.00  0.00     0.014 A 
HETATM    8  C7  UNK     1      19.995  -2.464  34.998  1.00  0.00     0.303 A 
HETATM    9  C8  UNK     1      18.277   0.805  35.065  1.00  0.00     0.038 A 
HETATM   10  C11 UNK     1      17.251   1.175  37.221  1.00  0.00     0.001 A 
HETATM   11  C12 UNK     1      17.530   1.609  35.923  1.00  0.00     0.003 A 
ENDROOT
BRANCH   4  12
HETATM   12  C5  UNK     1      20.170  -4.208  36.811  1.00  0.00     0.212 A 
HETATM   13  O2  UNK     1      21.491  -4.417  37.083  1.00  0.00    -0.190 OA
HETATM   14  N2  UNK     1      21.607  -5.756  37.477  1.00  0.00    -0.105 NA
HETATM   15  C9  UNK     1      20.348  -6.194  37.397  1.00  0.00     0.189 A 
HETATM   16  N1  UNK     1      19.424  -5.275  36.991  1.00  0.00    -0.199 NA
BRANCH  15  17
HETATM   17  C10 UNK     1      19.978  -7.543  37.716  1.00  0.00     0.017 A 
HETATM   18  C13 UNK     1      20.304  -8.083  38.955  1.00  0.00     0.034 A 
HETATM   19  C15 UNK     1      19.924  -9.390  39.214  1.00  0.00     0.117 A 
HETATM   20  N3  UNK     1      19.257 -10.173  38.336  1.00  0.00    -0.273 NA
HETATM   21  C16 UNK     1      18.956  -9.615  37.143  1.00  0.00     0.117 A 
HETATM   22  C14 UNK     1      19.291  -8.319  36.787  1.00  0.00     0.034 A 
ENDBRANCH  15  17
ENDBRANCH   4  12
TORSDOF 2
ENDMDL
MODEL 4
REMARK VINA RESULT:      -9.1      2.895      7.915
REMARK  2 active torsions:
REMARK  status: ('A' for Active; 'I' for Inactive)
REMARK    1  A    between atoms: C2_8  and  C5_11 
REMARK    2  A    between atoms: C10_16  and  C9_15 
ROOT
HETATM    1  O1  UNK     1      18.719   0.485  32.673  1.00  0.00    -0.274 OA
HETATM    2  O3  UNK     1      17.917   2.335  33.743  1.00  0.00    -0.259 OA
HETATM    3  C1  UNK     1      19.525   0.660  30.387  1.00  0.00    -0.001 A 
HETATM    4  C2  UNK     1      18.652   2.638  31.499  1.00  0.00     0.096 A 
HETATM    5  C3  UNK     1      19.280  -0.103  31.524  1.00  0.00     0.089 A 
HETATM    6  C4  UNK     1      19.186   2.075  30.405  1.00  0.00     0.036 A 
HETATM    7  C6  UNK     1      20.084   0.042  29.267  1.00  0.00     0.014 A 
HETATM    8  C7  UNK     1      18.392   1.838  32.726  1.00  0.00     0.303 A 
HETATM    9  C8  UNK     1      19.580  -1.463  31.572  1.00  0.00     0.038 A 
HETATM   10  C11 UNK     1      20.389  -1.322  29.300  1.00  0.00     0.001 A 
HETATM   11  C12 UNK     1      20.137  -2.073  30.451  1.00  0.00     0.003 A 
ENDROOT
BRANCH   4  12
HETATM   12  C5  UNK     1      18.325   4.030  31.479  1.00  0.00     0.212 A 
HETATM   13  O2  UNK     1      18.889   4.880  30.572  1.00  0.00    -0.190 OA
HETATM   14  N2  UNK     1      18.354   6.148  30.832  1.00  0.00    -0.105 NA
HETATM   15  C9  UNK     1      17.533   5.914  31.860  1.00  0.00     0.189 A 
HETATM   16  N1  UNK     1      17.481   4.622  32.296  1.00  0.00    -0.199 NA
BRANCH  15  17
HETATM   17  C10 UNK     1      16.752   6.948  32.476  1.00  0.00     0.017 A 
HETATM   18  C13 UNK     1      16.151   7.929  31.694  1.00  0.00     0.034 A 
HETATM   19  C15 UNK     1      15.408   8.905  32.336  1.00  0.00     0.117 A 
HETATM   20  N3  UNK     1      15.230   8.964  33.676  1.00  0.00    -0.273 NA
HETATM   21  C16 UNK     1      15.828   7.994  34.403  1.00  0.00     0.117 A 
HETATM   22  C14 UNK     1      16.592   6.975  33.858  1.00  0.00     0.034 A 
ENDBRANCH  15  17
ENDBRANCH   4  12
TORSDOF 2
ENDMDL
MODEL 5
REMARK VINA RESULT:      -9.1      2.833      7.924
REMARK  2 active torsions:
REMARK  status: ('A' for Active; 'I' for Inactive)
REMARK    1  A    between atoms: C2_8  and  C5_11 
REMARK    2  A    between atoms: C10_16  and  C9_15 
ROOT
HETATM    1  O1  UNK     1      18.914   0.715  28.616  1.00  0.00    -0.274 OA
HETATM    2  O3  UNK     1      18.032   2.775  28.187  1.00  0.00    -0.259 OA
HETATM    3  C1  UNK     1      19.793   0.207  30.823  1.00  0.00    -0.001 A 
HETATM    4  C2  UNK     1      18.882   2.417  30.382  1.00  0.00     0.096 A 
HETATM    5  C3  UNK     1      19.515  -0.183  29.517  1.00  0.00     0.089 A 
HETATM    6  C4  UNK     1      19.456   1.559  31.238  1.00  0.00     0.036 A 
HETATM    7  C6  UNK     1      20.389  -0.712  31.689  1.00  0.00     0.014 A 
HETATM    8  C7  UNK     1      18.570   2.013  28.984  1.00  0.00     0.303 A 
HETATM    9  C8  UNK     1      19.815  -1.463  29.055  1.00  0.00     0.038 A 
HETATM   10  C11 UNK     1      20.696  -2.000  31.239  1.00  0.00     0.001 A 
HETATM   11  C12 UNK     1      20.409  -2.374  29.925  1.00  0.00     0.003 A 
ENDROOT
BRANCH   4  12
HETATM   12  C5  UNK     1      18.570   3.742  30.822  1.00  0.00     0.212 A 
HETATM   13  O2  UNK     1      19.200   4.832  30.295  1.00  0.00    -0.190 OA
HETATM   14  N2  UNK     1      18.661   5.951  30.942  1.00  0.00    -0.105 NA
HETATM   15  C9  UNK     1      17.773   5.406  31.778  1.00  0.00     0.189 A 
HETATM   16  N1  UNK     1      17.680   4.045  31.741  1.00  0.00    -0.199 NA
BRANCH  15  17
HETATM   17  C10 UNK     1      16.963   6.191  32.664  1.00  0.00     0.017 A 
HETATM   18  C13 UNK     1      17.376   6.416  33.973  1.00  0.00     0.034 A 
HETATM   19  C15 UNK     1      16.560   7.181  34.789  1.00  0.00     0.117 A 
HETATM   20  N3  UNK     1      15.385   7.722  34.392  1.00  0.00    -0.273 NA
HETATM   21  C16 UNK     1      15.017   7.484  33.114  1.00  0.00     0.117 A 
HETATM   22  C14 UNK     1      15.761   6.733  32.220  1.00  0.00     0.034 A 
ENDBRANCH  15  17
ENDBRANCH   4  12
TORSDOF 2
ENDMDL
MODEL 6
REMARK VINA RESULT:      -9.0     14.142     19.170
REMARK  2 active torsions:
REMARK  status: ('A' for Active; 'I' for Inactive)
REMARK    1  A    between atoms: C2_8  and  C5_11 
REMARK    2  A    between atoms: C10_16  and  C9_15 
ROOT
HETATM    1  O1  UNK     1      19.197  -3.361  12.730  1.00  0.00    -0.274 OA
HETATM    2  O3  UNK     1      18.281  -1.374  13.378  1.00  0.00    -0.259 OA
HETATM    3  C1  UNK     1      19.962  -4.947  14.404  1.00  0.00    -0.001 A 
HETATM    4  C2  UNK     1      19.013  -2.826  15.117  1.00  0.00     0.096 A 
HETATM    5  C3  UNK     1      19.772  -4.600  13.071  1.00  0.00     0.089 A 
HETATM    6  C4  UNK     1      19.562  -4.007  15.439  1.00  0.00     0.036 A 
HETATM    7  C6  UNK     1      20.534  -6.186  14.703  1.00  0.00     0.014 A 
HETATM    8  C7  UNK     1      18.795  -2.442  13.697  1.00  0.00     0.303 A 
HETATM    9  C8  UNK     1      20.135  -5.454  12.032  1.00  0.00     0.038 A 
HETATM   10  C11 UNK     1      20.904  -7.053  13.671  1.00  0.00     0.001 A 
HETATM   11  C12 UNK     1      20.705  -6.688  12.338  1.00  0.00     0.003 A 
ENDROOT
BRANCH   4  12
HETATM   12  C5  UNK     1      18.637  -1.922  16.160  1.00  0.00     0.212 A 
HETATM   13  O2  UNK     1      17.396  -1.968  16.726  1.00  0.00    -0.190 OA
HETATM   14  N2  UNK     1      17.367  -0.960  17.698  1.00  0.00    -0.105 NA
HETATM   15  C9  UNK     1      18.589  -0.427  17.603  1.00  0.00     0.189 A 
HETATM   16  N1  UNK     1      19.410  -0.987  16.667  1.00  0.00    -0.199 NA
BRANCH  15  17
HETATM   17  C10 UNK     1      19.021   0.665  18.427  1.00  0.00     0.017 A 
HETATM   18  C13 UNK     1      19.029   1.961  17.921  1.00  0.00     0.034 A 
HETATM   19  C15 UNK     1      19.455   2.980  18.756  1.00  0.00     0.117 A 
HETATM   20  N3  UNK     1      19.865   2.794  20.031  1.00  0.00    -0.273 NA
HETATM   21  C16 UNK     1      19.843   1.523  20.488  1.00  0.00     0.117 A 
HETATM   22  C14 UNK     1      19.436   0.435  19.735  1.00  0.00     0.034 A 
ENDBRANCH  15  17
ENDBRANCH   4  12
TORSDOF 2
ENDMDL
MODEL 7
REMARK VINA RESULT:      -8.8      9.017     10.927
REMARK  2 active torsions:
REMARK  status: ('A' for Active; 'I' for Inactive)
REMARK    1  A    between atoms: C2_8  and  C5_11 
REMARK    2  A    between atoms: C10_16  and  C9_15 
ROOT
HETATM    1  O1  UNK     1      19.560  -0.717  34.828  1.00  0.00    -0.274 OA
HETATM    2  O3  UNK     1      20.756  -2.531  34.130  1.00  0.00    -0.259 OA
HETATM    3  C1  UNK     1      18.370  -0.790  36.944  1.00  0.00    -0.001 A 
HETATM    4  C2  UNK     1      19.616  -2.743  36.209  1.00  0.00     0.096 A 
HETATM    5  C3  UNK     1      18.742  -0.102  35.794  1.00  0.00     0.089 A 
HETATM    6  C4  UNK     1      18.836  -2.155  37.128  1.00  0.00     0.036 A 
HETATM    7  C6  UNK     1      17.559  -0.146  37.881  1.00  0.00     0.014 A 
HETATM    8  C7  UNK     1      20.031  -2.020  34.978  1.00  0.00     0.303 A 
HETATM    9  C8  UNK     1      18.329   1.207  35.556  1.00  0.00     0.038 A 
HETATM   10  C11 UNK     1      17.135   1.167  37.656  1.00  0.00     0.001 A 
HETATM   11  C12 UNK     1      17.520   1.842  36.495  1.00  0.00     0.003 A 
ENDROOT
BRANCH   4  12
HETATM   12  C5  UNK     1      20.051  -4.089  36.419  1.00  0.00     0.212 A 
HETATM   13  O2  UNK     1      20.053  -5.001  35.404  1.00  0.00    -0.190 OA
HETATM   14  N2  UNK     1      20.531  -6.200  35.949  1.00  0.00    -0.105 NA
HETATM   15  C9  UNK     1      20.760  -5.870  37.223  1.00  0.00     0.189 A 
HETATM   16  N1  UNK     1      20.479  -4.578  37.562  1.00  0.00    -0.199 NA
BRANCH  15  17
HETATM   17  C10 UNK     1      21.269  -6.806  38.184  1.00  0.00     0.017 A 
HETATM   18  C13 UNK     1      20.562  -7.970  38.467  1.00  0.00     0.034 A 
HETATM   19  C15 UNK     1      21.095  -8.842  39.402  1.00  0.00     0.117 A 
HETATM   20  N3  UNK     1      22.259  -8.632  40.056  1.00  0.00    -0.273 NA
HETATM   21  C16 UNK     1      22.919  -7.491  39.755  1.00  0.00     0.117 A 
HETATM   22  C14 UNK     1      22.471  -6.556  38.837  1.00  0.00     0.034 A 
ENDBRANCH  15  17
ENDBRANCH   4  12
TORSDOF 2
ENDMDL
MODEL 8
REMARK VINA RESULT:      -8.7      1.994      2.973
REMARK  2 active torsions:
REMARK  status: ('A' for Active; 'I' for Inactive)
REMARK    1  A    between atoms: C2_8  and  C5_11 
REMARK    2  A    between atoms: C10_16  and  C9_15 
ROOT
HETATM    1  O1  UNK     1      19.485   7.233  32.579  1.00  0.00    -0.274 OA
HETATM    2  O3  UNK     1      20.810   5.787  31.412  1.00  0.00    -0.259 OA
HETATM    3  C1  UNK     1      17.136   6.717  32.924  1.00  0.00    -0.001 A 
HETATM    4  C2  UNK     1      18.521   5.175  31.656  1.00  0.00     0.096 A 
HETATM    5  C3  UNK     1      18.224   7.562  33.112  1.00  0.00     0.089 A 
HETATM    6  C4  UNK     1      17.321   5.492  32.164  1.00  0.00     0.036 A 
HETATM    7  C6  UNK     1      15.901   7.077  33.469  1.00  0.00     0.014 A 
HETATM    8  C7  UNK     1      19.698   6.063  31.855  1.00  0.00     0.303 A 
HETATM    9  C8  UNK     1      18.114   8.752  33.829  1.00  0.00     0.038 A 
HETATM   10  C11 UNK     1      15.775   8.268  34.190  1.00  0.00     0.001 A 
HETATM   11  C12 UNK     1      16.879   9.104  34.369  1.00  0.00     0.003 A 
ENDROOT
BRANCH   4  12
HETATM   12  C5  UNK     1      18.667   3.965  30.907  1.00  0.00     0.212 A 
HETATM   13  O2  UNK     1      18.373   3.913  29.576  1.00  0.00    -0.190 OA
HETATM   14  N2  UNK     1      18.625   2.598  29.165  1.00  0.00    -0.105 NA
HETATM   15  C9  UNK     1      19.039   2.015  30.293  1.00  0.00     0.189 A 
HETATM   16  N1  UNK     1      19.083   2.817  31.396  1.00  0.00    -0.199 NA
BRANCH  15  17
HETATM   17  C10 UNK     1      19.418   0.632  30.353  1.00  0.00     0.017 A 
HETATM   18  C13 UNK     1      19.911  -0.008  29.221  1.00  0.00     0.034 A 
HETATM   19  C15 UNK     1      20.262  -1.343  29.331  1.00  0.00     0.117 A 
HETATM   20  N3  UNK     1      20.155  -2.063  30.471  1.00  0.00    -0.273 NA
HETATM   21  C16 UNK     1      19.672  -1.409  31.550  1.00  0.00     0.117 A 
HETATM   22  C14 UNK     1      19.293  -0.077  31.544  1.00  0.00     0.034 A 
ENDBRANCH  15  17
ENDBRANCH   4  12
TORSDOF 2
ENDMDL
MODEL 9
REMARK VINA RESULT:      -8.7      2.339      7.864
REMARK  2 active torsions:
REMARK  status: ('A' for Active; 'I' for Inactive)
REMARK    1  A    between atoms: C2_8  and  C5_11 
REMARK    2  A    between atoms: C10_16  and  C9_15 
ROOT
HETATM    1  O1  UNK     1      19.129   1.350  28.668  1.00  0.00    -0.274 OA
HETATM    2  O3  UNK     1      18.284   3.465  28.533  1.00  0.00    -0.259 OA
HETATM    3  C1  UNK     1      19.589   0.363  30.840  1.00  0.00    -0.001 A 
HETATM    4  C2  UNK     1      18.714   2.627  30.720  1.00  0.00     0.096 A 
HETATM    5  C3  UNK     1      19.575   0.269  29.452  1.00  0.00     0.089 A 
HETATM    6  C4  UNK     1      19.140   1.597  31.465  1.00  0.00     0.036 A 
HETATM    7  C6  UNK     1      20.037  -0.730  31.585  1.00  0.00     0.014 A 
HETATM    8  C7  UNK     1      18.684   2.541  29.235  1.00  0.00     0.303 A 
HETATM    9  C8  UNK     1      19.993  -0.883  28.791  1.00  0.00     0.038 A 
HETATM   10  C11 UNK     1      20.461  -1.893  30.935  1.00  0.00     0.001 A 
HETATM   11  C12 UNK     1      20.439  -1.969  29.540  1.00  0.00     0.003 A 
ENDROOT
BRANCH   4  12
HETATM   12  C5  UNK     1      18.285   3.828  31.368  1.00  0.00     0.212 A 
HETATM   13  O2  UNK     1      16.961   4.100  31.556  1.00  0.00    -0.190 OA
HETATM   14  N2  UNK     1      16.900   5.337  32.210  1.00  0.00    -0.105 NA
HETATM   15  C9  UNK     1      18.189   5.663  32.339  1.00  0.00     0.189 A 
HETATM   16  N1  UNK     1      19.083   4.764  31.834  1.00  0.00    -0.199 NA
BRANCH  15  17
HETATM   17  C10 UNK     1      18.619   6.880  32.966  1.00  0.00     0.017 A 
HETATM   18  C13 UNK     1      19.926   7.006  33.424  1.00  0.00     0.034 A 
HETATM   19  C15 UNK     1      20.292   8.201  34.022  1.00  0.00     0.117 A 
HETATM   20  N3  UNK     1      19.458   9.252  34.187  1.00  0.00    -0.273 NA
HETATM   21  C16 UNK     1      18.196   9.094  33.729  1.00  0.00     0.117 A 
HETATM   22  C14 UNK     1      17.731   7.941  33.118  1.00  0.00     0.034 A 
ENDBRANCH  15  17
ENDBRANCH   4  12
TORSDOF 2
ENDMDL
MODEL 10
REMARK VINA RESULT:      -8.7     14.520     19.302
REMARK  2 active torsions:
REMARK  status: ('A' for Active; 'I' for Inactive)
REMARK    1  A    between atoms: C2_8  and  C5_11 
REMARK    2  A    between atoms: C10_16  and  C9_15 
ROOT
HETATM    1  O1  UNK     1      18.616  -4.220  13.162  1.00  0.00    -0.274 OA
HETATM    2  O3  UNK     1      17.625  -4.186  15.217  1.00  0.00    -0.259 OA
HETATM    3  C1  UNK     1      19.936  -2.320  12.420  1.00  0.00    -0.001 A 
HETATM    4  C2  UNK     1      18.869  -2.251  14.602  1.00  0.00     0.096 A 
HETATM    5  C3  UNK     1      19.418  -3.591  12.191  1.00  0.00     0.089 A 
HETATM    6  C4  UNK     1      19.632  -1.653  13.675  1.00  0.00     0.036 A 
HETATM    7  C6  UNK     1      20.729  -1.729  11.434  1.00  0.00     0.014 A 
HETATM    8  C7  UNK     1      18.313  -3.613  14.378  1.00  0.00     0.303 A 
HETATM    9  C8  UNK     1      19.670  -4.284  11.009  1.00  0.00     0.038 A 
HETATM   10  C11 UNK     1      20.990  -2.412  10.242  1.00  0.00     0.001 A 
HETATM   11  C12 UNK     1      20.461  -3.687  10.031  1.00  0.00     0.003 A 
ENDROOT
BRANCH   4  12
HETATM   12  C5  UNK     1      18.583  -1.563  15.823  1.00  0.00     0.212 A 
HETATM   13  O2  UNK     1      17.510  -1.902  16.595  1.00  0.00    -0.190 OA
HETATM   14  N2  UNK     1      17.529  -1.041  17.700  1.00  0.00    -0.105 NA
HETATM   15  C9  UNK     1      18.607  -0.288  17.464  1.00  0.00     0.189 A 
HETATM   16  N1  UNK     1      19.291  -0.572  16.318  1.00  0.00    -0.199 NA
BRANCH  15  17
HETATM   17  C10 UNK     1      19.028   0.757  18.352  1.00  0.00     0.017 A 
HETATM   18  C13 UNK     1      19.423   0.454  19.651  1.00  0.00     0.034 A 
HETATM   19  C15 UNK     1      19.821   1.498  20.469  1.00  0.00     0.117 A 
HETATM   20  N3  UNK     1      19.849   2.794  20.084  1.00  0.00    -0.273 NA
HETATM   21  C16 UNK     1      19.460   3.051  18.816  1.00  0.00     0.117 A 
HETATM   22  C14 UNK     1      19.045   2.080  17.920  1.00  0.00     0.034 A 
ENDBRANCH  15  17
ENDBRANCH   4  12
TORSDOF 2
ENDMDL
