MODEL 1
REMARK VINA RESULT:      -8.9      0.000      0.000
REMARK  5 active torsions:
REMARK  status: ('A' for Active; 'I' for Inactive)
REMARK    1  A    between atoms: C10_17  and  O2_3 
REMARK    2  A    between atoms: C7_14  and  O2_3 
REMARK    3  A    between atoms: C13_20  and  O3_4 
REMARK    4  A    between atoms: C6_13  and  O3_4 
REMARK    5  A    between atoms: C13_20  and  C14_21 
ROOT
HETATM    1  O1  UNK     1      10.526   4.405   9.945  1.00  0.00    -0.319 OA
HETATM    2  O4  UNK     1       8.590   6.931   7.387  1.00  0.00    -0.284 OA
HETATM    3  C1  UNK     1      10.640   6.015   8.125  1.00  0.00     0.051 A 
HETATM    4  C2  UNK     1      11.242   5.134   9.027  1.00  0.00     0.092 A 
HETATM    5  C3  UNK     1       9.174   6.176   8.151  1.00  0.00     0.220 A 
HETATM    6  C4  UNK     1      11.418   6.730   7.213  1.00  0.00     0.021 A 
HETATM    7  C5  UNK     1      12.626   4.967   9.020  1.00  0.00     0.075 A 
HETATM    8  C6  UNK     1      13.407   5.680   8.109  1.00  0.00     0.082 A 
HETATM    9  C7  UNK     1       8.452   5.367   9.158  1.00  0.00     0.149 A 
HETATM   10  C8  UNK     1      12.804   6.560   7.208  1.00  0.00     0.038 A 
HETATM   11  C9  UNK     1       9.162   4.564   9.957  1.00  0.00     0.184 A 
ENDROOT
BRANCH   8  12
HETATM   12  O3  UNK     1      14.759   5.519   8.099  1.00  0.00    -0.273 OA
BRANCH  12  13
HETATM   13  C13 UNK     1      15.314   5.238   9.349  1.00  0.00     0.322 C 
HETATM   14  O6  UNK     1      15.476   4.123   9.821  1.00  0.00    -0.257 OA
BRANCH  13  15
HETATM   15  C14 UNK     1      15.706   6.485  10.054  1.00  0.00     0.150 A 
HETATM   16  O5  UNK     1      14.888   6.872  11.030  1.00  0.00    -0.317 OA
HETATM   17  C20 UNK     1      15.454   8.011  11.509  1.00  0.00     0.143 A 
HETATM   18  C19 UNK     1      16.608   8.303  10.820  1.00  0.00     0.027 A 
HETATM   19  C18 UNK     1      16.761   7.278   9.857  1.00  0.00     0.045 A 
ENDBRANCH  13  15
ENDBRANCH  12  13
ENDBRANCH   8  12
BRANCH   9  20
HETATM   20  O2  UNK     1       7.083   5.459   9.247  1.00  0.00    -0.303 OA
BRANCH  20  21
HETATM   21  C10 UNK     1       6.566   5.920  10.426  1.00  0.00     0.093 A 
HETATM   22  C11 UNK     1       5.868   5.077  11.288  1.00  0.00     0.044 A 
HETATM   23 Br1  UNK     1       5.600   3.247  10.874  1.00  0.00    -0.048 Br
HETATM   24  C15 UNK     1       5.353   5.579  12.483  1.00  0.00     0.022 A 
HETATM   25  C17 UNK     1       5.536   6.922  12.812  1.00  0.00     0.002 A 
HETATM   26  C16 UNK     1       6.235   7.763  11.947  1.00  0.00     0.003 A 
HETATM   27  C12 UNK     1       6.750   7.261  10.751  1.00  0.00     0.039 A 
ENDBRANCH  20  21
ENDBRANCH   9  20
TORSDOF 5
ENDMDL
MODEL 2
REMARK VINA RESULT:      -8.8     23.034     25.462
REMARK  5 active torsions:
REMARK  status: ('A' for Active; 'I' for Inactive)
REMARK    1  A    between atoms: C10_17  and  O2_3 
REMARK    2  A    between atoms: C7_14  and  O2_3 
REMARK    3  A    between atoms: C13_20  and  O3_4 
REMARK    4  A    between atoms: C6_13  and  O3_4 
REMARK    5  A    between atoms: C13_20  and  C14_21 
ROOT
HETATM    1  O1  UNK     1      18.018   2.915  33.442  1.00  0.00    -0.319 OA
HETATM    2  O4  UNK     1      18.991   3.914  29.604  1.00  0.00    -0.284 OA
HETATM    3  C1  UNK     1      18.784   2.220  31.240  1.00  0.00     0.051 A 
HETATM    4  C2  UNK     1      18.436   1.944  32.565  1.00  0.00     0.092 A 
HETATM    5  C3  UNK     1      18.701   3.609  30.752  1.00  0.00     0.220 A 
HETATM    6  C4  UNK     1      19.203   1.192  30.392  1.00  0.00     0.021 A 
HETATM    7  C5  UNK     1      18.508   0.637  33.046  1.00  0.00     0.075 A 
HETATM    8  C6  UNK     1      18.926  -0.392  32.201  1.00  0.00     0.082 A 
HETATM    9  C7  UNK     1      18.243   4.614  31.737  1.00  0.00     0.149 A 
HETATM   10  C8  UNK     1      19.272  -0.115  30.878  1.00  0.00     0.038 A 
HETATM   11  C9  UNK     1      17.944   4.204  32.973  1.00  0.00     0.184 A 
ENDROOT
BRANCH   8  12
HETATM   12  O3  UNK     1      18.996  -1.669  32.669  1.00  0.00    -0.273 OA
BRANCH  12  13
HETATM   13  C13 UNK     1      20.199  -1.984  33.303  1.00  0.00     0.322 C 
HETATM   14  O6  UNK     1      21.305  -1.956  32.784  1.00  0.00    -0.257 OA
BRANCH  13  15
HETATM   15  C14 UNK     1      19.976  -2.360  34.722  1.00  0.00     0.150 A 
HETATM   16  O5  UNK     1      20.403  -3.572  35.068  1.00  0.00    -0.317 OA
HETATM   17  C20 UNK     1      20.091  -3.674  36.387  1.00  0.00     0.143 A 
HETATM   18  C19 UNK     1      19.477  -2.524  36.827  1.00  0.00     0.027 A 
HETATM   19  C18 UNK     1      19.410  -1.661  35.708  1.00  0.00     0.045 A 
ENDBRANCH  13  15
ENDBRANCH  12  13
ENDBRANCH   8  12
BRANCH   9  20
HETATM   20  O2  UNK     1      18.138   5.933  31.362  1.00  0.00    -0.303 OA
BRANCH  20  21
HETATM   21  C10 UNK     1      18.480   6.874  32.293  1.00  0.00     0.093 A 
HETATM   22  C11 UNK     1      17.591   7.880  32.665  1.00  0.00     0.044 A 
HETATM   23 Br1  UNK     1      15.860   7.996  31.903  1.00  0.00    -0.048 Br
HETATM   24  C15 UNK     1      17.972   8.825  33.618  1.00  0.00     0.022 A 
HETATM   25  C17 UNK     1      19.240   8.763  34.195  1.00  0.00     0.002 A 
HETATM   26  C16 UNK     1      20.128   7.754  33.820  1.00  0.00     0.003 A 
HETATM   27  C12 UNK     1      19.748   6.809  32.867  1.00  0.00     0.039 A 
ENDBRANCH  20  21
ENDBRANCH   9  20
TORSDOF 5
ENDMDL
MODEL 3
REMARK VINA RESULT:      -8.6      1.451      2.009
REMARK  5 active torsions:
REMARK  status: ('A' for Active; 'I' for Inactive)
REMARK    1  A    between atoms: C10_17  and  O2_3 
REMARK    2  A    between atoms: C7_14  and  O2_3 
REMARK    3  A    between atoms: C13_20  and  O3_4 
REMARK    4  A    between atoms: C6_13  and  O3_4 
REMARK    5  A    between atoms: C13_20  and  C14_21 
ROOT
HETATM    1  O1  UNK     1      10.185   4.532  10.104  1.00  0.00    -0.319 OA
HETATM    2  O4  UNK     1       7.809   6.657   7.552  1.00  0.00    -0.284 OA
HETATM    3  C1  UNK     1       9.992   5.985   8.163  1.00  0.00     0.051 A 
HETATM    4  C2  UNK     1      10.748   5.239   9.069  1.00  0.00     0.092 A 
HETATM    5  C3  UNK     1       8.525   6.022   8.314  1.00  0.00     0.220 A 
HETATM    6  C4  UNK     1      10.618   6.684   7.129  1.00  0.00     0.021 A 
HETATM    7  C5  UNK     1      12.137   5.190   8.944  1.00  0.00     0.075 A 
HETATM    8  C6  UNK     1      12.765   5.887   7.912  1.00  0.00     0.082 A 
HETATM    9  C7  UNK     1       7.971   5.243   9.444  1.00  0.00     0.149 A 
HETATM   10  C8  UNK     1      12.008   6.633   7.007  1.00  0.00     0.038 A 
HETATM   11  C9  UNK     1       8.819   4.575  10.232  1.00  0.00     0.184 A 
ENDROOT
BRANCH   8  12
HETATM   12  O3  UNK     1      14.120   5.841   7.788  1.00  0.00    -0.273 OA
BRANCH  12  13
HETATM   13  C13 UNK     1      14.806   5.725   8.998  1.00  0.00     0.322 C 
HETATM   14  O6  UNK     1      15.275   4.692   9.453  1.00  0.00    -0.257 OA
BRANCH  13  15
HETATM   15  C14 UNK     1      14.912   7.037   9.684  1.00  0.00     0.150 A 
HETATM   16  O5  UNK     1      14.907   6.991  11.014  1.00  0.00    -0.317 OA
HETATM   17  C20 UNK     1      15.013   8.291  11.395  1.00  0.00     0.143 A 
HETATM   18  C19 UNK     1      15.081   9.112  10.294  1.00  0.00     0.027 A 
HETATM   19  C18 UNK     1      15.013   8.262   9.165  1.00  0.00     0.045 A 
ENDBRANCH  13  15
ENDBRANCH  12  13
ENDBRANCH   8  12
BRANCH   9  20
HETATM   20  O2  UNK     1       6.612   5.225   9.654  1.00  0.00    -0.303 OA
BRANCH  20  21
HETATM   21  C10 UNK     1       6.135   4.327  10.567  1.00  0.00     0.093 A 
HETATM   22  C11 UNK     1       5.780   4.723  11.854  1.00  0.00     0.044 A 
HETATM   23 Br1  UNK     1       5.937   6.529  12.408  1.00  0.00    -0.048 Br
HETATM   24  C15 UNK     1       5.297   3.781  12.762  1.00  0.00     0.022 A 
HETATM   25  C17 UNK     1       5.172   2.445  12.381  1.00  0.00     0.002 A 
HETATM   26  C16 UNK     1       5.528   2.051  11.091  1.00  0.00     0.003 A 
HETATM   27  C12 UNK     1       6.012   2.993  10.183  1.00  0.00     0.039 A 
ENDBRANCH  20  21
ENDBRANCH   9  20
TORSDOF 5
ENDMDL
MODEL 4
REMARK VINA RESULT:      -8.5     21.820     24.567
REMARK  5 active torsions:
REMARK  status: ('A' for Active; 'I' for Inactive)
REMARK    1  A    between atoms: C10_17  and  O2_3 
REMARK    2  A    between atoms: C7_14  and  O2_3 
REMARK    3  A    between atoms: C13_20  and  O3_4 
REMARK    4  A    between atoms: C6_13  and  O3_4 
REMARK    5  A    between atoms: C13_20  and  C14_21 
ROOT
HETATM    1  O1  UNK     1      16.315   8.171  32.356  1.00  0.00    -0.319 OA
HETATM    2  O4  UNK     1      19.448   9.277  34.729  1.00  0.00    -0.284 OA
HETATM    3  C1  UNK     1      18.601   7.792  33.096  1.00  0.00     0.051 A 
HETATM    4  C2  UNK     1      17.493   7.466  32.311  1.00  0.00     0.092 A 
HETATM    5  C3  UNK     1      18.513   8.942  34.016  1.00  0.00     0.220 A 
HETATM    6  C4  UNK     1      19.774   7.040  33.008  1.00  0.00     0.021 A 
HETATM    7  C5  UNK     1      17.555   6.383  31.434  1.00  0.00     0.075 A 
HETATM    8  C6  UNK     1      18.726   5.630  31.343  1.00  0.00     0.082 A 
HETATM    9  C7  UNK     1      17.222   9.667  34.025  1.00  0.00     0.149 A 
HETATM   10  C8  UNK     1      19.832   5.958  32.129  1.00  0.00     0.038 A 
HETATM   11  C9  UNK     1      16.248   9.239  33.217  1.00  0.00     0.184 A 
ENDROOT
BRANCH   8  12
HETATM   12  O3  UNK     1      18.789   4.572  30.488  1.00  0.00    -0.273 OA
BRANCH  12  13
HETATM   13  C13 UNK     1      18.377   3.359  31.041  1.00  0.00     0.322 C 
HETATM   14  O6  UNK     1      17.884   3.214  32.150  1.00  0.00    -0.257 OA
BRANCH  13  15
HETATM   15  C14 UNK     1      18.604   2.234  30.098  1.00  0.00     0.150 A 
HETATM   16  O5  UNK     1      19.502   1.333  30.487  1.00  0.00    -0.317 OA
HETATM   17  C20 UNK     1      19.526   0.426  29.475  1.00  0.00     0.143 A 
HETATM   18  C19 UNK     1      18.643   0.785  28.484  1.00  0.00     0.027 A 
HETATM   19  C18 UNK     1      18.038   1.990  28.915  1.00  0.00     0.045 A 
ENDBRANCH  13  15
ENDBRANCH  12  13
ENDBRANCH   8  12
BRANCH   9  20
HETATM   20  O2  UNK     1      17.058  10.750  34.855  1.00  0.00    -0.303 OA
BRANCH  20  21
HETATM   21  C10 UNK     1      17.113  11.989  34.280  1.00  0.00     0.093 A 
HETATM   22  C11 UNK     1      15.969  12.769  34.131  1.00  0.00     0.044 A 
HETATM   23 Br1  UNK     1      14.276  12.156  34.722  1.00  0.00    -0.048 Br
HETATM   24  C15 UNK     1      16.059  14.029  33.540  1.00  0.00     0.022 A 
HETATM   25  C17 UNK     1      17.293  14.505  33.096  1.00  0.00     0.002 A 
HETATM   26  C16 UNK     1      18.438  13.721  33.246  1.00  0.00     0.003 A 
HETATM   27  C12 UNK     1      18.347  12.461  33.838  1.00  0.00     0.039 A 
ENDBRANCH  20  21
ENDBRANCH   9  20
TORSDOF 5
ENDMDL
MODEL 5
REMARK VINA RESULT:      -8.5     22.718     24.821
REMARK  5 active torsions:
REMARK  status: ('A' for Active; 'I' for Inactive)
REMARK    1  A    between atoms: C10_17  and  O2_3 
REMARK    2  A    between atoms: C7_14  and  O2_3 
REMARK    3  A    between atoms: C13_20  and  O3_4 
REMARK    4  A    between atoms: C6_13  and  O3_4 
REMARK    5  A    between atoms: C13_20  and  C14_21 
ROOT
HETATM    1  O1  UNK     1      18.018   3.094  33.696  1.00  0.00    -0.319 OA
HETATM    2  O4  UNK     1      18.983   3.087  29.728  1.00  0.00    -0.284 OA
HETATM    3  C1  UNK     1      18.614   4.344  31.696  1.00  0.00     0.051 A 
HETATM    4  C2  UNK     1      18.279   4.278  33.051  1.00  0.00     0.092 A 
HETATM    5  C3  UNK     1      18.694   3.094  30.917  1.00  0.00     0.220 A 
HETATM    6  C4  UNK     1      18.870   5.577  31.093  1.00  0.00     0.021 A 
HETATM    7  C5  UNK     1      18.198   5.447  33.807  1.00  0.00     0.075 A 
HETATM    8  C6  UNK     1      18.454   6.681  33.206  1.00  0.00     0.082 A 
HETATM    9  C7  UNK     1      18.405   1.848  31.660  1.00  0.00     0.149 A 
HETATM   10  C8  UNK     1      18.789   6.745  31.853  1.00  0.00     0.038 A 
HETATM   11  C9  UNK     1      18.097   1.938  32.958  1.00  0.00     0.184 A 
ENDROOT
BRANCH   8  12
HETATM   12  O3  UNK     1      18.376   7.824  33.942  1.00  0.00    -0.273 OA
BRANCH  12  13
HETATM   13  C13 UNK     1      17.509   8.786  33.420  1.00  0.00     0.322 C 
HETATM   14  O6  UNK     1      17.806   9.942  33.156  1.00  0.00    -0.257 OA
BRANCH  13  15
HETATM   15  C14 UNK     1      16.150   8.227  33.207  1.00  0.00     0.150 A 
HETATM   16  O5  UNK     1      15.519   7.821  34.306  1.00  0.00    -0.317 OA
HETATM   17  C20 UNK     1      14.322   7.362  33.855  1.00  0.00     0.143 A 
HETATM   18  C19 UNK     1      14.240   7.494  32.488  1.00  0.00     0.027 A 
HETATM   19  C18 UNK     1      15.463   8.071  32.074  1.00  0.00     0.045 A 
ENDBRANCH  13  15
ENDBRANCH  12  13
ENDBRANCH   8  12
BRANCH   9  20
HETATM   20  O2  UNK     1      18.458   0.640  31.006  1.00  0.00    -0.303 OA
BRANCH  20  21
HETATM   21  C10 UNK     1      19.159  -0.366  31.612  1.00  0.00     0.093 A 
HETATM   22  C11 UNK     1      20.191  -1.028  30.951  1.00  0.00     0.044 A 
HETATM   23 Br1  UNK     1      20.680  -0.569  29.178  1.00  0.00    -0.048 Br
HETATM   24  C15 UNK     1      20.887  -2.049  31.598  1.00  0.00     0.022 A 
HETATM   25  C17 UNK     1      20.547  -2.407  32.902  1.00  0.00     0.002 A 
HETATM   26  C16 UNK     1      19.513  -1.742  33.561  1.00  0.00     0.003 A 
HETATM   27  C12 UNK     1      18.817  -0.720  32.915  1.00  0.00     0.039 A 
ENDBRANCH  20  21
ENDBRANCH   9  20
TORSDOF 5
ENDMDL
MODEL 6
REMARK VINA RESULT:      -8.5      3.553      5.975
REMARK  5 active torsions:
REMARK  status: ('A' for Active; 'I' for Inactive)
REMARK    1  A    between atoms: C10_17  and  O2_3 
REMARK    2  A    between atoms: C7_14  and  O2_3 
REMARK    3  A    between atoms: C13_20  and  O3_4 
REMARK    4  A    between atoms: C6_13  and  O3_4 
REMARK    5  A    between atoms: C13_20  and  C14_21 
ROOT
HETATM    1  O1  UNK     1      13.592   9.475   9.083  1.00  0.00    -0.319 OA
HETATM    2  O4  UNK     1      13.621   5.549  10.207  1.00  0.00    -0.284 OA
HETATM    3  C1  UNK     1      14.848   7.539   9.852  1.00  0.00     0.051 A 
HETATM    4  C2  UNK     1      14.770   8.876   9.458  1.00  0.00     0.092 A 
HETATM    5  C3  UNK     1      13.617   6.725   9.871  1.00  0.00     0.220 A 
HETATM    6  C4  UNK     1      16.074   6.983  10.224  1.00  0.00     0.021 A 
HETATM    7  C5  UNK     1      15.921   9.664   9.433  1.00  0.00     0.075 A 
HETATM    8  C6  UNK     1      17.148   9.111   9.804  1.00  0.00     0.082 A 
HETATM    9  C7  UNK     1      12.377   7.419   9.459  1.00  0.00     0.149 A 
HETATM   10  C8  UNK     1      17.223   7.774  10.198  1.00  0.00     0.038 A 
HETATM   11  C9  UNK     1      12.454   8.705   9.106  1.00  0.00     0.184 A 
ENDROOT
BRANCH   8  12
HETATM   12  O3  UNK     1      18.273   9.877   9.781  1.00  0.00    -0.273 OA
BRANCH  12  13
HETATM   13  C13 UNK     1      18.033  11.252   9.744  1.00  0.00     0.322 C 
HETATM   14  O6  UNK     1      17.700  11.941  10.696  1.00  0.00    -0.257 OA
BRANCH  13  15
HETATM   15  C14 UNK     1      18.244  11.798   8.379  1.00  0.00     0.150 A 
HETATM   16  O5  UNK     1      17.397  12.754   8.007  1.00  0.00    -0.317 OA
HETATM   17  C20 UNK     1      17.792  13.081   6.748  1.00  0.00     0.143 A 
HETATM   18  C19 UNK     1      18.874  12.320   6.370  1.00  0.00     0.027 A 
HETATM   19  C18 UNK     1      19.161  11.473   7.466  1.00  0.00     0.045 A 
ENDBRANCH  13  15
ENDBRANCH  12  13
ENDBRANCH   8  12
BRANCH   9  20
HETATM   20  O2  UNK     1      11.186   6.731   9.449  1.00  0.00    -0.303 OA
BRANCH  20  21
HETATM   21  C10 UNK     1      10.567   6.575   8.240  1.00  0.00     0.093 A 
HETATM   22  C11 UNK     1       9.205   6.821   8.087  1.00  0.00     0.044 A 
HETATM   23 Br1  UNK     1       8.137   7.388   9.546  1.00  0.00    -0.048 Br
HETATM   24  C15 UNK     1       8.605   6.652   6.840  1.00  0.00     0.022 A 
HETATM   25  C17 UNK     1       9.368   6.236   5.749  1.00  0.00     0.002 A 
HETATM   26  C16 UNK     1      10.732   5.990   5.905  1.00  0.00     0.003 A 
HETATM   27  C12 UNK     1      11.333   6.158   7.153  1.00  0.00     0.039 A 
ENDBRANCH  20  21
ENDBRANCH   9  20
TORSDOF 5
ENDMDL
MODEL 7
REMARK VINA RESULT:      -8.5      4.477      9.529
REMARK  5 active torsions:
REMARK  status: ('A' for Active; 'I' for Inactive)
REMARK    1  A    between atoms: C10_17  and  O2_3 
REMARK    2  A    between atoms: C7_14  and  O2_3 
REMARK    3  A    between atoms: C13_20  and  O3_4 
REMARK    4  A    between atoms: C6_13  and  O3_4 
REMARK    5  A    between atoms: C13_20  and  C14_21 
ROOT
HETATM    1  O1  UNK     1      14.764   9.677   8.973  1.00  0.00    -0.319 OA
HETATM    2  O4  UNK     1      18.022   7.617  10.320  1.00  0.00    -0.284 OA
HETATM    3  C1  UNK     1      15.712   7.603   9.819  1.00  0.00     0.051 A 
HETATM    4  C2  UNK     1      14.637   8.362   9.350  1.00  0.00     0.092 A 
HETATM    5  C3  UNK     1      17.043   8.230   9.917  1.00  0.00     0.220 A 
HETATM    6  C4  UNK     1      15.525   6.269  10.188  1.00  0.00     0.021 A 
HETATM    7  C5  UNK     1      13.370   7.789   9.249  1.00  0.00     0.075 A 
HETATM    8  C6  UNK     1      13.180   6.456   9.617  1.00  0.00     0.082 A 
HETATM    9  C7  UNK     1      17.124   9.647   9.497  1.00  0.00     0.149 A 
HETATM   10  C8  UNK     1      14.255   5.699  10.086  1.00  0.00     0.038 A 
HETATM   11  C9  UNK     1      16.010  10.247   9.068  1.00  0.00     0.184 A 
ENDROOT
BRANCH   8  12
HETATM   12  O3  UNK     1      11.944   5.894   9.520  1.00  0.00    -0.273 OA
BRANCH  12  13
HETATM   13  C13 UNK     1      11.777   5.058   8.414  1.00  0.00     0.322 C 
HETATM   14  O6  UNK     1      12.277   3.951   8.279  1.00  0.00    -0.257 OA
BRANCH  13  15
HETATM   15  C14 UNK     1      10.891   5.680   7.398  1.00  0.00     0.150 A 
HETATM   16  O5  UNK     1       9.596   5.698   7.701  1.00  0.00    -0.317 OA
HETATM   17  C20 UNK     1       9.011   6.308   6.637  1.00  0.00     0.143 A 
HETATM   18  C19 UNK     1       9.957   6.653   5.699  1.00  0.00     0.027 A 
HETATM   19  C18 UNK     1      11.201   6.229   6.222  1.00  0.00     0.045 A 
ENDBRANCH  13  15
ENDBRANCH  12  13
ENDBRANCH   8  12
BRANCH   9  20
HETATM   20  O2  UNK     1      18.330  10.305   9.558  1.00  0.00    -0.303 OA
BRANCH  20  21
HETATM   21  C10 UNK     1      18.446  11.459   8.834  1.00  0.00     0.093 A 
HETATM   22  C11 UNK     1      18.272  12.706   9.428  1.00  0.00     0.044 A 
HETATM   23 Br1  UNK     1      17.868  12.871  11.272  1.00  0.00    -0.048 Br
HETATM   24  C15 UNK     1      18.398  13.865   8.661  1.00  0.00     0.022 A 
HETATM   25  C17 UNK     1      18.694  13.772   7.301  1.00  0.00     0.002 A 
HETATM   26  C16 UNK     1      18.868  12.521   6.709  1.00  0.00     0.003 A 
HETATM   27  C12 UNK     1      18.742  11.363   7.476  1.00  0.00     0.039 A 
ENDBRANCH  20  21
ENDBRANCH   9  20
TORSDOF 5
ENDMDL
MODEL 8
REMARK VINA RESULT:      -8.4      1.877      2.285
REMARK  5 active torsions:
REMARK  status: ('A' for Active; 'I' for Inactive)
REMARK    1  A    between atoms: C10_17  and  O2_3 
REMARK    2  A    between atoms: C7_14  and  O2_3 
REMARK    3  A    between atoms: C13_20  and  O3_4 
REMARK    4  A    between atoms: C6_13  and  O3_4 
REMARK    5  A    between atoms: C13_20  and  C14_21 
ROOT
HETATM    1  O1  UNK     1       9.656   8.383   9.734  1.00  0.00    -0.319 OA
HETATM    2  O4  UNK     1       7.736   5.448   7.642  1.00  0.00    -0.284 OA
HETATM    3  C1  UNK     1       9.765   6.561   8.126  1.00  0.00     0.051 A 
HETATM    4  C2  UNK     1      10.362   7.581   8.871  1.00  0.00     0.092 A 
HETATM    5  C3  UNK     1       8.315   6.326   8.267  1.00  0.00     0.220 A 
HETATM    6  C4  UNK     1      10.533   5.775   7.264  1.00  0.00     0.021 A 
HETATM    7  C5  UNK     1      11.731   7.819   8.754  1.00  0.00     0.075 A 
HETATM    8  C6  UNK     1      12.501   7.036   7.892  1.00  0.00     0.082 A 
HETATM    9  C7  UNK     1       7.604   7.217   9.210  1.00  0.00     0.149 A 
HETATM   10  C8  UNK     1      11.902   6.017   7.150  1.00  0.00     0.038 A 
HETATM   11  C9  UNK     1       8.308   8.152   9.855  1.00  0.00     0.184 A 
ENDROOT
BRANCH   8  12
HETATM   12  O3  UNK     1      13.838   7.267   7.776  1.00  0.00    -0.273 OA
BRANCH  12  13
HETATM   13  C13 UNK     1      14.622   6.589   8.711  1.00  0.00     0.322 C 
HETATM   14  O6  UNK     1      14.873   5.393   8.696  1.00  0.00    -0.257 OA
BRANCH  13  15
HETATM   15  C14 UNK     1      15.140   7.515   9.750  1.00  0.00     0.150 A 
HETATM   16  O5  UNK     1      15.070   7.070  11.002  1.00  0.00    -0.317 OA
HETATM   17  C20 UNK     1      15.595   8.078  11.747  1.00  0.00     0.143 A 
HETATM   18  C19 UNK     1      15.978   9.124  10.940  1.00  0.00     0.027 A 
HETATM   19  C18 UNK     1      15.669   8.733   9.616  1.00  0.00     0.045 A 
ENDBRANCH  13  15
ENDBRANCH  12  13
ENDBRANCH   8  12
BRANCH   9  20
HETATM   20  O2  UNK     1       6.250   7.064   9.398  1.00  0.00    -0.303 OA
BRANCH  20  21
HETATM   21  C10 UNK     1       5.846   6.499  10.576  1.00  0.00     0.093 A 
HETATM   22  C11 UNK     1       5.197   7.251  11.553  1.00  0.00     0.044 A 
HETATM   23 Br1  UNK     1       4.839   9.095  11.301  1.00  0.00    -0.048 Br
HETATM   24  C15 UNK     1       4.797   6.645  12.744  1.00  0.00     0.022 A 
HETATM   25  C17 UNK     1       5.049   5.289  12.955  1.00  0.00     0.002 A 
HETATM   26  C16 UNK     1       5.698   4.539  11.975  1.00  0.00     0.003 A 
HETATM   27  C12 UNK     1       6.099   5.145  10.783  1.00  0.00     0.039 A 
ENDBRANCH  20  21
ENDBRANCH   9  20
TORSDOF 5
ENDMDL
MODEL 9
REMARK VINA RESULT:      -8.4     26.011     28.212
REMARK  5 active torsions:
REMARK  status: ('A' for Active; 'I' for Inactive)
REMARK    1  A    between atoms: C10_17  and  O2_3 
REMARK    2  A    between atoms: C7_14  and  O2_3 
REMARK    3  A    between atoms: C13_20  and  O3_4 
REMARK    4  A    between atoms: C6_13  and  O3_4 
REMARK    5  A    between atoms: C13_20  and  C14_21 
ROOT
HETATM    1  O1  UNK     1      19.614  -0.864  33.056  1.00  0.00    -0.319 OA
HETATM    2  O4  UNK     1      17.139   1.135  35.615  1.00  0.00    -0.284 OA
HETATM    3  C1  UNK     1      18.662  -0.642  35.283  1.00  0.00     0.051 A 
HETATM    4  C2  UNK     1      19.491  -1.282  34.359  1.00  0.00     0.092 A 
HETATM    5  C3  UNK     1      17.881   0.533  34.852  1.00  0.00     0.220 A 
HETATM    6  C4  UNK     1      18.577  -1.110  36.596  1.00  0.00     0.021 A 
HETATM    7  C5  UNK     1      20.238  -2.394  34.745  1.00  0.00     0.075 A 
HETATM    8  C6  UNK     1      20.155  -2.864  36.057  1.00  0.00     0.082 A 
HETATM    9  C7  UNK     1      18.052   0.940  33.440  1.00  0.00     0.149 A 
HETATM   10  C8  UNK     1      19.326  -2.223  36.979  1.00  0.00     0.038 A 
HETATM   11  C9  UNK     1      18.882   0.231  32.669  1.00  0.00     0.184 A 
ENDROOT
BRANCH   8  12
HETATM   12  O3  UNK     1      20.883  -3.950  36.437  1.00  0.00    -0.273 OA
BRANCH  12  13
HETATM   13  C13 UNK     1      20.118  -5.030  36.881  1.00  0.00     0.322 C 
HETATM   14  O6  UNK     1      19.003  -5.325  36.477  1.00  0.00    -0.257 OA
BRANCH  13  15
HETATM   15  C14 UNK     1      20.838  -5.806  37.922  1.00  0.00     0.150 A 
HETATM   16  O5  UNK     1      22.160  -5.659  37.935  1.00  0.00    -0.317 OA
HETATM   17  C20 UNK     1      22.576  -6.453  38.956  1.00  0.00     0.143 A 
HETATM   18  C19 UNK     1      21.502  -7.075  39.551  1.00  0.00     0.027 A 
HETATM   19  C18 UNK     1      20.355  -6.633  38.851  1.00  0.00     0.045 A 
ENDBRANCH  13  15
ENDBRANCH  12  13
ENDBRANCH   8  12
BRANCH   9  20
HETATM   20  O2  UNK     1      17.359   2.027  32.958  1.00  0.00    -0.303 OA
BRANCH  20  21
HETATM   21  C10 UNK     1      18.062   3.186  32.786  1.00  0.00     0.093 A 
HETATM   22  C11 UNK     1      18.484   3.595  31.523  1.00  0.00     0.044 A 
HETATM   23 Br1  UNK     1      18.104   2.568  29.977  1.00  0.00    -0.048 Br
HETATM   24  C15 UNK     1      19.200   4.784  31.381  1.00  0.00     0.022 A 
HETATM   25  C17 UNK     1      19.493   5.560  32.503  1.00  0.00     0.002 A 
HETATM   26  C16 UNK     1      19.069   5.147  33.766  1.00  0.00     0.003 A 
HETATM   27  C12 UNK     1      18.353   3.958  33.908  1.00  0.00     0.039 A 
ENDBRANCH  20  21
ENDBRANCH   9  20
TORSDOF 5
ENDMDL
MODEL 10
REMARK VINA RESULT:      -8.3     26.275     28.483
REMARK  5 active torsions:
REMARK  status: ('A' for Active; 'I' for Inactive)
REMARK    1  A    between atoms: C10_17  and  O2_3 
REMARK    2  A    between atoms: C7_14  and  O2_3 
REMARK    3  A    between atoms: C13_20  and  O3_4 
REMARK    4  A    between atoms: C6_13  and  O3_4 
REMARK    5  A    between atoms: C13_20  and  C14_21 
ROOT
HETATM    1  O1  UNK     1      19.905  -2.110  34.326  1.00  0.00    -0.319 OA
HETATM    2  O4  UNK     1      19.005  -2.119  38.309  1.00  0.00    -0.284 OA
HETATM    3  C1  UNK     1      18.713  -1.105  36.193  1.00  0.00     0.051 A 
HETATM    4  C2  UNK     1      19.060  -1.157  34.841  1.00  0.00     0.092 A 
HETATM    5  C3  UNK     1      19.272  -2.112  37.115  1.00  0.00     0.220 A 
HETATM    6  C4  UNK     1      17.847  -0.114  36.661  1.00  0.00     0.021 A 
HETATM    7  C5  UNK     1      18.542  -0.216  33.952  1.00  0.00     0.075 A 
HETATM    8  C6  UNK     1      17.677   0.776  34.417  1.00  0.00     0.082 A 
HETATM    9  C7  UNK     1      20.175  -3.114  36.508  1.00  0.00     0.149 A 
HETATM   10  C8  UNK     1      17.331   0.826  35.768  1.00  0.00     0.038 A 
HETATM   11  C9  UNK     1      20.417  -3.040  35.196  1.00  0.00     0.184 A 
ENDROOT
BRANCH   8  12
HETATM   12  O3  UNK     1      17.171   1.696  33.551  1.00  0.00    -0.273 OA
BRANCH  12  13
HETATM   13  C13 UNK     1      18.009   2.787  33.314  1.00  0.00     0.322 C 
HETATM   14  O6  UNK     1      18.465   3.532  34.169  1.00  0.00    -0.257 OA
BRANCH  13  15
HETATM   15  C14 UNK     1      18.299   2.938  31.866  1.00  0.00     0.150 A 
HETATM   16  O5  UNK     1      18.317   1.807  31.164  1.00  0.00    -0.317 OA
HETATM   17  C20 UNK     1      18.597   2.204  29.895  1.00  0.00     0.143 A 
HETATM   18  C19 UNK     1      18.746   3.571  29.840  1.00  0.00     0.027 A 
HETATM   19  C18 UNK     1      18.544   4.042  31.158  1.00  0.00     0.045 A 
ENDBRANCH  13  15
ENDBRANCH  12  13
ENDBRANCH   8  12
BRANCH   9  20
HETATM   20  O2  UNK     1      20.738  -4.087  37.300  1.00  0.00    -0.303 OA
BRANCH  20  21
HETATM   21  C10 UNK     1      20.105  -5.298  37.344  1.00  0.00     0.093 A 
HETATM   22  C11 UNK     1      20.677  -6.391  37.991  1.00  0.00     0.044 A 
HETATM   23 Br1  UNK     1      22.362  -6.258  38.846  1.00  0.00    -0.048 Br
HETATM   24  C15 UNK     1      20.004  -7.612  38.017  1.00  0.00     0.022 A 
HETATM   25  C17 UNK     1      18.762  -7.738  37.395  1.00  0.00     0.002 A 
HETATM   26  C16 UNK     1      18.191  -6.642  36.748  1.00  0.00     0.003 A 
HETATM   27  C12 UNK     1      18.865  -5.420  36.722  1.00  0.00     0.039 A 
ENDBRANCH  20  21
ENDBRANCH   9  20
TORSDOF 5
ENDMDL
