MODEL 1
REMARK VINA RESULT:      -9.0      0.000      0.000
REMARK  3 active torsions:
REMARK  status: ('A' for Active; 'I' for Inactive)
REMARK       I    between atoms: C11_17  and  N2_6 
REMARK    1  A    between atoms: C19_25  and  N2_6 
REMARK    2  A    between atoms: C1_7  and  C10_16 
REMARK    3  A    between atoms: C11_17  and  C6_12 
ROOT
HETATM    1  O1  UNK     1      33.451  -8.709  33.245  1.00  0.00    -0.293 OA
HETATM    2  N1  UNK     1      33.483  -5.565  36.793  1.00  0.00    -0.362 N 
HETATM    3  C1  UNK     1      31.896  -7.348  35.258  1.00  0.00     0.104 C 
HETATM    4  C2  UNK     1      33.381  -7.111  35.002  1.00  0.00     0.024 C 
HETATM    5  C3  UNK     1      34.089  -6.239  35.751  1.00  0.00     0.020 C 
HETATM    6  C4  UNK     1      35.558  -5.975  35.546  1.00  0.00     0.058 C 
HETATM    7  C5  UNK     1      36.258  -7.116  34.818  1.00  0.00     0.014 C 
HETATM    8  C6  UNK     1      31.398  -6.653  36.526  1.00  0.00     0.045 C 
HETATM    9  C7  UNK     1      35.493  -7.513  33.568  1.00  0.00     0.084 C 
HETATM   10  C8  UNK     1      34.060  -7.863  33.899  1.00  0.00     0.158 C 
HETATM   11  C9  UNK     1      32.181  -5.789  37.212  1.00  0.00     0.018 C 
HETATM   12  C13 UNK     1      31.767  -5.020  38.437  1.00  0.00     0.069 C 
HETATM   13  H8  UNK     1      34.048  -4.918  37.331  1.00  0.00     0.165 HD
ENDROOT
BRANCH   3  14
HETATM   14  C10 UNK     1      31.079  -6.905  34.074  1.00  0.00     0.029 A 
HETATM   15  C12 UNK     1      30.065  -7.839  33.521  1.00  0.00     0.194 A 
HETATM   16  O4  UNK     1      29.877  -8.950  33.998  1.00  0.00    -0.287 OA
HETATM   17  C15 UNK     1      29.294  -7.356  32.362  1.00  0.00     0.048 A 
HETATM   18  C16 UNK     1      29.552  -6.080  31.860  1.00  0.00     0.089 A 
HETATM   19  C17 UNK     1      28.318  -8.161  31.769  1.00  0.00     0.018 A 
HETATM   20  O2  UNK     1      30.499  -5.248  32.401  1.00  0.00    -0.321 OA
HETATM   21  C18 UNK     1      28.834  -5.602  30.763  1.00  0.00     0.038 A 
HETATM   22  C14 UNK     1      31.210  -5.711  33.481  1.00  0.00     0.154 A 
HETATM   23  C21 UNK     1      27.859  -6.404  30.170  1.00  0.00     0.003 A 
HETATM   24  C20 UNK     1      27.601  -7.680  30.673  1.00  0.00     0.001 A 
ENDBRANCH   3  14
BRANCH   8  25
HETATM   25  C11 UNK     1      30.049  -7.015  36.991  1.00  0.00     0.255 C 
HETATM   26  O3  UNK     1      29.211  -6.134  37.162  1.00  0.00    -0.268 OA
HETATM   27  N2  UNK     1      29.913  -8.381  37.180  1.00  0.00    -0.323 N 
HETATM   28  H13 UNK     1      30.719  -8.970  36.978  1.00  0.00     0.169 HD
BRANCH  27  29
HETATM   29  C19 UNK     1      28.762  -9.080  37.618  1.00  0.00     0.035 A 
HETATM   30  C22 UNK     1      27.739  -9.329  36.718  1.00  0.00     0.029 A 
HETATM   31  C24 UNK     1      26.605 -10.018  37.149  1.00  0.00     0.002 A 
HETATM   32  C26 UNK     1      26.512 -10.449  38.472  1.00  0.00     0.000 A 
HETATM   33  C25 UNK     1      27.552 -10.191  39.366  1.00  0.00     0.002 A 
HETATM   34  C23 UNK     1      28.686  -9.501  38.934  1.00  0.00     0.029 A 
ENDBRANCH  27  29
ENDBRANCH   8  25
TORSDOF 3
ENDMDL
MODEL 2
REMARK VINA RESULT:      -8.8      2.020      5.884
REMARK  3 active torsions:
REMARK  status: ('A' for Active; 'I' for Inactive)
REMARK       I    between atoms: C11_17  and  N2_6 
REMARK    1  A    between atoms: C19_25  and  N2_6 
REMARK    2  A    between atoms: C1_7  and  C10_16 
REMARK    3  A    between atoms: C11_17  and  C6_12 
ROOT
HETATM    1  O1  UNK     1      31.678  -5.436  37.389  1.00  0.00    -0.293 OA
HETATM    2  N1  UNK     1      33.861  -8.562  34.572  1.00  0.00    -0.362 N 
HETATM    3  C1  UNK     1      31.360  -7.530  35.429  1.00  0.00     0.104 C 
HETATM    4  C2  UNK     1      32.700  -7.059  35.987  1.00  0.00     0.024 C 
HETATM    5  C3  UNK     1      33.863  -7.594  35.557  1.00  0.00     0.020 C 
HETATM    6  C4  UNK     1      35.212  -7.160  36.068  1.00  0.00     0.058 C 
HETATM    7  C5  UNK     1      35.181  -5.764  36.676  1.00  0.00     0.014 C 
HETATM    8  C6  UNK     1      31.517  -8.490  34.249  1.00  0.00     0.045 C 
HETATM    9  C7  UNK     1      34.042  -5.629  37.670  1.00  0.00     0.084 C 
HETATM   10  C8  UNK     1      32.719  -5.983  37.028  1.00  0.00     0.158 C 
HETATM   11  C9  UNK     1      32.726  -8.980  33.893  1.00  0.00     0.018 C 
HETATM   12  C13 UNK     1      32.977  -9.965  32.784  1.00  0.00     0.069 C 
HETATM   13  H8  UNK     1      34.754  -8.941  34.277  1.00  0.00     0.165 HD
ENDROOT
BRANCH   3  14
HETATM   14  C10 UNK     1      30.535  -8.173  36.511  1.00  0.00     0.029 A 
HETATM   15  C12 UNK     1      29.153  -7.681  36.738  1.00  0.00     0.194 A 
HETATM   16  O4  UNK     1      28.669  -6.774  36.075  1.00  0.00    -0.287 OA
HETATM   17  C15 UNK     1      28.389  -8.345  37.810  1.00  0.00     0.048 A 
HETATM   18  C16 UNK     1      28.992  -9.374  38.534  1.00  0.00     0.089 A 
HETATM   19  C17 UNK     1      27.080  -7.953  38.101  1.00  0.00     0.018 A 
HETATM   20  O2  UNK     1      30.274  -9.799  38.292  1.00  0.00    -0.321 OA
HETATM   21  C18 UNK     1      28.289 -10.017  39.554  1.00  0.00     0.038 A 
HETATM   22  C14 UNK     1      30.974  -9.171  37.291  1.00  0.00     0.154 A 
HETATM   23  C21 UNK     1      26.982  -9.627  39.845  1.00  0.00     0.003 A 
HETATM   24  C20 UNK     1      26.379  -8.599  39.121  1.00  0.00     0.001 A 
ENDBRANCH   3  14
BRANCH   8  25
HETATM   25  C11 UNK     1      30.296  -8.809  33.491  1.00  0.00     0.255 C 
HETATM   26  O3  UNK     1      29.738  -9.888  33.668  1.00  0.00    -0.268 OA
HETATM   27  N2  UNK     1      29.933  -7.782  32.634  1.00  0.00    -0.323 N 
HETATM   28  H13 UNK     1      30.514  -6.946  32.625  1.00  0.00     0.169 HD
BRANCH  27  29
HETATM   29  C19 UNK     1      28.821  -7.743  31.759  1.00  0.00     0.035 A 
HETATM   30  C22 UNK     1      28.704  -8.705  30.769  1.00  0.00     0.029 A 
HETATM   31  C24 UNK     1      27.608  -8.667  29.908  1.00  0.00     0.002 A 
HETATM   32  C26 UNK     1      26.644  -7.670  30.050  1.00  0.00     0.000 A 
HETATM   33  C25 UNK     1      26.776  -6.708  31.052  1.00  0.00     0.002 A 
HETATM   34  C23 UNK     1      27.873  -6.746  31.914  1.00  0.00     0.029 A 
ENDBRANCH  27  29
ENDBRANCH   8  25
TORSDOF 3
ENDMDL
MODEL 3
REMARK VINA RESULT:      -8.8      1.537      1.934
REMARK  3 active torsions:
REMARK  status: ('A' for Active; 'I' for Inactive)
REMARK       I    between atoms: C11_17  and  N2_6 
REMARK    1  A    between atoms: C19_25  and  N2_6 
REMARK    2  A    between atoms: C1_7  and  C10_16 
REMARK    3  A    between atoms: C11_17  and  C6_12 
ROOT
HETATM    1  O1  UNK     1      33.701  -8.601  31.471  1.00  0.00    -0.293 OA
HETATM    2  N1  UNK     1      34.218  -7.133  35.948  1.00  0.00    -0.362 N 
HETATM    3  C1  UNK     1      32.576  -8.562  34.127  1.00  0.00     0.104 C 
HETATM    4  C2  UNK     1      33.869  -7.860  33.722  1.00  0.00     0.024 C 
HETATM    5  C3  UNK     1      34.607  -7.178  34.624  1.00  0.00     0.020 C 
HETATM    6  C4  UNK     1      35.894  -6.475  34.278  1.00  0.00     0.058 C 
HETATM    7  C5  UNK     1      36.537  -7.029  33.013  1.00  0.00     0.014 C 
HETATM    8  C6  UNK     1      32.350  -8.554  35.640  1.00  0.00     0.045 C 
HETATM    9  C7  UNK     1      35.526  -7.117  31.884  1.00  0.00     0.084 C 
HETATM   10  C8  UNK     1      34.322  -7.933  32.297  1.00  0.00     0.158 C 
HETATM   11  C9  UNK     1      33.142  -7.835  36.469  1.00  0.00     0.018 C 
HETATM   12  C13 UNK     1      32.971  -7.722  37.959  1.00  0.00     0.069 C 
HETATM   13  H8  UNK     1      34.797  -6.609  36.595  1.00  0.00     0.165 HD
ENDROOT
BRANCH   3  14
HETATM   14  C10 UNK     1      31.397  -7.942  33.427  1.00  0.00     0.029 A 
HETATM   15  C12 UNK     1      30.505  -8.819  32.627  1.00  0.00     0.194 A 
HETATM   16  O4  UNK     1      30.700 -10.023  32.523  1.00  0.00    -0.287 OA
HETATM   17  C15 UNK     1      29.366  -8.161  31.961  1.00  0.00     0.048 A 
HETATM   18  C16 UNK     1      29.193  -6.786  32.115  1.00  0.00     0.089 A 
HETATM   19  C17 UNK     1      28.470  -8.901  31.185  1.00  0.00     0.018 A 
HETATM   20  O2  UNK     1      30.042  -6.011  32.865  1.00  0.00    -0.321 OA
HETATM   21  C18 UNK     1      28.122  -6.141  31.494  1.00  0.00     0.038 A 
HETATM   22  C14 UNK     1      31.099  -6.637  33.479  1.00  0.00     0.154 A 
HETATM   23  C21 UNK     1      27.227  -6.878  30.719  1.00  0.00     0.003 A 
HETATM   24  C20 UNK     1      27.399  -8.254  30.566  1.00  0.00     0.001 A 
ENDBRANCH   3  14
BRANCH   8  25
HETATM   25  C11 UNK     1      31.266  -9.408  36.150  1.00  0.00     0.255 C 
HETATM   26  O3  UNK     1      31.420 -10.626  36.187  1.00  0.00    -0.268 OA
HETATM   27  N2  UNK     1      30.159  -8.668  36.537  1.00  0.00    -0.323 N 
HETATM   28  H13 UNK     1      30.211  -7.655  36.444  1.00  0.00     0.169 HD
BRANCH  27  29
HETATM   29  C19 UNK     1      28.942  -9.155  37.072  1.00  0.00     0.035 A 
HETATM   30  C22 UNK     1      28.832  -9.350  38.438  1.00  0.00     0.029 A 
HETATM   31  C24 UNK     1      27.632  -9.829  38.965  1.00  0.00     0.002 A 
HETATM   32  C26 UNK     1      26.560 -10.104  38.117  1.00  0.00     0.000 A 
HETATM   33  C25 UNK     1      26.686  -9.902  36.742  1.00  0.00     0.002 A 
HETATM   34  C23 UNK     1      27.887  -9.423  36.216  1.00  0.00     0.029 A 
ENDBRANCH  27  29
ENDBRANCH   8  25
TORSDOF 3
ENDMDL
MODEL 4
REMARK VINA RESULT:      -8.8      2.208      3.645
REMARK  3 active torsions:
REMARK  status: ('A' for Active; 'I' for Inactive)
REMARK       I    between atoms: C11_17  and  N2_6 
REMARK    1  A    between atoms: C19_25  and  N2_6 
REMARK    2  A    between atoms: C1_7  and  C10_16 
REMARK    3  A    between atoms: C11_17  and  C6_12 
ROOT
HETATM    1  O1  UNK     1      32.457  -9.571  35.657  1.00  0.00    -0.293 OA
HETATM    2  N1  UNK     1      29.926  -6.863  38.612  1.00  0.00    -0.362 N 
HETATM    3  C1  UNK     1      29.877  -9.092  36.855  1.00  0.00     0.104 C 
HETATM    4  C2  UNK     1      31.115  -8.230  37.086  1.00  0.00     0.024 C 
HETATM    5  C3  UNK     1      31.082  -7.169  37.921  1.00  0.00     0.020 C 
HETATM    6  C4  UNK     1      32.277  -6.291  38.191  1.00  0.00     0.058 C 
HETATM    7  C5  UNK     1      33.594  -6.991  37.880  1.00  0.00     0.014 C 
HETATM    8  C6  UNK     1      28.723  -8.729  37.792  1.00  0.00     0.045 C 
HETATM    9  C7  UNK     1      33.559  -7.628  36.503  1.00  0.00     0.084 C 
HETATM   10  C8  UNK     1      32.385  -8.572  36.373  1.00  0.00     0.158 C 
HETATM   11  C9  UNK     1      28.779  -7.641  38.593  1.00  0.00     0.018 C 
HETATM   12  C13 UNK     1      27.680  -7.174  39.508  1.00  0.00     0.069 C 
HETATM   13  H8  UNK     1      29.941  -6.058  39.228  1.00  0.00     0.165 HD
ENDROOT
BRANCH   3  14
HETATM   14  C10 UNK     1      29.427  -8.996  35.422  1.00  0.00     0.029 A 
HETATM   15  C12 UNK     1      28.999  -7.673  34.900  1.00  0.00     0.194 A 
HETATM   16  O4  UNK     1      29.002  -6.667  35.597  1.00  0.00    -0.287 OA
HETATM   17  C15 UNK     1      28.568  -7.635  33.491  1.00  0.00     0.048 A 
HETATM   18  C16 UNK     1      28.585  -8.813  32.744  1.00  0.00     0.089 A 
HETATM   19  C17 UNK     1      28.146  -6.438  32.907  1.00  0.00     0.018 A 
HETATM   20  O2  UNK     1      28.989 -10.016  33.267  1.00  0.00    -0.321 OA
HETATM   21  C18 UNK     1      28.181  -8.801  31.409  1.00  0.00     0.038 A 
HETATM   22  C14 UNK     1      29.388 -10.037  34.581  1.00  0.00     0.154 A 
HETATM   23  C21 UNK     1      27.759  -7.607  30.824  1.00  0.00     0.003 A 
HETATM   24  C20 UNK     1      27.743  -6.428  31.571  1.00  0.00     0.001 A 
ENDBRANCH   3  14
BRANCH   8  25
HETATM   25  C11 UNK     1      27.578  -9.654  37.816  1.00  0.00     0.255 C 
HETATM   26  O3  UNK     1      27.534 -10.542  38.663  1.00  0.00    -0.268 OA
HETATM   27  N2  UNK     1      26.660  -9.369  36.817  1.00  0.00    -0.323 N 
HETATM   28  H13 UNK     1      26.856  -8.580  36.204  1.00  0.00     0.169 HD
BRANCH  27  29
HETATM   29  C19 UNK     1      25.446 -10.047  36.545  1.00  0.00     0.035 A 
HETATM   30  C22 UNK     1      25.485 -11.376  36.158  1.00  0.00     0.029 A 
HETATM   31  C24 UNK     1      24.290 -12.043  35.890  1.00  0.00     0.002 A 
HETATM   32  C26 UNK     1      23.074 -11.372  36.016  1.00  0.00     0.000 A 
HETATM   33  C25 UNK     1      23.052 -10.033  36.408  1.00  0.00     0.002 A 
HETATM   34  C23 UNK     1      24.248  -9.366  36.675  1.00  0.00     0.029 A 
ENDBRANCH  27  29
ENDBRANCH   8  25
TORSDOF 3
ENDMDL
MODEL 5
REMARK VINA RESULT:      -8.7      2.238      6.057
REMARK  3 active torsions:
REMARK  status: ('A' for Active; 'I' for Inactive)
REMARK       I    between atoms: C11_17  and  N2_6 
REMARK    1  A    between atoms: C19_25  and  N2_6 
REMARK    2  A    between atoms: C1_7  and  C10_16 
REMARK    3  A    between atoms: C11_17  and  C6_12 
ROOT
HETATM    1  O1  UNK     1      30.873  -5.028  36.146  1.00  0.00    -0.293 OA
HETATM    2  N1  UNK     1      33.218  -9.068  35.343  1.00  0.00    -0.362 N 
HETATM    3  C1  UNK     1      30.779  -7.664  34.979  1.00  0.00     0.104 C 
HETATM    4  C2  UNK     1      31.968  -7.097  35.748  1.00  0.00     0.024 C 
HETATM    5  C3  UNK     1      33.103  -7.812  35.907  1.00  0.00     0.020 C 
HETATM    6  C4  UNK     1      34.309  -7.296  36.649  1.00  0.00     0.058 C 
HETATM    7  C5  UNK     1      34.336  -5.776  36.728  1.00  0.00     0.014 C 
HETATM    8  C6  UNK     1      31.101  -8.991  34.289  1.00  0.00     0.045 C 
HETATM    9  C7  UNK     1      33.002  -5.233  37.209  1.00  0.00     0.084 C 
HETATM   10  C8  UNK     1      31.871  -5.723  36.332  1.00  0.00     0.158 C 
HETATM   11  C9  UNK     1      32.266  -9.640  34.514  1.00  0.00     0.018 C 
HETATM   12  C13 UNK     1      32.653 -10.969  33.925  1.00  0.00     0.069 C 
HETATM   13  H8  UNK     1      34.085  -9.574  35.486  1.00  0.00     0.165 HD
ENDROOT
BRANCH   3  14
HETATM   14  C10 UNK     1      29.593  -7.832  35.891  1.00  0.00     0.029 A 
HETATM   15  C12 UNK     1      29.718  -8.742  37.058  1.00  0.00     0.194 A 
HETATM   16  O4  UNK     1      30.750  -9.355  37.297  1.00  0.00    -0.287 OA
HETATM   17  C15 UNK     1      28.528  -8.871  37.918  1.00  0.00     0.048 A 
HETATM   18  C16 UNK     1      27.378  -8.148  37.598  1.00  0.00     0.089 A 
HETATM   19  C17 UNK     1      28.546  -9.704  39.040  1.00  0.00     0.018 A 
HETATM   20  O2  UNK     1      27.305  -7.317  36.508  1.00  0.00    -0.321 OA
HETATM   21  C18 UNK     1      26.240  -8.255  38.397  1.00  0.00     0.038 A 
HETATM   22  C14 UNK     1      28.421  -7.207  35.716  1.00  0.00     0.154 A 
HETATM   23  C21 UNK     1      26.256  -9.086  39.517  1.00  0.00     0.003 A 
HETATM   24  C20 UNK     1      27.406  -9.807  39.838  1.00  0.00     0.001 A 
ENDBRANCH   3  14
BRANCH   8  25
HETATM   25  C11 UNK     1      30.104  -9.495  33.331  1.00  0.00     0.255 C 
HETATM   26  O3  UNK     1      29.251 -10.294  33.707  1.00  0.00    -0.268 OA
HETATM   27  N2  UNK     1      30.285  -8.962  32.064  1.00  0.00    -0.323 N 
HETATM   28  H13 UNK     1      31.047  -8.298  31.934  1.00  0.00     0.169 HD
BRANCH  27  29
HETATM   29  C19 UNK     1      29.517  -9.220  30.903  1.00  0.00     0.035 A 
HETATM   30  C22 UNK     1      30.038 -10.037  29.914  1.00  0.00     0.029 A 
HETATM   31  C24 UNK     1      29.281 -10.292  28.770  1.00  0.00     0.002 A 
HETATM   32  C26 UNK     1      28.013  -9.728  28.634  1.00  0.00     0.000 A 
HETATM   33  C25 UNK     1      27.502  -8.907  29.640  1.00  0.00     0.002 A 
HETATM   34  C23 UNK     1      28.260  -8.652  30.784  1.00  0.00     0.029 A 
ENDBRANCH  27  29
ENDBRANCH   8  25
TORSDOF 3
ENDMDL
MODEL 6
REMARK VINA RESULT:      -8.7      2.290      3.295
REMARK  3 active torsions:
REMARK  status: ('A' for Active; 'I' for Inactive)
REMARK       I    between atoms: C11_17  and  N2_6 
REMARK    1  A    between atoms: C19_25  and  N2_6 
REMARK    2  A    between atoms: C1_7  and  C10_16 
REMARK    3  A    between atoms: C11_17  and  C6_12 
ROOT
HETATM    1  O1  UNK     1      33.520 -10.700  33.244  1.00  0.00    -0.293 OA
HETATM    2  N1  UNK     1      35.620  -6.532  34.074  1.00  0.00    -0.362 N 
HETATM    3  C1  UNK     1      33.158  -7.941  34.006  1.00  0.00     0.104 C 
HETATM    4  C2  UNK     1      34.497  -8.569  33.631  1.00  0.00     0.024 C 
HETATM    5  C3  UNK     1      35.640  -7.851  33.664  1.00  0.00     0.020 C 
HETATM    6  C4  UNK     1      36.988  -8.424  33.312  1.00  0.00     0.058 C 
HETATM    7  C5  UNK     1      37.024  -9.942  33.438  1.00  0.00     0.014 C 
HETATM    8  C6  UNK     1      33.308  -6.530  34.578  1.00  0.00     0.045 C 
HETATM    9  C7  UNK     1      35.847 -10.575  32.718  1.00  0.00     0.084 C 
HETATM   10  C8  UNK     1      34.538 -10.008  33.221  1.00  0.00     0.158 C 
HETATM   11  C9  UNK     1      34.497  -5.885  34.565  1.00  0.00     0.018 C 
HETATM   12  C13 UNK     1      34.735  -4.483  35.056  1.00  0.00     0.069 C 
HETATM   13  H8  UNK     1      36.499  -6.026  34.084  1.00  0.00     0.165 HD
ENDROOT
BRANCH   3  14
HETATM   14  C10 UNK     1      32.234  -7.919  32.817  1.00  0.00     0.029 A 
HETATM   15  C12 UNK     1      30.850  -8.428  32.985  1.00  0.00     0.194 A 
HETATM   16  O4  UNK     1      30.441  -8.861  34.054  1.00  0.00    -0.287 OA
HETATM   17  C15 UNK     1      29.987  -8.385  31.790  1.00  0.00     0.048 A 
HETATM   18  C16 UNK     1      30.506  -7.880  30.597  1.00  0.00     0.089 A 
HETATM   19  C17 UNK     1      28.668  -8.843  31.846  1.00  0.00     0.018 A 
HETATM   20  O2  UNK     1      31.794  -7.419  30.486  1.00  0.00    -0.321 OA
HETATM   21  C18 UNK     1      29.709  -7.830  29.454  1.00  0.00     0.038 A 
HETATM   22  C14 UNK     1      32.586  -7.466  31.607  1.00  0.00     0.154 A 
HETATM   23  C21 UNK     1      28.392  -8.286  29.508  1.00  0.00     0.003 A 
HETATM   24  C20 UNK     1      27.873  -8.790  30.700  1.00  0.00     0.001 A 
ENDBRANCH   3  14
BRANCH   8  25
HETATM   25  C11 UNK     1      32.109  -5.936  35.191  1.00  0.00     0.255 C 
HETATM   26  O3  UNK     1      31.367  -5.233  34.511  1.00  0.00    -0.268 OA
HETATM   27  N2  UNK     1      31.986  -6.276  36.529  1.00  0.00    -0.323 N 
HETATM   28  H13 UNK     1      32.698  -6.884  36.930  1.00  0.00     0.169 HD
BRANCH  27  29
HETATM   29  C19 UNK     1      30.962  -5.887  37.426  1.00  0.00     0.035 A 
HETATM   30  C22 UNK     1      30.870  -4.561  37.815  1.00  0.00     0.029 A 
HETATM   31  C24 UNK     1      29.861  -4.178  38.698  1.00  0.00     0.002 A 
HETATM   32  C26 UNK     1      28.958  -5.126  39.178  1.00  0.00     0.000 A 
HETATM   33  C25 UNK     1      29.064  -6.458  38.776  1.00  0.00     0.002 A 
HETATM   34  C23 UNK     1      30.074  -6.841  37.893  1.00  0.00     0.029 A 
ENDBRANCH  27  29
ENDBRANCH   8  25
TORSDOF 3
ENDMDL
MODEL 7
REMARK VINA RESULT:      -8.7      1.821      2.156
REMARK  3 active torsions:
REMARK  status: ('A' for Active; 'I' for Inactive)
REMARK       I    between atoms: C11_17  and  N2_6 
REMARK    1  A    between atoms: C19_25  and  N2_6 
REMARK    2  A    between atoms: C1_7  and  C10_16 
REMARK    3  A    between atoms: C11_17  and  C6_12 
ROOT
HETATM    1  O1  UNK     1      33.683  -9.735  31.918  1.00  0.00    -0.293 OA
HETATM    2  N1  UNK     1      35.167  -7.331  35.725  1.00  0.00    -0.362 N 
HETATM    3  C1  UNK     1      32.965  -8.617  34.479  1.00  0.00     0.104 C 
HETATM    4  C2  UNK     1      34.342  -8.495  33.834  1.00  0.00     0.024 C 
HETATM    5  C3  UNK     1      35.354  -7.859  34.462  1.00  0.00     0.020 C 
HETATM    6  C4  UNK     1      36.734  -7.718  33.874  1.00  0.00     0.058 C 
HETATM    7  C5  UNK     1      37.023  -8.770  32.812  1.00  0.00     0.014 C 
HETATM    8  C6  UNK     1      32.945  -8.123  35.926  1.00  0.00     0.045 C 
HETATM    9  C7  UNK     1      35.895  -8.844  31.799  1.00  0.00     0.084 C 
HETATM   10  C8  UNK     1      34.570  -9.095  32.482  1.00  0.00     0.158 C 
HETATM   11  C9  UNK     1      34.009  -7.490  36.471  1.00  0.00     0.018 C 
HETATM   12  C13 UNK     1      34.069  -6.924  37.864  1.00  0.00     0.069 C 
HETATM   13  H8  UNK     1      35.950  -6.859  36.163  1.00  0.00     0.165 HD
ENDROOT
BRANCH   3  14
HETATM   14  C10 UNK     1      31.935  -7.877  33.668  1.00  0.00     0.029 A 
HETATM   15  C12 UNK     1      30.741  -8.618  33.191  1.00  0.00     0.194 A 
HETATM   16  O4  UNK     1      30.571  -9.805  33.436  1.00  0.00    -0.287 OA
HETATM   17  C15 UNK     1      29.764  -7.846  32.400  1.00  0.00     0.048 A 
HETATM   18  C16 UNK     1      30.010  -6.496  32.151  1.00  0.00     0.089 A 
HETATM   19  C17 UNK     1      28.608  -8.454  31.905  1.00  0.00     0.018 A 
HETATM   20  O2  UNK     1      31.129  -5.849  32.612  1.00  0.00    -0.321 OA
HETATM   21  C18 UNK     1      29.101  -5.745  31.405  1.00  0.00     0.038 A 
HETATM   22  C14 UNK     1      32.030  -6.580  33.346  1.00  0.00     0.154 A 
HETATM   23  C21 UNK     1      27.945  -6.350  30.910  1.00  0.00     0.003 A 
HETATM   24  C20 UNK     1      27.699  -7.701  31.160  1.00  0.00     0.001 A 
ENDBRANCH   3  14
BRANCH   8  25
HETATM   25  C11 UNK     1      31.734  -8.420  36.709  1.00  0.00     0.255 C 
HETATM   26  O3  UNK     1      31.588  -9.537  37.198  1.00  0.00    -0.268 OA
HETATM   27  N2  UNK     1      30.883  -7.329  36.784  1.00  0.00    -0.323 N 
HETATM   28  H13 UNK     1      31.173  -6.469  36.321  1.00  0.00     0.169 HD
BRANCH  27  29
HETATM   29  C19 UNK     1      29.636  -7.253  37.451  1.00  0.00     0.035 A 
HETATM   30  C22 UNK     1      28.510  -7.782  36.844  1.00  0.00     0.029 A 
HETATM   31  C24 UNK     1      27.282  -7.708  37.502  1.00  0.00     0.002 A 
HETATM   32  C26 UNK     1      27.200  -7.108  38.758  1.00  0.00     0.000 A 
HETATM   33  C25 UNK     1      28.345  -6.580  39.357  1.00  0.00     0.002 A 
HETATM   34  C23 UNK     1      29.572  -6.654  38.698  1.00  0.00     0.029 A 
ENDBRANCH  27  29
ENDBRANCH   8  25
TORSDOF 3
ENDMDL
MODEL 8
REMARK VINA RESULT:      -8.6      3.113      5.777
REMARK  3 active torsions:
REMARK  status: ('A' for Active; 'I' for Inactive)
REMARK       I    between atoms: C11_17  and  N2_6 
REMARK    1  A    between atoms: C19_25  and  N2_6 
REMARK    2  A    between atoms: C1_7  and  C10_16 
REMARK    3  A    between atoms: C11_17  and  C6_12 
ROOT
HETATM    1  O1  UNK     1      35.103  -6.623  33.489  1.00  0.00    -0.293 OA
HETATM    2  N1  UNK     1      33.983 -11.224  33.271  1.00  0.00    -0.362 N 
HETATM    3  C1  UNK     1      32.981  -8.578  33.496  1.00  0.00     0.104 C 
HETATM    4  C2  UNK     1      34.469  -8.912  33.433  1.00  0.00     0.024 C 
HETATM    5  C3  UNK     1      34.895 -10.190  33.342  1.00  0.00     0.020 C 
HETATM    6  C4  UNK     1      36.351 -10.573  33.267  1.00  0.00     0.058 C 
HETATM    7  C5  UNK     1      37.228  -9.428  32.779  1.00  0.00     0.014 C 
HETATM    8  C6  UNK     1      32.092  -9.800  33.259  1.00  0.00     0.045 C 
HETATM    9  C7  UNK     1      36.936  -8.153  33.549  1.00  0.00     0.084 C 
HETATM   10  C8  UNK     1      35.468  -7.798  33.470  1.00  0.00     0.158 C 
HETATM   11  C9  UNK     1      32.610 -11.047  33.185  1.00  0.00     0.018 C 
HETATM   12  C13 UNK     1      31.817 -12.313  33.005  1.00  0.00     0.069 C 
HETATM   13  H8  UNK     1      34.342 -12.170  33.205  1.00  0.00     0.165 HD
ENDROOT
BRANCH   3  14
HETATM   14  C10 UNK     1      32.640  -7.941  34.817  1.00  0.00     0.029 A 
HETATM   15  C12 UNK     1      31.909  -6.649  34.813  1.00  0.00     0.194 A 
HETATM   16  O4  UNK     1      31.579  -6.091  33.775  1.00  0.00    -0.287 OA
HETATM   17  C15 UNK     1      31.600  -6.068  36.133  1.00  0.00     0.048 A 
HETATM   18  C16 UNK     1      32.001  -6.748  37.283  1.00  0.00     0.089 A 
HETATM   19  C17 UNK     1      30.916  -4.854  36.236  1.00  0.00     0.018 A 
HETATM   20  O2  UNK     1      32.676  -7.943  37.241  1.00  0.00    -0.321 OA
HETATM   21  C18 UNK     1      31.720  -6.218  38.543  1.00  0.00     0.038 A 
HETATM   22  C14 UNK     1      32.957  -8.471  36.006  1.00  0.00     0.154 A 
HETATM   23  C21 UNK     1      31.037  -5.006  38.647  1.00  0.00     0.003 A 
HETATM   24  C20 UNK     1      30.636  -4.327  37.497  1.00  0.00     0.001 A 
ENDBRANCH   3  14
BRANCH   8  25
HETATM   25  C11 UNK     1      30.656  -9.543  33.060  1.00  0.00     0.255 C 
HETATM   26  O3  UNK     1      29.835 -10.108  33.776  1.00  0.00    -0.268 OA
HETATM   27  N2  UNK     1      30.427  -8.645  32.029  1.00  0.00    -0.323 N 
HETATM   28  H13 UNK     1      31.238  -8.263  31.544  1.00  0.00     0.169 HD
BRANCH  27  29
HETATM   29  C19 UNK     1      29.177  -8.169  31.563  1.00  0.00     0.035 A 
HETATM   30  C22 UNK     1      28.511  -8.872  30.573  1.00  0.00     0.029 A 
HETATM   31  C24 UNK     1      27.280  -8.403  30.115  1.00  0.00     0.002 A 
HETATM   32  C26 UNK     1      26.732  -7.240  30.656  1.00  0.00     0.000 A 
HETATM   33  C25 UNK     1      27.415  -6.544  31.653  1.00  0.00     0.002 A 
HETATM   34  C23 UNK     1      28.648  -7.013  32.111  1.00  0.00     0.029 A 
ENDBRANCH  27  29
ENDBRANCH   8  25
TORSDOF 3
ENDMDL
MODEL 9
REMARK VINA RESULT:      -8.5      2.937      6.275
REMARK  3 active torsions:
REMARK  status: ('A' for Active; 'I' for Inactive)
REMARK       I    between atoms: C11_17  and  N2_6 
REMARK    1  A    between atoms: C19_25  and  N2_6 
REMARK    2  A    between atoms: C1_7  and  C10_16 
REMARK    3  A    between atoms: C11_17  and  C6_12 
ROOT
HETATM    1  O1  UNK     1      32.462  -8.567  37.187  1.00  0.00    -0.293 OA
HETATM    2  N1  UNK     1      29.203  -5.831  35.099  1.00  0.00    -0.362 N 
HETATM    3  C1  UNK     1      30.808  -8.158  34.858  1.00  0.00     0.104 C 
HETATM    4  C2  UNK     1      30.864  -7.219  36.059  1.00  0.00     0.024 C 
HETATM    5  C3  UNK     1      30.090  -6.114  36.119  1.00  0.00     0.020 C 
HETATM    6  C4  UNK     1      30.099  -5.159  37.284  1.00  0.00     0.058 C 
HETATM    7  C5  UNK     1      30.627  -5.803  38.559  1.00  0.00     0.014 C 
HETATM    8  C6  UNK     1      29.684  -7.804  33.884  1.00  0.00     0.045 C 
HETATM    9  C7  UNK     1      31.940  -6.521  38.303  1.00  0.00     0.084 C 
HETATM   10  C8  UNK     1      31.794  -7.533  37.189  1.00  0.00     0.158 C 
HETATM   11  C9  UNK     1      28.961  -6.669  34.021  1.00  0.00     0.018 C 
HETATM   12  C13 UNK     1      27.872  -6.209  33.091  1.00  0.00     0.069 C 
HETATM   13  H8  UNK     1      28.640  -4.991  35.179  1.00  0.00     0.165 HD
ENDROOT
BRANCH   3  14
HETATM   14  C10 UNK     1      32.130  -8.171  34.137  1.00  0.00     0.029 A 
HETATM   15  C12 UNK     1      32.856  -9.459  34.009  1.00  0.00     0.194 A 
HETATM   16  O4  UNK     1      32.414 -10.503  34.470  1.00  0.00    -0.287 OA
HETATM   17  C15 UNK     1      34.145  -9.416  33.295  1.00  0.00     0.048 A 
HETATM   18  C16 UNK     1      34.600  -8.197  32.790  1.00  0.00     0.089 A 
HETATM   19  C17 UNK     1      34.905 -10.576  33.123  1.00  0.00     0.018 A 
HETATM   20  O2  UNK     1      33.895  -7.028  32.931  1.00  0.00    -0.321 OA
HETATM   21  C18 UNK     1      35.816  -8.132  32.111  1.00  0.00     0.038 A 
HETATM   22  C14 UNK     1      32.697  -7.083  33.599  1.00  0.00     0.154 A 
HETATM   23  C21 UNK     1      36.576  -9.289  31.938  1.00  0.00     0.003 A 
HETATM   24  C20 UNK     1      36.121 -10.507  32.442  1.00  0.00     0.001 A 
ENDBRANCH   3  14
BRANCH   8  25
HETATM   25  C11 UNK     1      29.393  -8.786  32.826  1.00  0.00     0.255 C 
HETATM   26  O3  UNK     1      28.967  -9.897  33.131  1.00  0.00    -0.268 OA
HETATM   27  N2  UNK     1      29.660  -8.283  31.563  1.00  0.00    -0.323 N 
HETATM   28  H13 UNK     1      30.003  -7.326  31.497  1.00  0.00     0.169 HD
BRANCH  27  29
HETATM   29  C19 UNK     1      29.499  -8.944  30.321  1.00  0.00     0.035 A 
HETATM   30  C22 UNK     1      30.617  -9.416  29.654  1.00  0.00     0.029 A 
HETATM   31  C24 UNK     1      30.457 -10.068  28.431  1.00  0.00     0.002 A 
HETATM   32  C26 UNK     1      29.182 -10.239  27.894  1.00  0.00     0.000 A 
HETATM   33  C25 UNK     1      28.065  -9.757  28.578  1.00  0.00     0.002 A 
HETATM   34  C23 UNK     1      28.225  -9.105  29.801  1.00  0.00     0.029 A 
ENDBRANCH  27  29
ENDBRANCH   8  25
TORSDOF 3
ENDMDL
MODEL 10
REMARK VINA RESULT:      -8.4     32.640     35.124
REMARK  3 active torsions:
REMARK  status: ('A' for Active; 'I' for Inactive)
REMARK       I    between atoms: C11_17  and  N2_6 
REMARK    1  A    between atoms: C19_25  and  N2_6 
REMARK    2  A    between atoms: C1_7  and  C10_16 
REMARK    3  A    between atoms: C11_17  and  C6_12 
ROOT
HETATM    1  O1  UNK     1      14.418  12.309   9.527  1.00  0.00    -0.293 OA
HETATM    2  N1  UNK     1      16.410   8.024   9.891  1.00  0.00    -0.362 N 
HETATM    3  C1  UNK     1      13.972   9.476   9.842  1.00  0.00     0.104 C 
HETATM    4  C2  UNK     1      15.346  10.135   9.762  1.00  0.00     0.024 C 
HETATM    5  C3  UNK     1      16.478   9.400   9.806  1.00  0.00     0.020 C 
HETATM    6  C4  UNK     1      17.858  10.000   9.723  1.00  0.00     0.058 C 
HETATM    7  C5  UNK     1      17.854  11.377   9.072  1.00  0.00     0.014 C 
HETATM    8  C6  UNK     1      14.047   7.949   9.782  1.00  0.00     0.045 C 
HETATM    9  C7  UNK     1      16.799  12.271   9.697  1.00  0.00     0.084 C 
HETATM   10  C8  UNK     1      15.434  11.624   9.632  1.00  0.00     0.158 C 
HETATM   11  C9  UNK     1      15.231   7.297   9.836  1.00  0.00     0.018 C 
HETATM   12  C13 UNK     1      15.405   5.803   9.835  1.00  0.00     0.069 C 
HETATM   13  H8  UNK     1      17.282   7.507   9.923  1.00  0.00     0.165 HD
ENDROOT
BRANCH   3  14
HETATM   14  C10 UNK     1      13.251   9.908  11.090  1.00  0.00     0.029 A 
HETATM   15  C12 UNK     1      11.866  10.427  10.966  1.00  0.00     0.194 A 
HETATM   16  O4  UNK     1      11.298  10.513   9.885  1.00  0.00    -0.287 OA
HETATM   17  C15 UNK     1      11.206  10.838  12.219  1.00  0.00     0.048 A 
HETATM   18  C16 UNK     1      11.902  10.718  13.422  1.00  0.00     0.089 A 
HETATM   19  C17 UNK     1       9.902  11.341  12.206  1.00  0.00     0.018 A 
HETATM   20  O2  UNK     1      13.183  10.232  13.492  1.00  0.00    -0.321 OA
HETATM   21  C18 UNK     1      11.297  11.100  14.620  1.00  0.00     0.038 A 
HETATM   22  C14 UNK     1      13.785   9.854  12.318  1.00  0.00     0.154 A 
HETATM   23  C21 UNK     1       9.996  11.602  14.610  1.00  0.00     0.003 A 
HETATM   24  C20 UNK     1       9.300  11.721  13.407  1.00  0.00     0.001 A 
ENDBRANCH   3  14
BRANCH   8  25
HETATM   25  C11 UNK     1      12.773   7.233   9.608  1.00  0.00     0.255 C 
HETATM   26  O3  UNK     1      12.451   6.365  10.415  1.00  0.00    -0.268 OA
HETATM   27  N2  UNK     1      12.080   7.668   8.489  1.00  0.00    -0.323 N 
HETATM   28  H13 UNK     1      12.498   8.413   7.934  1.00  0.00     0.169 HD
BRANCH  27  29
HETATM   29  C19 UNK     1      10.827   7.206   8.018  1.00  0.00     0.035 A 
HETATM   30  C22 UNK     1       9.694   7.423   8.785  1.00  0.00     0.029 A 
HETATM   31  C24 UNK     1       8.460   6.968   8.320  1.00  0.00     0.002 A 
HETATM   32  C26 UNK     1       8.377   6.306   7.096  1.00  0.00     0.000 A 
HETATM   33  C25 UNK     1       9.528   6.097   6.335  1.00  0.00     0.002 A 
HETATM   34  C23 UNK     1      10.762   6.551   6.800  1.00  0.00     0.029 A 
ENDBRANCH  27  29
ENDBRANCH   8  25
TORSDOF 3
ENDMDL
