MODEL 1
REMARK VINA RESULT:      -9.7      0.000      0.000
REMARK  2 active torsions:
REMARK  status: ('A' for Active; 'I' for Inactive)
REMARK    1  A    between atoms: C16_24  and  O4_4 
REMARK    2  A    between atoms: C17_25  and  N2_7 
ROOT
HETATM    1  O1  UNK     1      29.375 -10.484  31.693  1.00  0.00    -0.291 OA
HETATM    2  O2  UNK     1      27.972  -9.774  35.538  1.00  0.00    -0.271 OA
HETATM    3  O3  UNK     1      31.716 -12.362  34.599  1.00  0.00    -0.274 OA
HETATM    4  O5  UNK     1      31.486 -10.582  35.987  1.00  0.00    -0.259 OA
HETATM    5  N1  UNK     1      29.501  -8.141  36.305  1.00  0.00    -0.302 N 
HETATM    6  N3  UNK     1      27.830  -6.189  33.195  1.00  0.00    -0.191 NA
HETATM    7  C1  UNK     1      29.854  -9.020  34.113  1.00  0.00     0.147 A 
HETATM    8  C2  UNK     1      29.016  -7.804  37.657  1.00  0.00     0.052 A 
HETATM    9  C3  UNK     1      30.643  -7.533  35.778  1.00  0.00     0.057 A 
HETATM   10  C4  UNK     1      30.915  -8.014  34.500  1.00  0.00     0.001 A 
HETATM   11  C5  UNK     1      28.957  -9.065  35.393  1.00  0.00     0.249 A 
HETATM   12  C6  UNK     1      31.417  -6.590  36.429  1.00  0.00    -0.000 A 
HETATM   13  C7  UNK     1      30.405 -10.415  33.860  1.00  0.00     0.080 A 
HETATM   14  C8  UNK     1      29.908  -6.748  38.315  1.00  0.00     0.011 A 
HETATM   15  C9  UNK     1      28.973  -8.508  32.974  1.00  0.00     0.100 A 
HETATM   16  C10 UNK     1      31.006  -6.180  37.779  1.00  0.00    -0.051 A 
HETATM   17  C11 UNK     1      27.588  -7.238  37.576  1.00  0.00     0.043 C 
HETATM   18  C12 UNK     1      29.029  -9.060  38.544  1.00  0.00     0.043 C 
HETATM   19  C13 UNK     1      32.014  -7.547  33.806  1.00  0.00     0.048 A 
HETATM   20  C14 UNK     1      30.143 -11.040  32.700  1.00  0.00     0.105 A 
HETATM   21  C15 UNK     1      32.529  -6.116  35.726  1.00  0.00     0.051 A 
HETATM   22  C16 UNK     1      32.823  -6.590  34.429  1.00  0.00     0.069 A 
HETATM   23  C17 UNK     1      28.782  -9.238  31.852  1.00  0.00     0.160 A 
HETATM   24  C18 UNK     1      31.231 -11.094  34.902  1.00  0.00     0.299 A 
HETATM   25  C19 UNK     1      31.812  -5.153  38.515  1.00  0.00     0.049 C 
HETATM   26  C20 UNK     1      30.662 -12.377  32.413  1.00  0.00     0.033 A 
HETATM   27  C21 UNK     1      28.341  -7.225  33.097  1.00  0.00     0.101 C 
HETATM   28  C22 UNK     1      31.440 -13.001  33.378  1.00  0.00     0.092 A 
HETATM   29  C23 UNK     1      30.421 -13.063  31.217  1.00  0.00     0.017 A 
HETATM   30  C24 UNK     1      31.979 -14.275  33.190  1.00  0.00     0.038 A 
HETATM   31  C25 UNK     1      30.952 -14.340  31.011  1.00  0.00     0.001 A 
HETATM   32  C27 UNK     1      31.731 -14.945  31.996  1.00  0.00     0.003 A 
ENDROOT
BRANCH  23  33
HETATM   33  N2  UNK     1      28.018  -8.857  30.783  1.00  0.00    -0.379 N 
HETATM   34  H13 UNK     1      28.271  -9.123  29.840  1.00  0.00     0.158 HD
HETATM   35  H14 UNK     1      27.190  -8.300  30.949  1.00  0.00     0.158 HD
ENDBRANCH  23  33
BRANCH  22  36
HETATM   36  O4  UNK     1      33.916  -6.107  33.772  1.00  0.00    -0.356 OA
HETATM   37  C26 UNK     1      34.774  -5.233  34.502  1.00  0.00     0.210 C 
ENDBRANCH  22  36
TORSDOF 2
ENDMDL
MODEL 2
REMARK VINA RESULT:      -9.7      2.500      5.000
REMARK  2 active torsions:
REMARK  status: ('A' for Active; 'I' for Inactive)
REMARK    1  A    between atoms: C16_24  and  O4_4 
REMARK    2  A    between atoms: C17_25  and  N2_7 
ROOT
HETATM    1  O1  UNK     1      30.625 -10.657  33.198  1.00  0.00    -0.291 OA
HETATM    2  O2  UNK     1      32.840  -7.477  34.695  1.00  0.00    -0.271 OA
HETATM    3  O3  UNK     1      29.480  -7.008  31.519  1.00  0.00    -0.274 OA
HETATM    4  O5  UNK     1      29.756  -5.962  33.513  1.00  0.00    -0.259 OA
HETATM    5  N1  UNK     1      31.307  -6.508  36.215  1.00  0.00    -0.302 N 
HETATM    6  N3  UNK     1      31.750 -10.171  37.845  1.00  0.00    -0.191 NA
HETATM    7  C1  UNK     1      30.551  -8.391  34.956  1.00  0.00     0.147 A 
HETATM    8  C2  UNK     1      32.063  -5.398  36.825  1.00  0.00     0.052 A 
HETATM    9  C3  UNK     1      29.981  -6.759  36.573  1.00  0.00     0.057 A 
HETATM   10  C4  UNK     1      29.472  -7.842  35.862  1.00  0.00     0.001 A 
HETATM   11  C5  UNK     1      31.744  -7.421  35.236  1.00  0.00     0.249 A 
HETATM   12  C6  UNK     1      29.254  -6.032  37.498  1.00  0.00    -0.000 A 
HETATM   13  C7  UNK     1      30.200  -8.312  33.478  1.00  0.00     0.080 A 
HETATM   14  C8  UNK     1      31.206  -4.644  37.846  1.00  0.00     0.011 A 
HETATM   15  C9  UNK     1      31.003  -9.785  35.390  1.00  0.00     0.100 A 
HETATM   16  C10 UNK     1      29.926  -4.912  38.170  1.00  0.00    -0.051 A 
HETATM   17  C11 UNK     1      33.301  -5.945  37.554  1.00  0.00     0.043 C 
HETATM   18  C12 UNK     1      32.497  -4.402  35.737  1.00  0.00     0.043 C 
HETATM   19  C13 UNK     1      28.166  -8.247  36.062  1.00  0.00     0.048 A 
HETATM   20  C14 UNK     1      30.253  -9.416  32.715  1.00  0.00     0.105 A 
HETATM   21  C15 UNK     1      27.932  -6.443  37.702  1.00  0.00     0.051 A 
HETATM   22  C16 UNK     1      27.397  -7.538  36.991  1.00  0.00     0.069 A 
HETATM   23  C17 UNK     1      31.017 -10.821  34.521  1.00  0.00     0.160 A 
HETATM   24  C18 UNK     1      29.803  -7.006  32.872  1.00  0.00     0.299 A 
HETATM   25  C19 UNK     1      29.176  -4.104  39.187  1.00  0.00     0.049 C 
HETATM   26  C20 UNK     1      29.914  -9.385  31.293  1.00  0.00     0.033 A 
HETATM   27  C21 UNK     1      31.416  -9.998  36.748  1.00  0.00     0.101 C 
HETATM   28  C22 UNK     1      29.533  -8.172  30.734  1.00  0.00     0.092 A 
HETATM   29  C23 UNK     1      29.949 -10.511  30.461  1.00  0.00     0.017 A 
HETATM   30  C24 UNK     1      29.190  -8.048  29.387  1.00  0.00     0.038 A 
HETATM   31  C25 UNK     1      29.608 -10.405  29.109  1.00  0.00     0.001 A 
HETATM   32  C27 UNK     1      29.229  -9.176  28.572  1.00  0.00     0.003 A 
ENDROOT
BRANCH  23  33
HETATM   33  N2  UNK     1      31.399 -12.099  34.823  1.00  0.00    -0.379 N 
HETATM   34  H13 UNK     1      32.296 -12.289  35.250  1.00  0.00     0.158 HD
HETATM   35  H14 UNK     1      30.766 -12.860  34.612  1.00  0.00     0.158 HD
ENDBRANCH  23  33
BRANCH  22  36
HETATM   36  O4  UNK     1      26.104  -7.912  37.214  1.00  0.00    -0.356 OA
HETATM   37  C26 UNK     1      25.706  -8.081  38.572  1.00  0.00     0.210 C 
ENDBRANCH  22  36
TORSDOF 2
ENDMDL
MODEL 3
REMARK VINA RESULT:      -9.7      3.188      6.654
REMARK  2 active torsions:
REMARK  status: ('A' for Active; 'I' for Inactive)
REMARK    1  A    between atoms: C16_24  and  O4_4 
REMARK    2  A    between atoms: C17_25  and  N2_7 
ROOT
HETATM    1  O1  UNK     1      30.545  -5.672  37.389  1.00  0.00    -0.291 OA
HETATM    2  O2  UNK     1      33.647  -7.981  35.871  1.00  0.00    -0.271 OA
HETATM    3  O3  UNK     1      29.254  -9.460  36.195  1.00  0.00    -0.274 OA
HETATM    4  O5  UNK     1      30.646  -9.412  34.405  1.00  0.00    -0.259 OA
HETATM    5  N1  UNK     1      33.249  -7.835  33.544  1.00  0.00    -0.302 N 
HETATM    6  N3  UNK     1      33.916  -3.955  34.425  1.00  0.00    -0.191 NA
HETATM    7  C1  UNK     1      31.697  -6.734  34.986  1.00  0.00     0.147 A 
HETATM    8  C2  UNK     1      34.361  -8.596  32.943  1.00  0.00     0.052 A 
HETATM    9  C3  UNK     1      32.264  -7.249  32.745  1.00  0.00     0.057 A 
HETATM   10  C4  UNK     1      31.315  -6.598  33.529  1.00  0.00     0.001 A 
HETATM   11  C5  UNK     1      32.995  -7.601  34.909  1.00  0.00     0.249 A 
HETATM   12  C6  UNK     1      32.217  -7.308  31.365  1.00  0.00    -0.000 A 
HETATM   13  C7  UNK     1      30.665  -7.480  35.816  1.00  0.00     0.080 A 
HETATM   14  C8  UNK     1      34.256  -8.611  31.416  1.00  0.00     0.011 A 
HETATM   15  C9  UNK     1      32.098  -5.390  35.596  1.00  0.00     0.100 A 
HETATM   16  C10 UNK     1      33.291  -8.034  30.673  1.00  0.00    -0.051 A 
HETATM   17  C11 UNK     1      35.704  -7.948  33.322  1.00  0.00     0.043 C 
HETATM   18  C12 UNK     1      34.327 -10.050  33.439  1.00  0.00     0.043 C 
HETATM   19  C13 UNK     1      30.246  -5.960  32.930  1.00  0.00     0.048 A 
HETATM   20  C14 UNK     1      30.164  -6.919  36.930  1.00  0.00     0.105 A 
HETATM   21  C15 UNK     1      31.135  -6.661  30.758  1.00  0.00     0.051 A 
HETATM   22  C16 UNK     1      30.162  -5.995  31.534  1.00  0.00     0.069 A 
HETATM   23  C17 UNK     1      31.521  -4.935  36.731  1.00  0.00     0.160 A 
HETATM   24  C18 UNK     1      30.211  -8.840  35.399  1.00  0.00     0.299 A 
HETATM   25  C19 UNK     1      33.283  -8.113  29.177  1.00  0.00     0.049 C 
HETATM   26  C20 UNK     1      29.164  -7.599  37.750  1.00  0.00     0.033 A 
HETATM   27  C21 UNK     1      33.104  -4.597  34.948  1.00  0.00     0.101 C 
HETATM   28  C22 UNK     1      28.734  -8.859  37.354  1.00  0.00     0.092 A 
HETATM   29  C23 UNK     1      28.610  -7.051  38.914  1.00  0.00     0.017 A 
HETATM   30  C24 UNK     1      27.781  -9.580  38.074  1.00  0.00     0.038 A 
HETATM   31  C25 UNK     1      27.654  -7.760  39.648  1.00  0.00     0.001 A 
HETATM   32  C27 UNK     1      27.240  -9.023  39.228  1.00  0.00     0.003 A 
ENDROOT
BRANCH  23  33
HETATM   33  N2  UNK     1      31.813  -3.746  37.342  1.00  0.00    -0.379 N 
HETATM   34  H13 UNK     1      31.949  -2.901  36.802  1.00  0.00     0.158 HD
HETATM   35  H14 UNK     1      31.891  -3.723  38.350  1.00  0.00     0.158 HD
ENDBRANCH  23  33
BRANCH  22  36
HETATM   36  O4  UNK     1      29.119  -5.375  30.909  1.00  0.00    -0.356 OA
HETATM   37  C26 UNK     1      28.057  -6.205  30.448  1.00  0.00     0.210 C 
ENDBRANCH  22  36
TORSDOF 2
ENDMDL
MODEL 4
REMARK VINA RESULT:      -9.4      2.616      7.155
REMARK  2 active torsions:
REMARK  status: ('A' for Active; 'I' for Inactive)
REMARK    1  A    between atoms: C16_24  and  O4_4 
REMARK    2  A    between atoms: C17_25  and  N2_7 
ROOT
HETATM    1  O1  UNK     1      32.398  -5.190  35.641  1.00  0.00    -0.291 OA
HETATM    2  O2  UNK     1      32.914  -9.295  35.257  1.00  0.00    -0.271 OA
HETATM    3  O3  UNK     1      28.915  -7.310  36.547  1.00  0.00    -0.274 OA
HETATM    4  O5  UNK     1      29.335  -8.788  34.878  1.00  0.00    -0.259 OA
HETATM    5  N1  UNK     1      31.844  -9.714  33.189  1.00  0.00    -0.302 N 
HETATM    6  N3  UNK     1      34.793  -7.228  32.006  1.00  0.00    -0.191 NA
HETATM    7  C1  UNK     1      31.806  -7.468  34.001  1.00  0.00     0.147 A 
HETATM    8  C2  UNK     1      32.045 -11.158  32.969  1.00  0.00     0.052 A 
HETATM    9  C3  UNK     1      31.132  -8.938  32.271  1.00  0.00     0.057 A 
HETATM   10  C4  UNK     1      31.060  -7.613  32.692  1.00  0.00     0.001 A 
HETATM   11  C5  UNK     1      32.280  -8.932  34.276  1.00  0.00     0.249 A 
HETATM   12  C6  UNK     1      30.561  -9.409  31.103  1.00  0.00    -0.000 A 
HETATM   13  C7  UNK     1      30.923  -7.020  35.154  1.00  0.00     0.080 A 
HETATM   14  C8  UNK     1      31.400 -11.611  31.656  1.00  0.00     0.011 A 
HETATM   15  C9  UNK     1      33.066  -6.617  33.845  1.00  0.00     0.100 A 
HETATM   16  C10 UNK     1      30.719 -10.836  30.790  1.00  0.00    -0.051 A 
HETATM   17  C11 UNK     1      33.549 -11.473  32.894  1.00  0.00     0.043 C 
HETATM   18  C12 UNK     1      31.404 -11.956  34.116  1.00  0.00     0.043 C 
HETATM   19  C13 UNK     1      30.386  -6.682  31.927  1.00  0.00     0.048 A 
HETATM   20  C14 UNK     1      31.260  -5.940  35.879  1.00  0.00     0.105 A 
HETATM   21  C15 UNK     1      29.879  -8.465  30.328  1.00  0.00     0.051 A 
HETATM   22  C16 UNK     1      29.794  -7.117  30.737  1.00  0.00     0.069 A 
HETATM   23  C17 UNK     1      33.296  -5.551  34.644  1.00  0.00     0.160 A 
HETATM   24  C18 UNK     1      29.684  -7.783  35.489  1.00  0.00     0.299 A 
HETATM   25  C19 UNK     1      30.122 -11.385  29.529  1.00  0.00     0.049 C 
HETATM   26  C20 UNK     1      30.434  -5.471  36.990  1.00  0.00     0.033 A 
HETATM   27  C21 UNK     1      34.021  -6.955  32.828  1.00  0.00     0.101 C 
HETATM   28  C22 UNK     1      29.276  -6.175  37.292  1.00  0.00     0.092 A 
HETATM   29  C23 UNK     1      30.742  -4.347  37.767  1.00  0.00     0.017 A 
HETATM   30  C24 UNK     1      28.426  -5.798  38.332  1.00  0.00     0.038 A 
HETATM   31  C25 UNK     1      29.903  -3.955  38.814  1.00  0.00     0.001 A 
HETATM   32  C27 UNK     1      28.746  -4.680  39.096  1.00  0.00     0.003 A 
ENDROOT
BRANCH  23  33
HETATM   33  N2  UNK     1      34.390  -4.732  34.573  1.00  0.00    -0.379 N 
HETATM   34  H13 UNK     1      34.606  -4.084  35.319  1.00  0.00     0.158 HD
HETATM   35  H14 UNK     1      34.985  -4.784  33.756  1.00  0.00     0.158 HD
ENDBRANCH  23  33
BRANCH  22  36
HETATM   36  O4  UNK     1      29.121  -6.223  29.957  1.00  0.00    -0.356 OA
HETATM   37  C26 UNK     1      27.700  -6.206  30.073  1.00  0.00     0.210 C 
ENDBRANCH  22  36
TORSDOF 2
ENDMDL
MODEL 5
REMARK VINA RESULT:      -9.4      2.189      5.699
REMARK  2 active torsions:
REMARK  status: ('A' for Active; 'I' for Inactive)
REMARK    1  A    between atoms: C16_24  and  O4_4 
REMARK    2  A    between atoms: C17_25  and  N2_7 
ROOT
HETATM    1  O1  UNK     1      28.054  -7.431  35.669  1.00  0.00    -0.291 OA
HETATM    2  O2  UNK     1      31.589  -5.425  36.528  1.00  0.00    -0.271 OA
HETATM    3  O3  UNK     1      30.347  -9.430  38.531  1.00  0.00    -0.274 OA
HETATM    4  O5  UNK     1      32.258  -8.878  37.440  1.00  0.00    -0.259 OA
HETATM    5  N1  UNK     1      33.167  -6.711  35.324  1.00  0.00    -0.302 N 
HETATM    6  N3  UNK     1      30.827  -5.398  32.311  1.00  0.00    -0.191 NA
HETATM    7  C1  UNK     1      30.895  -7.445  35.272  1.00  0.00     0.147 A 
HETATM    8  C2  UNK     1      34.445  -6.008  35.546  1.00  0.00     0.052 A 
HETATM    9  C3  UNK     1      33.111  -7.876  34.556  1.00  0.00     0.057 A 
HETATM   10  C4  UNK     1      31.809  -8.367  34.496  1.00  0.00     0.001 A 
HETATM   11  C5  UNK     1      31.892  -6.372  35.817  1.00  0.00     0.249 A 
HETATM   12  C6  UNK     1      34.193  -8.480  33.943  1.00  0.00    -0.000 A 
HETATM   13  C7  UNK     1      30.216  -8.118  36.453  1.00  0.00     0.080 A 
HETATM   14  C8  UNK     1      35.597  -6.720  34.831  1.00  0.00     0.011 A 
HETATM   15  C9  UNK     1      29.915  -6.713  34.354  1.00  0.00     0.100 A 
HETATM   16  C10 UNK     1      35.509  -7.846  34.096  1.00  0.00    -0.051 A 
HETATM   17  C11 UNK     1      34.357  -4.574  34.997  1.00  0.00     0.043 C 
HETATM   18  C12 UNK     1      34.765  -5.971  37.049  1.00  0.00     0.043 C 
HETATM   19  C13 UNK     1      31.540  -9.525  33.791  1.00  0.00     0.048 A 
HETATM   20  C14 UNK     1      28.878  -8.075  36.574  1.00  0.00     0.105 A 
HETATM   21  C15 UNK     1      33.920  -9.651  33.228  1.00  0.00     0.051 A 
HETATM   22  C16 UNK     1      32.608 -10.166  33.155  1.00  0.00     0.069 A 
HETATM   23  C17 UNK     1      28.584  -6.741  34.586  1.00  0.00     0.160 A 
HETATM   24  C18 UNK     1      31.034  -8.823  37.485  1.00  0.00     0.299 A 
HETATM   25  C19 UNK     1      36.707  -8.463  33.439  1.00  0.00     0.049 C 
HETATM   26  C20 UNK     1      28.185  -8.718  37.689  1.00  0.00     0.033 A 
HETATM   27  C21 UNK     1      30.420  -5.986  33.225  1.00  0.00     0.101 C 
HETATM   28  C22 UNK     1      28.947  -9.383  38.641  1.00  0.00     0.092 A 
HETATM   29  C23 UNK     1      26.795  -8.705  37.852  1.00  0.00     0.017 A 
HETATM   30  C24 UNK     1      28.372 -10.027  39.737  1.00  0.00     0.038 A 
HETATM   31  C25 UNK     1      26.201  -9.344  38.944  1.00  0.00     0.001 A 
HETATM   32  C27 UNK     1      26.988 -10.005  39.886  1.00  0.00     0.003 A 
ENDROOT
BRANCH  23  33
HETATM   33  N2  UNK     1      27.636  -6.122  33.817  1.00  0.00    -0.379 N 
HETATM   34  H13 UNK     1      27.462  -6.417  32.865  1.00  0.00     0.158 HD
HETATM   35  H14 UNK     1      27.107  -5.358  34.217  1.00  0.00     0.158 HD
ENDBRANCH  23  33
BRANCH  22  36
HETATM   36  O4  UNK     1      32.378 -11.311  32.450  1.00  0.00    -0.356 OA
HETATM   37  C26 UNK     1      31.113 -11.942  32.637  1.00  0.00     0.210 C 
ENDBRANCH  22  36
TORSDOF 2
ENDMDL
MODEL 6
REMARK VINA RESULT:      -9.2      3.236      7.202
REMARK  2 active torsions:
REMARK  status: ('A' for Active; 'I' for Inactive)
REMARK    1  A    between atoms: C16_24  and  O4_4 
REMARK    2  A    between atoms: C17_25  and  N2_7 
ROOT
HETATM    1  O1  UNK     1      34.721  -6.675  33.523  1.00  0.00    -0.291 OA
HETATM    2  O2  UNK     1      33.582 -10.489  32.337  1.00  0.00    -0.271 OA
HETATM    3  O3  UNK     1      31.407  -8.064  35.651  1.00  0.00    -0.274 OA
HETATM    4  O5  UNK     1      30.575  -9.050  33.785  1.00  0.00    -0.259 OA
HETATM    5  N1  UNK     1      31.693 -10.021  30.990  1.00  0.00    -0.302 N 
HETATM    6  N3  UNK     1      34.572  -8.084  28.931  1.00  0.00    -0.191 NA
HETATM    7  C1  UNK     1      32.768  -8.167  32.045  1.00  0.00     0.147 A 
HETATM    8  C2  UNK     1      31.275 -11.344  30.490  1.00  0.00     0.052 A 
HETATM    9  C3  UNK     1      30.988  -8.865  30.647  1.00  0.00     0.057 A 
HETATM   10  C4  UNK     1      31.557  -7.743  31.243  1.00  0.00     0.001 A 
HETATM   11  C5  UNK     1      32.773  -9.717  31.841  1.00  0.00     0.249 A 
HETATM   12  C6  UNK     1      29.869  -8.825  29.837  1.00  0.00    -0.000 A 
HETATM   13  C7  UNK     1      32.643  -7.874  33.531  1.00  0.00     0.080 A 
HETATM   14  C8  UNK     1      30.041 -11.228  29.591  1.00  0.00     0.011 A 
HETATM   15  C9  UNK     1      34.066  -7.637  31.436  1.00  0.00     0.100 A 
HETATM   16  C10 UNK     1      29.382 -10.094  29.278  1.00  0.00    -0.051 A 
HETATM   17  C11 UNK     1      32.408 -11.975  29.663  1.00  0.00     0.043 C 
HETATM   18  C12 UNK     1      30.921 -12.261  31.672  1.00  0.00     0.043 C 
HETATM   19  C13 UNK     1      30.999  -6.496  31.038  1.00  0.00     0.048 A 
HETATM   20  C14 UNK     1      33.596  -7.164  34.159  1.00  0.00     0.105 A 
HETATM   21  C15 UNK     1      29.305  -7.562  29.628  1.00  0.00     0.051 A 
HETATM   22  C16 UNK     1      29.866  -6.412  30.223  1.00  0.00     0.069 A 
HETATM   23  C17 UNK     1      34.953  -6.936  32.178  1.00  0.00     0.160 A 
HETATM   24  C18 UNK     1      31.465  -8.380  34.298  1.00  0.00     0.299 A 
HETATM   25  C19 UNK     1      28.176 -10.094  28.387  1.00  0.00     0.049 C 
HETATM   26  C20 UNK     1      33.509  -6.853  35.585  1.00  0.00     0.033 A 
HETATM   27  C21 UNK     1      34.345  -7.885  30.051  1.00  0.00     0.101 C 
HETATM   28  C22 UNK     1      32.407  -7.315  36.293  1.00  0.00     0.092 A 
HETATM   29  C23 UNK     1      34.474  -6.112  36.279  1.00  0.00     0.017 A 
HETATM   30  C24 UNK     1      32.240  -7.063  37.655  1.00  0.00     0.038 A 
HETATM   31  C25 UNK     1      34.322  -5.851  37.644  1.00  0.00     0.001 A 
HETATM   32  C27 UNK     1      33.207  -6.326  38.331  1.00  0.00     0.003 A 
ENDROOT
BRANCH  23  33
HETATM   33  N2  UNK     1      36.133  -6.420  31.717  1.00  0.00    -0.379 N 
HETATM   34  H13 UNK     1      36.180  -5.937  30.829  1.00  0.00     0.158 HD
HETATM   35  H14 UNK     1      36.966  -6.528  32.281  1.00  0.00     0.158 HD
ENDBRANCH  23  33
BRANCH  22  36
HETATM   36  O4  UNK     1      29.290  -5.196  29.999  1.00  0.00    -0.356 OA
HETATM   37  C26 UNK     1      29.892  -4.069  30.631  1.00  0.00     0.210 C 
ENDBRANCH  22  36
TORSDOF 2
ENDMDL
MODEL 7
REMARK VINA RESULT:      -9.2      2.690      5.930
REMARK  2 active torsions:
REMARK  status: ('A' for Active; 'I' for Inactive)
REMARK    1  A    between atoms: C16_24  and  O4_4 
REMARK    2  A    between atoms: C17_25  and  N2_7 
ROOT
HETATM    1  O1  UNK     1      30.387 -10.030  36.445  1.00  0.00    -0.291 OA
HETATM    2  O2  UNK     1      28.348  -9.416  32.878  1.00  0.00    -0.271 OA
HETATM    3  O3  UNK     1      27.195  -7.372  36.889  1.00  0.00    -0.274 OA
HETATM    4  O5  UNK     1      27.626  -6.456  34.860  1.00  0.00    -0.259 OA
HETATM    5  N1  UNK     1      29.165  -7.293  32.226  1.00  0.00    -0.302 N 
HETATM    6  N3  UNK     1      32.581  -9.439  32.210  1.00  0.00    -0.191 NA
HETATM    7  C1  UNK     1      29.944  -8.170  34.306  1.00  0.00     0.147 A 
HETATM    8  C2  UNK     1      28.514  -7.044  30.926  1.00  0.00     0.052 A 
HETATM    9  C3  UNK     1      30.027  -6.351  32.792  1.00  0.00     0.057 A 
HETATM   10  C4  UNK     1      30.510  -6.796  34.020  1.00  0.00     0.001 A 
HETATM   11  C5  UNK     1      29.031  -8.418  33.063  1.00  0.00     0.249 A 
HETATM   12  C6  UNK     1      30.358  -5.133  32.228  1.00  0.00    -0.000 A 
HETATM   13  C7  UNK     1      29.082  -8.221  35.557  1.00  0.00     0.080 A 
HETATM   14  C8  UNK     1      28.932  -5.688  30.352  1.00  0.00     0.011 A 
HETATM   15  C9  UNK     1      31.029  -9.247  34.281  1.00  0.00     0.100 A 
HETATM   16  C10 UNK     1      29.768  -4.799  30.924  1.00  0.00    -0.051 A 
HETATM   17  C11 UNK     1      28.921  -8.133  29.919  1.00  0.00     0.043 C 
HETATM   18  C12 UNK     1      26.987  -7.040  31.099  1.00  0.00     0.043 C 
HETATM   19  C13 UNK     1      31.372  -6.003  34.751  1.00  0.00     0.048 A 
HETATM   20  C14 UNK     1      29.350  -9.117  36.522  1.00  0.00     0.105 A 
HETATM   21  C15 UNK     1      31.232  -4.330  32.967  1.00  0.00     0.051 A 
HETATM   22  C16 UNK     1      31.733  -4.762  34.215  1.00  0.00     0.069 A 
HETATM   23  C17 UNK     1      31.196 -10.098  35.318  1.00  0.00     0.160 A 
HETATM   24  C18 UNK     1      27.932  -7.281  35.714  1.00  0.00     0.299 A 
HETATM   25  C19 UNK     1      30.108  -3.492  30.273  1.00  0.00     0.049 C 
HETATM   26  C20 UNK     1      28.552  -9.193  37.745  1.00  0.00     0.033 A 
HETATM   27  C21 UNK     1      31.887  -9.353  33.136  1.00  0.00     0.101 C 
HETATM   28  C22 UNK     1      27.491  -8.310  37.893  1.00  0.00     0.092 A 
HETATM   29  C23 UNK     1      28.798 -10.105  38.778  1.00  0.00     0.017 A 
HETATM   30  C24 UNK     1      26.677  -8.309  39.027  1.00  0.00     0.038 A 
HETATM   31  C25 UNK     1      27.993 -10.118  39.921  1.00  0.00     0.001 A 
HETATM   32  C27 UNK     1      26.934  -9.221  40.046  1.00  0.00     0.003 A 
ENDROOT
BRANCH  23  33
HETATM   33  N2  UNK     1      32.141 -11.085  35.384  1.00  0.00    -0.379 N 
HETATM   34  H13 UNK     1      33.084 -10.928  35.051  1.00  0.00     0.158 HD
HETATM   35  H14 UNK     1      31.883 -11.982  35.774  1.00  0.00     0.158 HD
ENDBRANCH  23  33
BRANCH  22  36
HETATM   36  O4  UNK     1      32.583  -3.953  34.910  1.00  0.00    -0.356 OA
HETATM   37  C26 UNK     1      33.967  -4.295  34.882  1.00  0.00     0.210 C 
ENDBRANCH  22  36
TORSDOF 2
ENDMDL
MODEL 8
REMARK VINA RESULT:      -9.1      2.975      6.774
REMARK  2 active torsions:
REMARK  status: ('A' for Active; 'I' for Inactive)
REMARK    1  A    between atoms: C16_24  and  O4_4 
REMARK    2  A    between atoms: C17_25  and  N2_7 
ROOT
HETATM    1  O1  UNK     1      31.317  -6.175  36.918  1.00  0.00    -0.291 OA
HETATM    2  O2  UNK     1      32.743  -9.433  34.771  1.00  0.00    -0.271 OA
HETATM    3  O3  UNK     1      28.241  -8.713  35.675  1.00  0.00    -0.274 OA
HETATM    4  O5  UNK     1      29.290  -9.075  33.696  1.00  0.00    -0.259 OA
HETATM    5  N1  UNK     1      32.225  -8.799  32.551  1.00  0.00    -0.302 N 
HETATM    6  N3  UNK     1      34.769  -5.846  33.591  1.00  0.00    -0.191 NA
HETATM    7  C1  UNK     1      31.557  -7.310  34.294  1.00  0.00     0.147 A 
HETATM    8  C2  UNK     1      32.763  -9.900  31.731  1.00  0.00     0.052 A 
HETATM    9  C3  UNK     1      31.569  -7.716  31.961  1.00  0.00     0.057 A 
HETATM   10  C4  UNK     1      31.139  -6.811  32.929  1.00  0.00     0.001 A 
HETATM   11  C5  UNK     1      32.259  -8.663  33.952  1.00  0.00     0.249 A 
HETATM   12  C6  UNK     1      31.357  -7.555  30.605  1.00  0.00    -0.000 A 
HETATM   13  C7  UNK     1      30.385  -7.593  35.221  1.00  0.00     0.080 A 
HETATM   14  C8  UNK     1      32.506  -9.654  30.242  1.00  0.00     0.011 A 
HETATM   15  C9  UNK     1      32.617  -6.409  34.927  1.00  0.00     0.100 A 
HETATM   16  C10 UNK     1      31.868  -8.596  29.703  1.00  0.00    -0.051 A 
HETATM   17  C11 UNK     1      34.282 -10.016  31.939  1.00  0.00     0.043 C 
HETATM   18  C12 UNK     1      32.083 -11.223  32.121  1.00  0.00     0.043 C 
HETATM   19  C13 UNK     1      30.455  -5.672  32.552  1.00  0.00     0.048 A 
HETATM   20  C14 UNK     1      30.336  -7.022  36.436  1.00  0.00     0.105 A 
HETATM   21  C15 UNK     1      30.665  -6.401  30.223  1.00  0.00     0.051 A 
HETATM   22  C16 UNK     1      30.220  -5.471  31.187  1.00  0.00     0.069 A 
HETATM   23  C17 UNK     1      32.453  -5.898  36.168  1.00  0.00     0.160 A 
HETATM   24  C18 UNK     1      29.290  -8.510  34.784  1.00  0.00     0.299 A 
HETATM   25  C19 UNK     1      31.667  -8.455  28.224  1.00  0.00     0.049 C 
HETATM   26  C20 UNK     1      29.223  -7.261  37.353  1.00  0.00     0.033 A 
HETATM   27  C21 UNK     1      33.807  -6.098  34.188  1.00  0.00     0.101 C 
HETATM   28  C22 UNK     1      28.200  -8.105  36.941  1.00  0.00     0.092 A 
HETATM   29  C23 UNK     1      29.126  -6.684  38.626  1.00  0.00     0.017 A 
HETATM   30  C24 UNK     1      27.097  -8.387  37.748  1.00  0.00     0.038 A 
HETATM   31  C25 UNK     1      28.029  -6.956  39.448  1.00  0.00     0.001 A 
HETATM   32  C27 UNK     1      27.015  -7.807  39.010  1.00  0.00     0.003 A 
ENDROOT
BRANCH  23  33
HETATM   33  N2  UNK     1      33.344  -5.080  36.809  1.00  0.00    -0.379 N 
HETATM   34  H13 UNK     1      34.280  -4.946  36.450  1.00  0.00     0.158 HD
HETATM   35  H14 UNK     1      33.051  -4.608  37.655  1.00  0.00     0.158 HD
ENDBRANCH  23  33
BRANCH  22  36
HETATM   36  O4  UNK     1      29.548  -4.356  30.780  1.00  0.00    -0.356 OA
HETATM   37  C26 UNK     1      30.071  -3.098  31.198  1.00  0.00     0.210 C 
ENDBRANCH  22  36
TORSDOF 2
ENDMDL
MODEL 9
REMARK VINA RESULT:      -9.0      2.371      6.899
REMARK  2 active torsions:
REMARK  status: ('A' for Active; 'I' for Inactive)
REMARK    1  A    between atoms: C16_24  and  O4_4 
REMARK    2  A    between atoms: C17_25  and  N2_7 
ROOT
HETATM    1  O1  UNK     1      30.834  -6.840  35.990  1.00  0.00    -0.291 OA
HETATM    2  O2  UNK     1      31.835 -10.416  34.127  1.00  0.00    -0.271 OA
HETATM    3  O3  UNK     1      27.697  -9.597  36.077  1.00  0.00    -0.274 OA
HETATM    4  O5  UNK     1      28.206 -10.299  33.981  1.00  0.00    -0.259 OA
HETATM    5  N1  UNK     1      30.713 -10.199  32.055  1.00  0.00    -0.302 N 
HETATM    6  N3  UNK     1      33.260  -7.077  31.848  1.00  0.00    -0.191 NA
HETATM    7  C1  UNK     1      30.441  -8.428  33.633  1.00  0.00     0.147 A 
HETATM    8  C2  UNK     1      31.080 -11.424  31.321  1.00  0.00     0.052 A 
HETATM    9  C3  UNK     1      29.861  -9.249  31.489  1.00  0.00     0.057 A 
HETATM   10  C4  UNK     1      29.648  -8.189  32.367  1.00  0.00     0.001 A 
HETATM   11  C5  UNK     1      31.107  -9.813  33.351  1.00  0.00     0.249 A 
HETATM   12  C6  UNK     1      29.289  -9.338  30.234  1.00  0.00    -0.000 A 
HETATM   13  C7  UNK     1      29.574  -8.553  34.876  1.00  0.00     0.080 A 
HETATM   14  C8  UNK     1      30.425 -11.454  29.937  1.00  0.00     0.011 A 
HETATM   15  C9  UNK     1      31.575  -7.415  33.793  1.00  0.00     0.100 A 
HETATM   16  C10 UNK     1      29.606 -10.518  29.419  1.00  0.00    -0.051 A 
HETATM   17  C11 UNK     1      32.605 -11.482  31.126  1.00  0.00     0.043 C 
HETATM   18  C12 UNK     1      30.608 -12.662  32.100  1.00  0.00     0.043 C 
HETATM   19  C13 UNK     1      28.822  -7.145  32.001  1.00  0.00     0.048 A 
HETATM   20  C14 UNK     1      29.814  -7.772  35.944  1.00  0.00     0.105 A 
HETATM   21  C15 UNK     1      28.453  -8.279  29.862  1.00  0.00     0.051 A 
HETATM   22  C16 UNK     1      28.223  -7.196  30.737  1.00  0.00     0.069 A 
HETATM   23  C17 UNK     1      31.713  -6.690  34.925  1.00  0.00     0.160 A 
HETATM   24  C18 UNK     1      28.460  -9.546  34.915  1.00  0.00     0.299 A 
HETATM   25  C19 UNK     1      29.013 -10.649  28.048  1.00  0.00     0.049 C 
HETATM   26  C20 UNK     1      28.998  -7.854  37.155  1.00  0.00     0.033 A 
HETATM   27  C21 UNK     1      32.507  -7.229  32.717  1.00  0.00     0.101 C 
HETATM   28  C22 UNK     1      27.955  -8.771  37.184  1.00  0.00     0.092 A 
HETATM   29  C23 UNK     1      29.207  -7.058  38.287  1.00  0.00     0.017 A 
HETATM   30  C24 UNK     1      27.124  -8.916  38.296  1.00  0.00     0.038 A 
HETATM   31  C25 UNK     1      28.384  -7.190  39.410  1.00  0.00     0.001 A 
HETATM   32  C27 UNK     1      27.343  -8.118  39.414  1.00  0.00     0.003 A 
ENDROOT
BRANCH  23  33
HETATM   33  N2  UNK     1      32.691  -5.760  35.152  1.00  0.00    -0.379 N 
HETATM   34  H13 UNK     1      33.333  -5.856  35.928  1.00  0.00     0.158 HD
HETATM   35  H14 UNK     1      32.765  -4.968  34.527  1.00  0.00     0.158 HD
ENDBRANCH  23  33
BRANCH  22  36
HETATM   36  O4  UNK     1      27.402  -6.181  30.343  1.00  0.00    -0.356 OA
HETATM   37  C26 UNK     1      26.030  -6.505  30.131  1.00  0.00     0.210 C 
ENDBRANCH  22  36
TORSDOF 2
ENDMDL
MODEL 10
REMARK VINA RESULT:      -9.0      2.866      6.426
REMARK  2 active torsions:
REMARK  status: ('A' for Active; 'I' for Inactive)
REMARK    1  A    between atoms: C16_24  and  O4_4 
REMARK    2  A    between atoms: C17_25  and  N2_7 
ROOT
HETATM    1  O1  UNK     1      30.814 -10.469  36.204  1.00  0.00    -0.291 OA
HETATM    2  O2  UNK     1      29.968  -9.891  32.178  1.00  0.00    -0.271 OA
HETATM    3  O3  UNK     1      29.520  -6.579  35.406  1.00  0.00    -0.274 OA
HETATM    4  O5  UNK     1      30.666  -6.559  33.449  1.00  0.00    -0.259 OA
HETATM    5  N1  UNK     1      31.881  -8.698  31.460  1.00  0.00    -0.302 N 
HETATM    6  N3  UNK     1      33.573 -12.161  32.650  1.00  0.00    -0.191 NA
HETATM    7  C1  UNK     1      31.755  -9.265  33.776  1.00  0.00     0.147 A 
HETATM    8  C2  UNK     1      31.663  -8.511  30.013  1.00  0.00     0.052 A 
HETATM    9  C3  UNK     1      33.020  -8.189  32.088  1.00  0.00     0.057 A 
HETATM   10  C4  UNK     1      33.003  -8.475  33.451  1.00  0.00     0.001 A 
HETATM   11  C5  UNK     1      31.044  -9.349  32.387  1.00  0.00     0.249 A 
HETATM   12  C6  UNK     1      34.030  -7.486  31.459  1.00  0.00    -0.000 A 
HETATM   13  C7  UNK     1      30.828  -8.558  34.752  1.00  0.00     0.080 A 
HETATM   14  C8  UNK     1      32.820  -7.738  29.377  1.00  0.00     0.011 A 
HETATM   15  C9  UNK     1      32.083 -10.699  34.193  1.00  0.00     0.100 A 
HETATM   16  C10 UNK     1      33.909  -7.260  30.012  1.00  0.00    -0.051 A 
HETATM   17  C11 UNK     1      31.564  -9.879  29.317  1.00  0.00     0.043 C 
HETATM   18  C12 UNK     1      30.369  -7.714  29.778  1.00  0.00     0.043 C 
HETATM   19  C13 UNK     1      34.039  -8.047  34.258  1.00  0.00     0.048 A 
HETATM   20  C14 UNK     1      30.430  -9.183  35.874  1.00  0.00     0.105 A 
HETATM   21  C15 UNK     1      35.080  -7.054  32.276  1.00  0.00     0.051 A 
HETATM   22  C16 UNK     1      35.082  -7.332  33.660  1.00  0.00     0.069 A 
HETATM   23  C17 UNK     1      31.615 -11.217  35.350  1.00  0.00     0.160 A 
HETATM   24  C18 UNK     1      30.353  -7.172  34.464  1.00  0.00     0.299 A 
HETATM   25  C19 UNK     1      34.987  -6.510  29.289  1.00  0.00     0.049 C 
HETATM   26  C20 UNK     1      29.547  -8.535  36.842  1.00  0.00     0.033 A 
HETATM   27  C21 UNK     1      32.907 -11.507  33.339  1.00  0.00     0.101 C 
HETATM   28  C22 UNK     1      29.117  -7.241  36.578  1.00  0.00     0.092 A 
HETATM   29  C23 UNK     1      29.112  -9.144  38.026  1.00  0.00     0.017 A 
HETATM   30  C24 UNK     1      28.276  -6.545  37.447  1.00  0.00     0.038 A 
HETATM   31  C25 UNK     1      28.269  -8.461  38.908  1.00  0.00     0.001 A 
HETATM   32  C27 UNK     1      27.851  -7.163  38.619  1.00  0.00     0.003 A 
ENDROOT
BRANCH  23  33
HETATM   33  N2  UNK     1      31.862 -12.484  35.804  1.00  0.00    -0.379 N 
HETATM   34  H13 UNK     1      31.982 -13.255  35.160  1.00  0.00     0.158 HD
HETATM   35  H14 UNK     1      31.923 -12.641  36.802  1.00  0.00     0.158 HD
ENDBRANCH  23  33
BRANCH  22  36
HETATM   36  O4  UNK     1      36.122  -6.895  34.427  1.00  0.00    -0.356 OA
HETATM   37  C26 UNK     1      37.382  -7.531  34.230  1.00  0.00     0.210 C 
ENDBRANCH  22  36
TORSDOF 2
ENDMDL
