MODEL 1
REMARK VINA RESULT:      -9.5      0.000      0.000
REMARK  5 active torsions:
REMARK  status: ('A' for Active; 'I' for Inactive)
REMARK    1  A    between atoms: C10_17  and  O1_2 
REMARK    2  A    between atoms: C11_18  and  O1_2 
REMARK       I    between atoms: C12_19  and  N1_7 
REMARK    3  A    between atoms: C9_16  and  N1_7 
REMARK    4  A    between atoms: C10_17  and  C8_15 
REMARK    5  A    between atoms: C12_19  and  C13_20 
ROOT
HETATM    1  S1  UNK     1      18.143  -2.020  37.811  1.00  0.00    -0.075 SA
HETATM    2  C1  UNK     1      17.826   1.574  34.786  1.00  0.00     0.005 C 
HETATM    3  C2  UNK     1      17.214   2.346  35.958  1.00  0.00     0.001 C 
HETATM    4  C3  UNK     1      19.115   0.828  35.131  1.00  0.00     0.041 C 
HETATM    5  C4  UNK     1      16.609   1.478  37.066  1.00  0.00     0.005 C 
HETATM    6  C5  UNK     1      18.884  -0.411  35.940  1.00  0.00    -0.026 A 
HETATM    7  C6  UNK     1      17.639   0.718  37.903  1.00  0.00     0.046 C 
HETATM    8  C7  UNK     1      18.231  -0.440  37.160  1.00  0.00    -0.008 A 
HETATM    9  C8  UNK     1      19.312  -1.723  35.552  1.00  0.00     0.080 A 
HETATM   10  C9  UNK     1      18.974  -2.685  36.476  1.00  0.00     0.094 A 
ENDROOT
BRANCH  10  11
HETATM   11  N1  UNK     1      19.189  -4.037  36.496  1.00  0.00    -0.316 N 
HETATM   12  C12 UNK     1      20.363  -4.692  36.890  1.00  0.00     0.262 C 
HETATM   13  O3  UNK     1      21.413  -4.200  37.288  1.00  0.00    -0.267 OA
HETATM   14  H11 UNK     1      18.393  -4.597  36.206  1.00  0.00     0.169 HD
BRANCH  12  15
HETATM   15  C13 UNK     1      20.251  -6.162  36.788  1.00  0.00     0.108 A 
HETATM   16  C16 UNK     1      20.031  -6.820  37.933  1.00  0.00     0.037 A 
HETATM   17  C17 UNK     1      19.905  -8.268  37.933  1.00  0.00    -0.001 A 
HETATM   18  C19 UNK     1      20.019  -8.955  36.729  1.00  0.00     0.089 A 
HETATM   19  C20 UNK     1      19.675  -8.996  39.104  1.00  0.00     0.014 A 
HETATM   20  O4  UNK     1      20.251  -8.257  35.527  1.00  0.00    -0.274 OA
HETATM   21  C21 UNK     1      19.910 -10.342  36.660  1.00  0.00     0.038 A 
HETATM   22  C18 UNK     1      20.374  -6.871  35.495  1.00  0.00     0.304 A 
HETATM   23  O5  UNK     1      20.577  -6.272  34.443  1.00  0.00    -0.259 OA
HETATM   24  C23 UNK     1      19.681 -11.059  37.833  1.00  0.00     0.003 A 
HETATM   25  C22 UNK     1      19.563 -10.389  39.052  1.00  0.00     0.001 A 
ENDBRANCH  12  15
ENDBRANCH  10  11
BRANCH   9  26
HETATM   26  C10 UNK     1      20.021  -2.054  34.340  1.00  0.00     0.297 C 
HETATM   27  O2  UNK     1      21.188  -2.468  34.316  1.00  0.00    -0.259 OA
BRANCH  26  28
HETATM   28  O1  UNK     1      19.282  -1.867  33.193  1.00  0.00    -0.313 OA
BRANCH  28  29
HETATM   29  C11 UNK     1      19.962  -1.286  32.074  1.00  0.00     0.124 C 
HETATM   30  C14 UNK     1      20.089  -2.326  30.971  1.00  0.00     0.040 C 
HETATM   31  C15 UNK     1      19.200  -0.055  31.609  1.00  0.00     0.040 C 
ENDBRANCH  28  29
ENDBRANCH  26  28
ENDBRANCH   9  26
TORSDOF 5
ENDMDL
MODEL 2
REMARK VINA RESULT:      -9.1     17.259     21.871
REMARK  5 active torsions:
REMARK  status: ('A' for Active; 'I' for Inactive)
REMARK    1  A    between atoms: C10_17  and  O1_2 
REMARK    2  A    between atoms: C11_18  and  O1_2 
REMARK       I    between atoms: C12_19  and  N1_7 
REMARK    3  A    between atoms: C9_16  and  N1_7 
REMARK    4  A    between atoms: C10_17  and  C8_15 
REMARK    5  A    between atoms: C12_19  and  C13_20 
ROOT
HETATM    1  S1  UNK     1      19.161  -2.134  12.335  1.00  0.00    -0.075 SA
HETATM    2  C1  UNK     1      19.512  -6.778  11.645  1.00  0.00     0.005 C 
HETATM    3  C2  UNK     1      19.099  -6.471  10.203  1.00  0.00     0.001 C 
HETATM    4  C3  UNK     1      20.630  -5.884  12.181  1.00  0.00     0.041 C 
HETATM    5  C4  UNK     1      18.356  -5.147  10.006  1.00  0.00     0.005 C 
HETATM    6  C5  UNK     1      20.171  -4.498  12.516  1.00  0.00    -0.026 A 
HETATM    7  C6  UNK     1      19.229  -3.903  10.184  1.00  0.00     0.046 C 
HETATM    8  C7  UNK     1      19.554  -3.639  11.622  1.00  0.00    -0.008 A 
HETATM    9  C8  UNK     1      20.312  -3.887  13.804  1.00  0.00     0.080 A 
HETATM   10  C9  UNK     1      19.807  -2.608  13.843  1.00  0.00     0.094 A 
ENDROOT
BRANCH  10  11
HETATM   11  N1  UNK     1      19.742  -1.689  14.855  1.00  0.00    -0.316 N 
HETATM   12  C12 UNK     1      18.752  -1.600  15.843  1.00  0.00     0.262 C 
HETATM   13  O3  UNK     1      17.765  -2.308  15.999  1.00  0.00    -0.267 OA
HETATM   14  H11 UNK     1      20.513  -1.028  14.878  1.00  0.00     0.169 HD
BRANCH  12  15
HETATM   15  C13 UNK     1      18.992  -0.485  16.784  1.00  0.00     0.108 A 
HETATM   16  C16 UNK     1      19.000  -0.800  18.085  1.00  0.00     0.037 A 
HETATM   17  C17 UNK     1      19.228   0.229  19.086  1.00  0.00    -0.001 A 
HETATM   18  C19 UNK     1      19.437   1.540  18.670  1.00  0.00     0.089 A 
HETATM   19  C20 UNK     1      19.245  -0.053  20.455  1.00  0.00     0.014 A 
HETATM   20  O4  UNK     1      19.427   1.865  17.299  1.00  0.00    -0.274 OA
HETATM   21  C21 UNK     1      19.660   2.573  19.578  1.00  0.00     0.038 A 
HETATM   22  C18 UNK     1      19.213   0.902  16.317  1.00  0.00     0.304 A 
HETATM   23  O5  UNK     1      19.205   1.195  15.126  1.00  0.00    -0.259 OA
HETATM   24  C23 UNK     1      19.674   2.282  20.941  1.00  0.00     0.003 A 
HETATM   25  C22 UNK     1      19.468   0.972  21.379  1.00  0.00     0.001 A 
ENDBRANCH  12  15
ENDBRANCH  10  11
BRANCH   9  26
HETATM   26  C10 UNK     1      20.911  -4.499  14.966  1.00  0.00     0.297 C 
HETATM   27  O2  UNK     1      20.414  -5.457  15.573  1.00  0.00    -0.259 OA
BRANCH  26  28
HETATM   28  O1  UNK     1      22.100  -3.920  15.351  1.00  0.00    -0.313 OA
BRANCH  28  29
HETATM   29  C11 UNK     1      22.566  -4.220  16.671  1.00  0.00     0.124 C 
HETATM   30  C14 UNK     1      24.087  -4.254  16.669  1.00  0.00     0.040 C 
HETATM   31  C15 UNK     1      22.024  -3.181  17.642  1.00  0.00     0.040 C 
ENDBRANCH  28  29
ENDBRANCH  26  28
ENDBRANCH   9  26
TORSDOF 5
ENDMDL
MODEL 3
REMARK VINA RESULT:      -8.9      1.751      2.202
REMARK  5 active torsions:
REMARK  status: ('A' for Active; 'I' for Inactive)
REMARK    1  A    between atoms: C10_17  and  O1_2 
REMARK    2  A    between atoms: C11_18  and  O1_2 
REMARK       I    between atoms: C12_19  and  N1_7 
REMARK    3  A    between atoms: C9_16  and  N1_7 
REMARK    4  A    between atoms: C10_17  and  C8_15 
REMARK    5  A    between atoms: C12_19  and  C13_20 
ROOT
HETATM    1  S1  UNK     1      18.730  -2.248  37.700  1.00  0.00    -0.075 SA
HETATM    2  C1  UNK     1      17.107   0.705  34.410  1.00  0.00     0.005 C 
HETATM    3  C2  UNK     1      16.359   1.382  35.562  1.00  0.00     0.001 C 
HETATM    4  C3  UNK     1      18.585   0.435  34.695  1.00  0.00     0.041 C 
HETATM    5  C4  UNK     1      16.129   0.504  36.796  1.00  0.00     0.005 C 
HETATM    6  C5  UNK     1      18.807  -0.714  35.630  1.00  0.00    -0.026 A 
HETATM    7  C6  UNK     1      17.397   0.196  37.595  1.00  0.00     0.046 C 
HETATM    8  C7  UNK     1      18.274  -0.802  36.905  1.00  0.00    -0.008 A 
HETATM    9  C8  UNK     1      19.600  -1.868  35.321  1.00  0.00     0.080 A 
HETATM   10  C9  UNK     1      19.641  -2.775  36.355  1.00  0.00     0.094 A 
ENDROOT
BRANCH  10  11
HETATM   11  N1  UNK     1      20.271  -3.984  36.475  1.00  0.00    -0.316 N 
HETATM   12  C12 UNK     1      19.660  -5.242  36.563  1.00  0.00     0.262 C 
HETATM   13  O3  UNK     1      18.464  -5.511  36.551  1.00  0.00    -0.267 OA
HETATM   14  H11 UNK     1      21.285  -3.935  36.482  1.00  0.00     0.169 HD
BRANCH  12  15
HETATM   15  C13 UNK     1      20.642  -6.340  36.684  1.00  0.00     0.108 A 
HETATM   16  C16 UNK     1      20.486  -7.369  35.843  1.00  0.00     0.037 A 
HETATM   17  C17 UNK     1      21.403  -8.496  35.886  1.00  0.00    -0.001 A 
HETATM   18  C19 UNK     1      22.440  -8.486  36.813  1.00  0.00     0.089 A 
HETATM   19  C20 UNK     1      21.278  -9.592  35.027  1.00  0.00     0.014 A 
HETATM   20  O4  UNK     1      22.599  -7.400  37.696  1.00  0.00    -0.274 OA
HETATM   21  C21 UNK     1      23.352  -9.535  36.907  1.00  0.00     0.038 A 
HETATM   22  C18 UNK     1      21.738  -6.306  37.678  1.00  0.00     0.304 A 
HETATM   23  O5  UNK     1      21.884  -5.366  38.452  1.00  0.00    -0.259 OA
HETATM   24  C23 UNK     1      23.220 -10.623  36.047  1.00  0.00     0.003 A 
HETATM   25  C22 UNK     1      22.186 -10.652  35.109  1.00  0.00     0.001 A 
ENDBRANCH  12  15
ENDBRANCH  10  11
BRANCH   9  26
HETATM   26  C10 UNK     1      20.299  -2.102  34.081  1.00  0.00     0.297 C 
HETATM   27  O2  UNK     1      21.490  -2.437  34.014  1.00  0.00    -0.259 OA
BRANCH  26  28
HETATM   28  O1  UNK     1      19.521  -1.920  32.959  1.00  0.00    -0.313 OA
BRANCH  28  29
HETATM   29  C11 UNK     1      20.166  -1.353  31.812  1.00  0.00     0.124 C 
HETATM   30  C14 UNK     1      20.307  -2.422  30.739  1.00  0.00     0.040 C 
HETATM   31  C15 UNK     1      19.359  -0.161  31.322  1.00  0.00     0.040 C 
ENDBRANCH  28  29
ENDBRANCH  26  28
ENDBRANCH   9  26
TORSDOF 5
ENDMDL
MODEL 4
REMARK VINA RESULT:      -8.6      7.574      9.998
REMARK  5 active torsions:
REMARK  status: ('A' for Active; 'I' for Inactive)
REMARK    1  A    between atoms: C10_17  and  O1_2 
REMARK    2  A    between atoms: C11_18  and  O1_2 
REMARK       I    between atoms: C12_19  and  N1_7 
REMARK    3  A    between atoms: C9_16  and  N1_7 
REMARK    4  A    between atoms: C10_17  and  C8_15 
REMARK    5  A    between atoms: C12_19  and  C13_20 
ROOT
HETATM    1  S1  UNK     1      15.621   6.275  32.080  1.00  0.00    -0.075 SA
HETATM    2  C1  UNK     1      17.159  10.308  33.962  1.00  0.00     0.005 C 
HETATM    3  C2  UNK     1      15.692  10.744  33.919  1.00  0.00     0.001 C 
HETATM    4  C3  UNK     1      17.383   8.919  34.560  1.00  0.00     0.041 C 
HETATM    5  C4  UNK     1      14.817   9.991  32.913  1.00  0.00     0.005 C 
HETATM    6  C5  UNK     1      16.989   7.806  33.638  1.00  0.00    -0.026 A 
HETATM    7  C6  UNK     1      14.534   8.535  33.291  1.00  0.00     0.046 C 
HETATM    8  C7  UNK     1      15.728   7.654  33.087  1.00  0.00    -0.008 A 
HETATM    9  C8  UNK     1      17.868   6.759  33.209  1.00  0.00     0.080 A 
HETATM   10  C9  UNK     1      17.254   5.864  32.364  1.00  0.00     0.094 A 
ENDROOT
BRANCH  10  11
HETATM   11  N1  UNK     1      17.723   4.740  31.739  1.00  0.00    -0.316 N 
HETATM   12  C12 UNK     1      18.025   3.511  32.341  1.00  0.00     0.262 C 
HETATM   13  O3  UNK     1      17.933   3.199  33.522  1.00  0.00    -0.267 OA
HETATM   14  H11 UNK     1      17.838   4.830  30.733  1.00  0.00     0.169 HD
BRANCH  12  15
HETATM   15  C13 UNK     1      18.511   2.510  31.368  1.00  0.00     0.108 A 
HETATM   16  C16 UNK     1      18.880   1.326  31.872  1.00  0.00     0.037 A 
HETATM   17  C17 UNK     1      19.372   0.277  30.993  1.00  0.00    -0.001 A 
HETATM   18  C19 UNK     1      19.451   0.525  29.626  1.00  0.00     0.089 A 
HETATM   19  C20 UNK     1      19.769  -0.973  31.475  1.00  0.00     0.014 A 
HETATM   20  O4  UNK     1      19.061   1.773  29.102  1.00  0.00    -0.274 OA
HETATM   21  C21 UNK     1      19.914  -0.437  28.731  1.00  0.00     0.038 A 
HETATM   22  C18 UNK     1      18.585   2.796  29.917  1.00  0.00     0.304 A 
HETATM   23  O5  UNK     1      18.249   3.880  29.452  1.00  0.00    -0.259 OA
HETATM   24  C23 UNK     1      20.308  -1.680  29.220  1.00  0.00     0.003 A 
HETATM   25  C22 UNK     1      20.235  -1.949  30.589  1.00  0.00     0.001 A 
ENDBRANCH  12  15
ENDBRANCH  10  11
BRANCH   9  26
HETATM   26  C10 UNK     1      19.252   6.611  33.592  1.00  0.00     0.297 C 
HETATM   27  O2  UNK     1      19.621   6.210  34.704  1.00  0.00    -0.259 OA
BRANCH  26  28
HETATM   28  O1  UNK     1      20.144   6.959  32.602  1.00  0.00    -0.313 OA
BRANCH  28  29
HETATM   29  C11 UNK     1      20.845   5.888  31.959  1.00  0.00     0.124 C 
HETATM   30  C14 UNK     1      20.627   5.978  30.456  1.00  0.00     0.040 C 
HETATM   31  C15 UNK     1      22.319   5.964  32.324  1.00  0.00     0.040 C 
ENDBRANCH  28  29
ENDBRANCH  26  28
ENDBRANCH   9  26
TORSDOF 5
ENDMDL
MODEL 5
REMARK VINA RESULT:      -8.6      2.095      8.116
REMARK  5 active torsions:
REMARK  status: ('A' for Active; 'I' for Inactive)
REMARK    1  A    between atoms: C10_17  and  O1_2 
REMARK    2  A    between atoms: C11_18  and  O1_2 
REMARK       I    between atoms: C12_19  and  N1_7 
REMARK    3  A    between atoms: C9_16  and  N1_7 
REMARK    4  A    between atoms: C10_17  and  C8_15 
REMARK    5  A    between atoms: C12_19  and  C13_20 
ROOT
HETATM    1  S1  UNK     1      21.051  -4.704  37.789  1.00  0.00    -0.075 SA
HETATM    2  C1  UNK     1      20.517  -9.340  38.412  1.00  0.00     0.005 C 
HETATM    3  C2  UNK     1      21.346  -9.140  39.685  1.00  0.00     0.001 C 
HETATM    4  C3  UNK     1      19.373  -8.339  38.245  1.00  0.00     0.041 C 
HETATM    5  C4  UNK     1      22.224  -7.885  39.700  1.00  0.00     0.005 C 
HETATM    6  C5  UNK     1      19.835  -6.975  37.834  1.00  0.00    -0.026 A 
HETATM    7  C6  UNK     1      21.444  -6.573  39.816  1.00  0.00     0.046 C 
HETATM    8  C7  UNK     1      20.750  -6.211  38.539  1.00  0.00    -0.008 A 
HETATM    9  C8  UNK     1      19.388  -6.289  36.658  1.00  0.00     0.080 A 
HETATM   10  C9  UNK     1      19.968  -5.049  36.515  1.00  0.00     0.094 A 
ENDROOT
BRANCH  10  11
HETATM   11  N1  UNK     1      19.822  -4.086  35.554  1.00  0.00    -0.316 N 
HETATM   12  C12 UNK     1      19.607  -2.718  35.765  1.00  0.00     0.262 C 
HETATM   13  O3  UNK     1      19.508  -2.118  36.829  1.00  0.00    -0.267 OA
HETATM   14  H11 UNK     1      19.898  -4.425  34.599  1.00  0.00     0.169 HD
BRANCH  12  15
HETATM   15  C13 UNK     1      19.494  -1.962  34.500  1.00  0.00     0.108 A 
HETATM   16  C16 UNK     1      20.130  -2.480  33.443  1.00  0.00     0.037 A 
HETATM   17  C17 UNK     1      20.077  -1.808  32.154  1.00  0.00    -0.001 A 
HETATM   18  C19 UNK     1      19.358  -0.622  32.041  1.00  0.00     0.089 A 
HETATM   19  C20 UNK     1      20.726  -2.312  31.024  1.00  0.00     0.014 A 
HETATM   20  O4  UNK     1      18.690  -0.082  33.158  1.00  0.00    -0.274 OA
HETATM   21  C21 UNK     1      19.268   0.071  30.836  1.00  0.00     0.038 A 
HETATM   22  C18 UNK     1      18.721  -0.703  34.404  1.00  0.00     0.304 A 
HETATM   23  O5  UNK     1      18.138  -0.224  35.371  1.00  0.00    -0.259 OA
HETATM   24  C23 UNK     1      19.918  -0.439  29.715  1.00  0.00     0.003 A 
HETATM   25  C22 UNK     1      20.645  -1.628  29.807  1.00  0.00     0.001 A 
ENDBRANCH  12  15
ENDBRANCH  10  11
BRANCH   9  26
HETATM   26  C10 UNK     1      18.436  -6.794  35.698  1.00  0.00     0.297 C 
HETATM   27  O2  UNK     1      17.208  -6.720  35.841  1.00  0.00    -0.259 OA
BRANCH  26  28
HETATM   28  O1  UNK     1      19.015  -7.375  34.592  1.00  0.00    -0.313 OA
BRANCH  28  29
HETATM   29  C11 UNK     1      20.445  -7.345  34.522  1.00  0.00     0.124 C 
HETATM   30  C14 UNK     1      20.994  -8.710  34.913  1.00  0.00     0.040 C 
HETATM   31  C15 UNK     1      20.870  -6.945  33.118  1.00  0.00     0.040 C 
ENDBRANCH  28  29
ENDBRANCH  26  28
ENDBRANCH   9  26
TORSDOF 5
ENDMDL
MODEL 6
REMARK VINA RESULT:      -8.4      8.856     11.319
REMARK  5 active torsions:
REMARK  status: ('A' for Active; 'I' for Inactive)
REMARK    1  A    between atoms: C10_17  and  O1_2 
REMARK    2  A    between atoms: C11_18  and  O1_2 
REMARK       I    between atoms: C12_19  and  N1_7 
REMARK    3  A    between atoms: C9_16  and  N1_7 
REMARK    4  A    between atoms: C10_17  and  C8_15 
REMARK    5  A    between atoms: C12_19  and  C13_20 
ROOT
HETATM    1  S1  UNK     1      29.320  -5.587  38.121  1.00  0.00    -0.075 SA
HETATM    2  C1  UNK     1      33.532  -7.439  37.125  1.00  0.00     0.005 C 
HETATM    3  C2  UNK     1      34.075  -6.030  37.379  1.00  0.00     0.001 C 
HETATM    4  C3  UNK     1      32.583  -7.950  38.208  1.00  0.00     0.041 C 
HETATM    5  C4  UNK     1      33.049  -4.901  37.242  1.00  0.00     0.005 C 
HETATM    6  C5  UNK     1      31.225  -7.322  38.150  1.00  0.00    -0.026 A 
HETATM    7  C6  UNK     1      32.000  -4.866  38.356  1.00  0.00     0.046 C 
HETATM    8  C7  UNK     1      30.987  -5.960  38.216  1.00  0.00    -0.008 A 
HETATM    9  C8  UNK     1      29.999  -8.054  38.019  1.00  0.00     0.080 A 
HETATM   10  C9  UNK     1      28.894  -7.235  37.990  1.00  0.00     0.094 A 
ENDROOT
BRANCH  10  11
HETATM   11  N1  UNK     1      27.559  -7.518  37.880  1.00  0.00    -0.316 N 
HETATM   12  C12 UNK     1      26.771  -8.214  38.807  1.00  0.00     0.262 C 
HETATM   13  O3  UNK     1      27.108  -8.700  39.880  1.00  0.00    -0.267 OA
HETATM   14  H11 UNK     1      27.118  -7.160  37.038  1.00  0.00     0.169 HD
BRANCH  12  15
HETATM   15  C13 UNK     1      25.365  -8.341  38.369  1.00  0.00     0.108 A 
HETATM   16  C16 UNK     1      24.459  -7.667  39.087  1.00  0.00     0.037 A 
HETATM   17  C17 UNK     1      23.050  -7.730  38.734  1.00  0.00    -0.001 A 
HETATM   18  C19 UNK     1      22.662  -8.501  37.642  1.00  0.00     0.089 A 
HETATM   19  C20 UNK     1      22.069  -7.043  39.455  1.00  0.00     0.014 A 
HETATM   20  O4  UNK     1      23.621  -9.208  36.891  1.00  0.00    -0.274 OA
HETATM   21  C21 UNK     1      21.329  -8.604  37.252  1.00  0.00     0.038 A 
HETATM   22  C18 UNK     1      24.977  -9.166  37.204  1.00  0.00     0.304 A 
HETATM   23  O5  UNK     1      25.804  -9.787  36.544  1.00  0.00    -0.259 OA
HETATM   24  C23 UNK     1      20.359  -7.916  37.976  1.00  0.00     0.003 A 
HETATM   25  C22 UNK     1      20.727  -7.136  39.075  1.00  0.00     0.001 A 
ENDBRANCH  12  15
ENDBRANCH  10  11
BRANCH   9  26
HETATM   26  C10 UNK     1      29.880  -9.489  37.924  1.00  0.00     0.297 C 
HETATM   27  O2  UNK     1      30.186 -10.268  38.837  1.00  0.00    -0.259 OA
BRANCH  26  28
HETATM   28  O1  UNK     1      29.391  -9.929  36.714  1.00  0.00    -0.313 OA
BRANCH  28  29
HETATM   29  C11 UNK     1      30.189  -9.654  35.557  1.00  0.00     0.124 C 
HETATM   30  C14 UNK     1      31.445 -10.513  35.600  1.00  0.00     0.040 C 
HETATM   31  C15 UNK     1      29.365  -9.917  34.306  1.00  0.00     0.040 C 
ENDBRANCH  28  29
ENDBRANCH  26  28
ENDBRANCH   9  26
TORSDOF 5
ENDMDL
MODEL 7
REMARK VINA RESULT:      -8.3     29.063     31.381
REMARK  5 active torsions:
REMARK  status: ('A' for Active; 'I' for Inactive)
REMARK    1  A    between atoms: C10_17  and  O1_2 
REMARK    2  A    between atoms: C11_18  and  O1_2 
REMARK       I    between atoms: C12_19  and  N1_7 
REMARK    3  A    between atoms: C9_16  and  N1_7 
REMARK    4  A    between atoms: C10_17  and  C8_15 
REMARK    5  A    between atoms: C12_19  and  C13_20 
ROOT
HETATM    1  S1  UNK     1      10.802   9.351   9.677  1.00  0.00    -0.075 SA
HETATM    2  C1  UNK     1       8.423   5.403   8.719  1.00  0.00     0.005 C 
HETATM    3  C2  UNK     1       7.276   6.050   9.501  1.00  0.00     0.001 C 
HETATM    4  C3  UNK     1       9.064   6.316   7.675  1.00  0.00     0.041 C 
HETATM    5  C4  UNK     1       7.694   7.150  10.481  1.00  0.00     0.005 C 
HETATM    6  C5  UNK     1       9.948   7.367   8.270  1.00  0.00    -0.026 A 
HETATM    7  C6  UNK     1       8.173   8.440   9.813  1.00  0.00     0.046 C 
HETATM    8  C7  UNK     1       9.538   8.296   9.213  1.00  0.00    -0.008 A 
HETATM    9  C8  UNK     1      11.331   7.546   7.939  1.00  0.00     0.080 A 
HETATM   10  C9  UNK     1      11.912   8.584   8.630  1.00  0.00     0.094 A 
ENDROOT
BRANCH  10  11
HETATM   11  N1  UNK     1      13.186   9.084   8.612  1.00  0.00    -0.316 N 
HETATM   12  C12 UNK     1      14.151   8.953   9.619  1.00  0.00     0.262 C 
HETATM   13  O3  UNK     1      14.054   8.379  10.697  1.00  0.00    -0.267 OA
HETATM   14  H11 UNK     1      13.435   9.581   7.761  1.00  0.00     0.169 HD
BRANCH  12  15
HETATM   15  C13 UNK     1      15.425   9.618   9.271  1.00  0.00     0.108 A 
HETATM   16  C16 UNK     1      15.330  10.722   8.520  1.00  0.00     0.037 A 
HETATM   17  C17 UNK     1      16.528  11.446   8.126  1.00  0.00    -0.001 A 
HETATM   18  C19 UNK     1      17.769  10.971   8.540  1.00  0.00     0.089 A 
HETATM   19  C20 UNK     1      16.477  12.603   7.344  1.00  0.00     0.014 A 
HETATM   20  O4  UNK     1      17.862   9.808   9.330  1.00  0.00    -0.274 OA
HETATM   21  C21 UNK     1      18.954  11.616   8.197  1.00  0.00     0.038 A 
HETATM   22  C18 UNK     1      16.733   9.095   9.724  1.00  0.00     0.304 A 
HETATM   23  O5  UNK     1      16.825   8.082  10.410  1.00  0.00    -0.259 OA
HETATM   24  C23 UNK     1      18.893  12.769   7.417  1.00  0.00     0.003 A 
HETATM   25  C22 UNK     1      17.658  13.262   6.991  1.00  0.00     0.001 A 
ENDBRANCH  12  15
ENDBRANCH  10  11
BRANCH   9  26
HETATM   26  C10 UNK     1      12.080   6.753   6.994  1.00  0.00     0.297 C 
HETATM   27  O2  UNK     1      11.718   6.547   5.828  1.00  0.00    -0.259 OA
BRANCH  26  28
HETATM   28  O1  UNK     1      13.250   6.236   7.504  1.00  0.00    -0.313 OA
BRANCH  28  29
HETATM   29  C11 UNK     1      13.142   5.444   8.693  1.00  0.00     0.124 C 
HETATM   30  C14 UNK     1      12.383   4.164   8.374  1.00  0.00     0.040 C 
HETATM   31  C15 UNK     1      14.534   5.158   9.233  1.00  0.00     0.040 C 
ENDBRANCH  28  29
ENDBRANCH  26  28
ENDBRANCH   9  26
TORSDOF 5
ENDMDL
MODEL 8
REMARK VINA RESULT:      -8.2     17.757     22.294
REMARK  5 active torsions:
REMARK  status: ('A' for Active; 'I' for Inactive)
REMARK    1  A    between atoms: C10_17  and  O1_2 
REMARK    2  A    between atoms: C11_18  and  O1_2 
REMARK       I    between atoms: C12_19  and  N1_7 
REMARK    3  A    between atoms: C9_16  and  N1_7 
REMARK    4  A    between atoms: C10_17  and  C8_15 
REMARK    5  A    between atoms: C12_19  and  C13_20 
ROOT
HETATM    1  S1  UNK     1      20.090  -2.968  12.088  1.00  0.00    -0.075 SA
HETATM    2  C1  UNK     1      19.274  -7.591  11.729  1.00  0.00     0.005 C 
HETATM    3  C2  UNK     1      19.513  -7.392  10.230  1.00  0.00     0.001 C 
HETATM    4  C3  UNK     1      20.339  -6.954  12.623  1.00  0.00     0.041 C 
HETATM    5  C4  UNK     1      19.316  -5.960   9.723  1.00  0.00     0.005 C 
HETATM    6  C5  UNK     1      20.221  -5.464  12.714  1.00  0.00    -0.026 A 
HETATM    7  C6  UNK     1      20.394  -4.976  10.182  1.00  0.00     0.046 C 
HETATM    8  C7  UNK     1      20.247  -4.608  11.627  1.00  0.00    -0.008 A 
HETATM    9  C8  UNK     1      20.068  -4.737  13.940  1.00  0.00     0.080 A 
HETATM   10  C9  UNK     1      19.984  -3.378  13.742  1.00  0.00     0.094 A 
ENDROOT
BRANCH  10  11
HETATM   11  N1  UNK     1      19.837  -2.342  14.625  1.00  0.00    -0.316 N 
HETATM   12  C12 UNK     1      18.685  -2.019  15.353  1.00  0.00     0.262 C 
HETATM   13  O3  UNK     1      17.598  -2.584  15.349  1.00  0.00    -0.267 OA
HETATM   14  H11 UNK     1      20.671  -1.776  14.757  1.00  0.00     0.169 HD
BRANCH  12  15
HETATM   15  C13 UNK     1      18.875  -0.833  16.216  1.00  0.00     0.108 A 
HETATM   16  C16 UNK     1      18.693  -1.022  17.528  1.00  0.00     0.037 A 
HETATM   17  C17 UNK     1      18.858   0.085  18.457  1.00  0.00    -0.001 A 
HETATM   18  C19 UNK     1      19.206   1.337  17.959  1.00  0.00     0.089 A 
HETATM   19  C20 UNK     1      18.678  -0.065  19.835  1.00  0.00     0.014 A 
HETATM   20  O4  UNK     1      19.396   1.528  16.576  1.00  0.00    -0.274 OA
HETATM   21  C21 UNK     1      19.378   2.438  18.794  1.00  0.00     0.038 A 
HETATM   22  C18 UNK     1      19.246   0.488  15.663  1.00  0.00     0.304 A 
HETATM   23  O5  UNK     1      19.412   0.665  14.460  1.00  0.00    -0.259 OA
HETATM   24  C23 UNK     1      19.197   2.279  20.166  1.00  0.00     0.003 A 
HETATM   25  C22 UNK     1      18.848   1.031  20.686  1.00  0.00     0.001 A 
ENDBRANCH  12  15
ENDBRANCH  10  11
BRANCH   9  26
HETATM   26  C10 UNK     1      20.003  -5.315  15.260  1.00  0.00     0.297 C 
HETATM   27  O2  UNK     1      20.725  -4.963  16.203  1.00  0.00    -0.259 OA
BRANCH  26  28
HETATM   28  O1  UNK     1      19.057  -6.308  15.388  1.00  0.00    -0.313 OA
BRANCH  28  29
HETATM   29  C11 UNK     1      17.685  -5.905  15.307  1.00  0.00     0.124 C 
HETATM   30  C14 UNK     1      16.989  -6.713  14.222  1.00  0.00     0.040 C 
HETATM   31  C15 UNK     1      17.026  -6.095  16.665  1.00  0.00     0.040 C 
ENDBRANCH  28  29
ENDBRANCH  26  28
ENDBRANCH   9  26
TORSDOF 5
ENDMDL
MODEL 9
REMARK VINA RESULT:      -8.1     18.363     23.176
REMARK  5 active torsions:
REMARK  status: ('A' for Active; 'I' for Inactive)
REMARK    1  A    between atoms: C10_17  and  O1_2 
REMARK    2  A    between atoms: C11_18  and  O1_2 
REMARK       I    between atoms: C12_19  and  N1_7 
REMARK    3  A    between atoms: C9_16  and  N1_7 
REMARK    4  A    between atoms: C10_17  and  C8_15 
REMARK    5  A    between atoms: C12_19  and  C13_20 
ROOT
HETATM    1  S1  UNK     1      20.547  -5.474  14.557  1.00  0.00    -0.075 SA
HETATM    2  C1  UNK     1      21.363  -6.895  10.143  1.00  0.00     0.005 C 
HETATM    3  C2  UNK     1      21.707  -8.248  10.773  1.00  0.00     0.001 C 
HETATM    4  C3  UNK     1      20.052  -6.287  10.640  1.00  0.00     0.041 C 
HETATM    5  C4  UNK     1      22.102  -8.198  12.252  1.00  0.00     0.005 C 
HETATM    6  C5  UNK     1      20.151  -5.717  12.022  1.00  0.00    -0.026 A 
HETATM    7  C6  UNK     1      20.946  -7.874  13.201  1.00  0.00     0.046 C 
HETATM    8  C7  UNK     1      20.548  -6.432  13.139  1.00  0.00    -0.008 A 
HETATM    9  C8  UNK     1      19.846  -4.358  12.361  1.00  0.00     0.080 A 
HETATM   10  C9  UNK     1      20.019  -4.095  13.700  1.00  0.00     0.094 A 
ENDROOT
BRANCH  10  11
HETATM   11  N1  UNK     1      19.841  -2.949  14.429  1.00  0.00    -0.316 N 
HETATM   12  C12 UNK     1      18.789  -2.674  15.312  1.00  0.00     0.262 C 
HETATM   13  O3  UNK     1      17.835  -3.384  15.606  1.00  0.00    -0.267 OA
HETATM   14  H11 UNK     1      20.571  -2.253  14.309  1.00  0.00     0.169 HD
BRANCH  12  15
HETATM   15  C13 UNK     1      18.908  -1.337  15.933  1.00  0.00     0.108 A 
HETATM   16  C16 UNK     1      18.692  -1.276  17.252  1.00  0.00     0.037 A 
HETATM   17  C17 UNK     1      18.787  -0.006  17.953  1.00  0.00    -0.001 A 
HETATM   18  C19 UNK     1      19.104   1.140  17.230  1.00  0.00     0.089 A 
HETATM   19  C20 UNK     1      18.570   0.105  19.329  1.00  0.00     0.014 A 
HETATM   20  O4  UNK     1      19.330   1.069  15.841  1.00  0.00    -0.274 OA
HETATM   21  C21 UNK     1      19.209   2.388  17.840  1.00  0.00     0.038 A 
HETATM   22  C18 UNK     1      19.248  -0.132  15.143  1.00  0.00     0.304 A 
HETATM   23  O5  UNK     1      19.445  -0.184  13.934  1.00  0.00    -0.259 OA
HETATM   24  C23 UNK     1      18.991   2.489  19.212  1.00  0.00     0.003 A 
HETATM   25  C22 UNK     1      18.672   1.350  19.956  1.00  0.00     0.001 A 
ENDBRANCH  12  15
ENDBRANCH  10  11
BRANCH   9  26
HETATM   26  C10 UNK     1      19.402  -3.339  11.441  1.00  0.00     0.297 C 
HETATM   27  O2  UNK     1      18.491  -2.537  11.687  1.00  0.00    -0.259 OA
BRANCH  26  28
HETATM   28  O1  UNK     1      20.086  -3.332  10.245  1.00  0.00    -0.313 OA
BRANCH  28  29
HETATM   29  C11 UNK     1      21.389  -2.738  10.252  1.00  0.00     0.124 C 
HETATM   30  C14 UNK     1      21.951  -2.749   8.837  1.00  0.00     0.040 C 
HETATM   31  C15 UNK     1      21.294  -1.327  10.812  1.00  0.00     0.040 C 
ENDBRANCH  28  29
ENDBRANCH  26  28
ENDBRANCH   9  26
TORSDOF 5
ENDMDL
MODEL 10
REMARK VINA RESULT:      -8.0      9.753     12.049
REMARK  5 active torsions:
REMARK  status: ('A' for Active; 'I' for Inactive)
REMARK    1  A    between atoms: C10_17  and  O1_2 
REMARK    2  A    between atoms: C11_18  and  O1_2 
REMARK       I    between atoms: C12_19  and  N1_7 
REMARK    3  A    between atoms: C9_16  and  N1_7 
REMARK    4  A    between atoms: C10_17  and  C8_15 
REMARK    5  A    between atoms: C12_19  and  C13_20 
ROOT
HETATM    1  S1  UNK     1      30.073  -5.644  36.975  1.00  0.00    -0.075 SA
HETATM    2  C1  UNK     1      34.544  -7.028  36.467  1.00  0.00     0.005 C 
HETATM    3  C2  UNK     1      34.874  -5.533  36.434  1.00  0.00     0.001 C 
HETATM    4  C3  UNK     1      33.623  -7.442  37.615  1.00  0.00     0.041 C 
HETATM    5  C4  UNK     1      33.710  -4.617  36.046  1.00  0.00     0.005 C 
HETATM    6  C5  UNK     1      32.195  -7.043  37.400  1.00  0.00    -0.026 A 
HETATM    7  C6  UNK     1      32.613  -4.509  37.107  1.00  0.00     0.046 C 
HETATM    8  C7  UNK     1      31.769  -5.744  37.178  1.00  0.00    -0.008 A 
HETATM    9  C8  UNK     1      31.090  -7.955  37.400  1.00  0.00     0.080 A 
HETATM   10  C9  UNK     1      29.885  -7.329  37.181  1.00  0.00     0.094 A 
ENDROOT
BRANCH  10  11
HETATM   11  N1  UNK     1      28.609  -7.819  37.106  1.00  0.00    -0.316 N 
HETATM   12  C12 UNK     1      27.792  -8.195  38.180  1.00  0.00     0.262 C 
HETATM   13  O3  UNK     1      28.046  -8.163  39.378  1.00  0.00    -0.267 OA
HETATM   14  H11 UNK     1      28.237  -7.891  36.163  1.00  0.00     0.169 HD
BRANCH  12  15
HETATM   15  C13 UNK     1      26.468  -8.684  37.738  1.00  0.00     0.108 A 
HETATM   16  C16 UNK     1      26.453  -9.870  37.118  1.00  0.00     0.037 A 
HETATM   17  C17 UNK     1      25.198 -10.434  36.647  1.00  0.00    -0.001 A 
HETATM   18  C19 UNK     1      24.020  -9.722  36.851  1.00  0.00     0.089 A 
HETATM   19  C20 UNK     1      25.134 -11.668  35.995  1.00  0.00     0.014 A 
HETATM   20  O4  UNK     1      24.043  -8.474  37.505  1.00  0.00    -0.274 OA
HETATM   21  C21 UNK     1      22.786 -10.205  36.424  1.00  0.00     0.038 A 
HETATM   22  C18 UNK     1      25.228  -7.909  37.968  1.00  0.00     0.304 A 
HETATM   23  O5  UNK     1      25.239  -6.821  38.535  1.00  0.00    -0.259 OA
HETATM   24  C23 UNK     1      22.732 -11.437  35.774  1.00  0.00     0.003 A 
HETATM   25  C22 UNK     1      23.903 -12.167  35.560  1.00  0.00     0.001 A 
ENDBRANCH  12  15
ENDBRANCH  10  11
BRANCH   9  26
HETATM   26  C10 UNK     1      31.175  -9.382  37.603  1.00  0.00     0.297 C 
HETATM   27  O2  UNK     1      30.748  -9.962  38.610  1.00  0.00    -0.259 OA
BRANCH  26  28
HETATM   28  O1  UNK     1      31.782 -10.056  36.566  1.00  0.00    -0.313 OA
BRANCH  28  29
HETATM   29  C11 UNK     1      31.471  -9.615  35.240  1.00  0.00     0.124 C 
HETATM   30  C14 UNK     1      32.717  -9.719  34.373  1.00  0.00     0.040 C 
HETATM   31  C15 UNK     1      30.326 -10.450  34.689  1.00  0.00     0.040 C 
ENDBRANCH  28  29
ENDBRANCH  26  28
ENDBRANCH   9  26
TORSDOF 5
ENDMDL
