MODEL 1
REMARK VINA RESULT:      -8.3      0.000      0.000
REMARK  10 active torsions:
REMARK  status: ('A' for Active; 'I' for Inactive)
REMARK    1  A    between atoms: C11_18  and  O3_3 
REMARK    2  A    between atoms: C18_25  and  O3_3 
REMARK    3  A    between atoms: C5_12  and  N1_6 
REMARK       I    between atoms: C7_14  and  N1_6 
REMARK       I    between atoms: C11_18  and  N2_7 
REMARK    4  A    between atoms: C6_13  and  N2_7 
REMARK    5  A    between atoms: C1_8  and  C2_9 
REMARK    6  A    between atoms: C1_8  and  C3_10 
REMARK    7  A    between atoms: C2_9  and  C4_11 
REMARK    8  A    between atoms: C3_10  and  C5_12 
REMARK    9  A    between atoms: C4_11  and  C6_13 
REMARK   10  A    between atoms: C7_14  and  C8_15 
ROOT
HETATM    1  O2  UNK     1      18.377   1.641  28.494  1.00  0.00    -0.267 OA
HETATM    2  N1  UNK     1      20.123   0.826  29.808  1.00  0.00    -0.357 N 
HETATM    3  C7  UNK     1      19.043   1.644  29.524  1.00  0.00     0.257 C 
HETATM    4  H13 UNK     1      20.589   0.892  30.708  1.00  0.00     0.162 HD
ENDROOT
BRANCH   2   5
HETATM    5  C5  UNK     1      20.618  -0.166  28.892  1.00  0.00     0.123 C 
BRANCH   5   6
HETATM    6  C3  UNK     1      19.960  -1.527  29.093  1.00  0.00     0.020 C 
BRANCH   6   7
HETATM    7  C1  UNK     1      20.656  -2.363  30.173  1.00  0.00     0.002 C 
BRANCH   7   8
HETATM    8  C2  UNK     1      20.036  -2.111  31.550  1.00  0.00     0.002 C 
BRANCH   8   9
HETATM    9  C4  UNK     1      20.943  -2.531  32.712  1.00  0.00     0.020 C 
BRANCH   9  10
HETATM   10  C6  UNK     1      20.279  -2.513  34.086  1.00  0.00     0.125 C 
BRANCH  10  11
HETATM   11  N2  UNK     1      19.458  -1.351  34.288  1.00  0.00    -0.337 N 
HETATM   12  C11 UNK     1      18.879  -1.014  35.498  1.00  0.00     0.360 C 
HETATM   13  O4  UNK     1      18.987  -1.652  36.541  1.00  0.00    -0.239 OA
HETATM   14  H14 UNK     1      19.268  -0.754  33.489  1.00  0.00     0.164 HD
BRANCH  12  15
HETATM   15  O3  UNK     1      18.161   0.141  35.367  1.00  0.00    -0.304 OA
BRANCH  15  16
HETATM   16  C18 UNK     1      18.539   1.213  36.236  1.00  0.00     0.176 C 
HETATM   17  C19 UNK     1      17.311   1.718  36.961  1.00  0.00     0.034 C 
ENDBRANCH  15  16
ENDBRANCH  12  15
ENDBRANCH  10  11
ENDBRANCH   9  10
ENDBRANCH   8   9
ENDBRANCH   7   8
ENDBRANCH   6   7
ENDBRANCH   5   6
ENDBRANCH   2   5
BRANCH   3  18
HETATM   18  C8  UNK     1      18.726   2.577  30.620  1.00  0.00     0.108 A 
HETATM   19  C10 UNK     1      18.763   3.881  30.318  1.00  0.00     0.037 A 
HETATM   20  C9  UNK     1      18.466   4.879  31.333  1.00  0.00    -0.001 A 
HETATM   21  C12 UNK     1      18.143   4.455  32.619  1.00  0.00     0.089 A 
HETATM   22  C14 UNK     1      18.493   6.249  31.062  1.00  0.00     0.014 A 
HETATM   23  O1  UNK     1      18.106   3.082  32.931  1.00  0.00    -0.274 OA
HETATM   24  C15 UNK     1      17.849   5.359  33.636  1.00  0.00     0.038 A 
HETATM   25  C13 UNK     1      18.385   2.104  31.980  1.00  0.00     0.304 A 
HETATM   26  O5  UNK     1      18.350   0.911  32.263  1.00  0.00    -0.259 OA
HETATM   27  C17 UNK     1      17.879   6.724  33.357  1.00  0.00     0.003 A 
HETATM   28  C16 UNK     1      18.200   7.168  32.073  1.00  0.00     0.001 A 
ENDBRANCH   3  18
TORSDOF 10
ENDMDL
MODEL 2
REMARK VINA RESULT:      -8.2      1.968      3.061
REMARK  10 active torsions:
REMARK  status: ('A' for Active; 'I' for Inactive)
REMARK    1  A    between atoms: C11_18  and  O3_3 
REMARK    2  A    between atoms: C18_25  and  O3_3 
REMARK    3  A    between atoms: C5_12  and  N1_6 
REMARK       I    between atoms: C7_14  and  N1_6 
REMARK       I    between atoms: C11_18  and  N2_7 
REMARK    4  A    between atoms: C6_13  and  N2_7 
REMARK    5  A    between atoms: C1_8  and  C2_9 
REMARK    6  A    between atoms: C1_8  and  C3_10 
REMARK    7  A    between atoms: C2_9  and  C4_11 
REMARK    8  A    between atoms: C3_10  and  C5_12 
REMARK    9  A    between atoms: C4_11  and  C6_13 
REMARK   10  A    between atoms: C7_14  and  C8_15 
ROOT
HETATM    1  O2  UNK     1      17.910   2.367  32.122  1.00  0.00    -0.267 OA
HETATM    2  N1  UNK     1      18.294   3.237  29.993  1.00  0.00    -0.357 N 
HETATM    3  C7  UNK     1      18.161   3.302  31.369  1.00  0.00     0.257 C 
HETATM    4  H13 UNK     1      18.533   4.072  29.465  1.00  0.00     0.162 HD
ENDROOT
BRANCH   2   5
HETATM    5  C5  UNK     1      18.147   2.018  29.247  1.00  0.00     0.123 C 
BRANCH   5   6
HETATM    6  C3  UNK     1      19.425   1.185  29.228  1.00  0.00     0.020 C 
BRANCH   6   7
HETATM    7  C1  UNK     1      19.282  -0.093  28.394  1.00  0.00     0.002 C 
BRANCH   7   8
HETATM    8  C2  UNK     1      20.068  -1.250  29.018  1.00  0.00     0.002 C 
BRANCH   8   9
HETATM    9  C4  UNK     1      20.527  -0.969  30.453  1.00  0.00     0.020 C 
BRANCH   9  10
HETATM   10  C6  UNK     1      19.938  -1.899  31.510  1.00  0.00     0.125 C 
BRANCH  10  11
HETATM   11  N2  UNK     1      18.741  -1.372  32.105  1.00  0.00    -0.337 N 
HETATM   12  C11 UNK     1      18.606  -1.093  33.454  1.00  0.00     0.360 C 
HETATM   13  O4  UNK     1      19.474  -1.258  34.305  1.00  0.00    -0.239 OA
HETATM   14  H14 UNK     1      17.936  -1.217  31.507  1.00  0.00     0.164 HD
BRANCH  12  15
HETATM   15  O3  UNK     1      17.355  -0.605  33.707  1.00  0.00    -0.304 OA
BRANCH  15  16
HETATM   16  C18 UNK     1      16.890  -0.747  35.053  1.00  0.00     0.176 C 
HETATM   17  C19 UNK     1      15.787   0.258  35.303  1.00  0.00     0.034 C 
ENDBRANCH  15  16
ENDBRANCH  12  15
ENDBRANCH  10  11
ENDBRANCH   9  10
ENDBRANCH   8   9
ENDBRANCH   7   8
ENDBRANCH   6   7
ENDBRANCH   5   6
ENDBRANCH   2   5
BRANCH   3  18
HETATM   18  C8  UNK     1      18.359   4.662  31.902  1.00  0.00     0.108 A 
HETATM   19  C10 UNK     1      17.499   5.058  32.849  1.00  0.00     0.037 A 
HETATM   20  C9  UNK     1      17.613   6.383  33.437  1.00  0.00    -0.001 A 
HETATM   21  C12 UNK     1      18.627   7.229  32.997  1.00  0.00     0.089 A 
HETATM   22  C14 UNK     1      16.739   6.837  34.427  1.00  0.00     0.014 A 
HETATM   23  O1  UNK     1      19.528   6.807  32.000  1.00  0.00    -0.274 OA
HETATM   24  C15 UNK     1      18.790   8.510  33.518  1.00  0.00     0.038 A 
HETATM   25  C13 UNK     1      19.445   5.544  31.420  1.00  0.00     0.304 A 
HETATM   26  O5  UNK     1      20.234   5.187  30.553  1.00  0.00    -0.259 OA
HETATM   27  C17 UNK     1      17.913   8.955  34.505  1.00  0.00     0.003 A 
HETATM   28  C16 UNK     1      16.890   8.121  34.959  1.00  0.00     0.001 A 
ENDBRANCH   3  18
TORSDOF 10
ENDMDL
MODEL 3
REMARK VINA RESULT:      -8.2      3.047      7.511
REMARK  10 active torsions:
REMARK  status: ('A' for Active; 'I' for Inactive)
REMARK    1  A    between atoms: C11_18  and  O3_3 
REMARK    2  A    between atoms: C18_25  and  O3_3 
REMARK    3  A    between atoms: C5_12  and  N1_6 
REMARK       I    between atoms: C7_14  and  N1_6 
REMARK       I    between atoms: C11_18  and  N2_7 
REMARK    4  A    between atoms: C6_13  and  N2_7 
REMARK    5  A    between atoms: C1_8  and  C2_9 
REMARK    6  A    between atoms: C1_8  and  C3_10 
REMARK    7  A    between atoms: C2_9  and  C4_11 
REMARK    8  A    between atoms: C3_10  and  C5_12 
REMARK    9  A    between atoms: C4_11  and  C6_13 
REMARK   10  A    between atoms: C7_14  and  C8_15 
ROOT
HETATM    1  O2  UNK     1      17.950   3.071  28.667  1.00  0.00    -0.267 OA
HETATM    2  N1  UNK     1      19.252   4.166  30.262  1.00  0.00    -0.357 N 
HETATM    3  C7  UNK     1      18.658   3.065  29.668  1.00  0.00     0.257 C 
HETATM    4  H13 UNK     1      19.845   4.046  31.077  1.00  0.00     0.162 HD
ENDROOT
BRANCH   2   5
HETATM    5  C5  UNK     1      19.104   5.504  29.758  1.00  0.00     0.123 C 
BRANCH   5   6
HETATM    6  C3  UNK     1      19.198   6.557  30.858  1.00  0.00     0.020 C 
BRANCH   6   7
HETATM    7  C1  UNK     1      19.894   6.030  32.119  1.00  0.00     0.002 C 
BRANCH   7   8
HETATM    8  C2  UNK     1      19.165   6.489  33.385  1.00  0.00     0.002 C 
BRANCH   8   9
HETATM    9  C4  UNK     1      17.825   5.777  33.608  1.00  0.00     0.020 C 
BRANCH   9  10
HETATM   10  C6  UNK     1      16.733   6.134  32.603  1.00  0.00     0.125 C 
BRANCH  10  11
HETATM   11  N2  UNK     1      16.018   7.327  32.964  1.00  0.00    -0.337 N 
HETATM   12  C11 UNK     1      15.793   8.385  32.101  1.00  0.00     0.360 C 
HETATM   13  O4  UNK     1      16.168   8.443  30.935  1.00  0.00    -0.239 OA
HETATM   14  H14 UNK     1      15.680   7.413  33.918  1.00  0.00     0.164 HD
BRANCH  12  15
HETATM   15  O3  UNK     1      15.088   9.366  32.739  1.00  0.00    -0.304 OA
BRANCH  15  16
HETATM   16  C18 UNK     1      14.508   9.001  33.996  1.00  0.00     0.176 C 
HETATM   17  C19 UNK     1      14.377  10.239  34.857  1.00  0.00     0.034 C 
ENDBRANCH  15  16
ENDBRANCH  12  15
ENDBRANCH  10  11
ENDBRANCH   9  10
ENDBRANCH   8   9
ENDBRANCH   7   8
ENDBRANCH   6   7
ENDBRANCH   5   6
ENDBRANCH   2   5
BRANCH   3  18
HETATM   18  C8  UNK     1      18.959   1.803  30.368  1.00  0.00     0.108 A 
HETATM   19  C10 UNK     1      19.585   0.862  29.650  1.00  0.00     0.037 A 
HETATM   20  C9  UNK     1      19.924  -0.417  30.252  1.00  0.00    -0.001 A 
HETATM   21  C12 UNK     1      19.586  -0.644  31.583  1.00  0.00     0.089 A 
HETATM   22  C14 UNK     1      20.577  -1.426  29.541  1.00  0.00     0.014 A 
HETATM   23  O1  UNK     1      18.927   0.349  32.334  1.00  0.00    -0.274 OA
HETATM   24  C15 UNK     1      19.882  -1.847  32.220  1.00  0.00     0.038 A 
HETATM   25  C13 UNK     1      18.590   1.584  31.784  1.00  0.00     0.304 A 
HETATM   26  O5  UNK     1      18.016   2.441  32.446  1.00  0.00    -0.259 OA
HETATM   27  C17 UNK     1      20.532  -2.849  31.502  1.00  0.00     0.003 A 
HETATM   28  C16 UNK     1      20.879  -2.639  30.166  1.00  0.00     0.001 A 
ENDBRANCH   3  18
TORSDOF 10
ENDMDL
MODEL 4
REMARK VINA RESULT:      -8.0      3.113      7.640
REMARK  10 active torsions:
REMARK  status: ('A' for Active; 'I' for Inactive)
REMARK    1  A    between atoms: C11_18  and  O3_3 
REMARK    2  A    between atoms: C18_25  and  O3_3 
REMARK    3  A    between atoms: C5_12  and  N1_6 
REMARK       I    between atoms: C7_14  and  N1_6 
REMARK       I    between atoms: C11_18  and  N2_7 
REMARK    4  A    between atoms: C6_13  and  N2_7 
REMARK    5  A    between atoms: C1_8  and  C2_9 
REMARK    6  A    between atoms: C1_8  and  C3_10 
REMARK    7  A    between atoms: C2_9  and  C4_11 
REMARK    8  A    between atoms: C3_10  and  C5_12 
REMARK    9  A    between atoms: C4_11  and  C6_13 
REMARK   10  A    between atoms: C7_14  and  C8_15 
ROOT
HETATM    1  O2  UNK     1      18.018   3.189  28.713  1.00  0.00    -0.267 OA
HETATM    2  N1  UNK     1      19.293   4.231  30.363  1.00  0.00    -0.357 N 
HETATM    3  C7  UNK     1      18.703   3.151  29.729  1.00  0.00     0.257 C 
HETATM    4  H13 UNK     1      19.868   4.085  31.189  1.00  0.00     0.162 HD
ENDROOT
BRANCH   2   5
HETATM    5  C5  UNK     1      19.171   5.583  29.890  1.00  0.00     0.123 C 
BRANCH   5   6
HETATM    6  C3  UNK     1      18.350   6.460  30.831  1.00  0.00     0.020 C 
BRANCH   6   7
HETATM    7  C1  UNK     1      18.545   6.084  32.304  1.00  0.00     0.002 C 
BRANCH   7   8
HETATM    8  C2  UNK     1      19.721   6.849  32.918  1.00  0.00     0.002 C 
BRANCH   8   9
HETATM    9  C4  UNK     1      19.374   7.535  34.245  1.00  0.00     0.020 C 
BRANCH   9  10
HETATM   10  C6  UNK     1      18.894   8.978  34.116  1.00  0.00     0.125 C 
BRANCH  10  11
HETATM   11  N2  UNK     1      17.644   9.085  33.416  1.00  0.00    -0.337 N 
HETATM   12  C11 UNK     1      16.408   9.108  34.037  1.00  0.00     0.360 C 
HETATM   13  O4  UNK     1      16.220   9.041  35.248  1.00  0.00    -0.239 OA
HETATM   14  H14 UNK     1      17.665   9.119  32.401  1.00  0.00     0.164 HD
BRANCH  12  15
HETATM   15  O3  UNK     1      15.418   9.216  33.103  1.00  0.00    -0.304 OA
BRANCH  15  16
HETATM   16  C18 UNK     1      15.399   8.202  32.092  1.00  0.00     0.176 C 
HETATM   17  C19 UNK     1      14.197   7.310  32.310  1.00  0.00     0.034 C 
ENDBRANCH  15  16
ENDBRANCH  12  15
ENDBRANCH  10  11
ENDBRANCH   9  10
ENDBRANCH   8   9
ENDBRANCH   7   8
ENDBRANCH   6   7
ENDBRANCH   5   6
ENDBRANCH   2   5
BRANCH   3  18
HETATM   18  C8  UNK     1      18.975   1.870  30.404  1.00  0.00     0.108 A 
HETATM   19  C10 UNK     1      19.600   0.937  29.674  1.00  0.00     0.037 A 
HETATM   20  C9  UNK     1      19.912  -0.360  30.252  1.00  0.00    -0.001 A 
HETATM   21  C12 UNK     1      19.551  -0.613  31.572  1.00  0.00     0.089 A 
HETATM   22  C14 UNK     1      20.563  -1.362  29.527  1.00  0.00     0.014 A 
HETATM   23  O1  UNK     1      18.893   0.371  32.335  1.00  0.00    -0.274 OA
HETATM   24  C15 UNK     1      19.820  -1.835  32.184  1.00  0.00     0.038 A 
HETATM   25  C13 UNK     1      18.582   1.623  31.809  1.00  0.00     0.304 A 
HETATM   26  O5  UNK     1      18.009   2.473  32.481  1.00  0.00    -0.259 OA
HETATM   27  C17 UNK     1      20.469  -2.829  31.454  1.00  0.00     0.003 A 
HETATM   28  C16 UNK     1      20.839  -2.593  30.129  1.00  0.00     0.001 A 
ENDBRANCH   3  18
TORSDOF 10
ENDMDL
MODEL 5
REMARK VINA RESULT:      -8.0      1.868      5.763
REMARK  10 active torsions:
REMARK  status: ('A' for Active; 'I' for Inactive)
REMARK    1  A    between atoms: C11_18  and  O3_3 
REMARK    2  A    between atoms: C18_25  and  O3_3 
REMARK    3  A    between atoms: C5_12  and  N1_6 
REMARK       I    between atoms: C7_14  and  N1_6 
REMARK       I    between atoms: C11_18  and  N2_7 
REMARK    4  A    between atoms: C6_13  and  N2_7 
REMARK    5  A    between atoms: C1_8  and  C2_9 
REMARK    6  A    between atoms: C1_8  and  C3_10 
REMARK    7  A    between atoms: C2_9  and  C4_11 
REMARK    8  A    between atoms: C3_10  and  C5_12 
REMARK    9  A    between atoms: C4_11  and  C6_13 
REMARK   10  A    between atoms: C7_14  and  C8_15 
ROOT
HETATM    1  O2  UNK     1      17.967   2.582  28.366  1.00  0.00    -0.267 OA
HETATM    2  N1  UNK     1      19.001   3.867  30.014  1.00  0.00    -0.357 N 
HETATM    3  C7  UNK     1      18.573   2.689  29.426  1.00  0.00     0.257 C 
HETATM    4  H13 UNK     1      19.523   3.841  30.885  1.00  0.00     0.162 HD
ENDROOT
BRANCH   2   5
HETATM    5  C5  UNK     1      18.776   5.162  29.431  1.00  0.00     0.123 C 
BRANCH   5   6
HETATM    6  C3  UNK     1      19.474   6.279  30.201  1.00  0.00     0.020 C 
BRANCH   6   7
HETATM    7  C1  UNK     1      20.380   5.747  31.317  1.00  0.00     0.002 C 
BRANCH   7   8
HETATM    8  C2  UNK     1      19.922   6.251  32.688  1.00  0.00     0.002 C 
BRANCH   8   9
HETATM    9  C4  UNK     1      18.839   5.374  33.328  1.00  0.00     0.020 C 
BRANCH   9  10
HETATM   10  C6  UNK     1      19.282   4.611  34.573  1.00  0.00     0.125 C 
BRANCH  10  11
HETATM   11  N2  UNK     1      18.515   3.416  34.791  1.00  0.00    -0.337 N 
HETATM   12  C11 UNK     1      18.938   2.356  35.573  1.00  0.00     0.360 C 
HETATM   13  O4  UNK     1      20.006   2.298  36.174  1.00  0.00    -0.239 OA
HETATM   14  H14 UNK     1      17.618   3.330  34.321  1.00  0.00     0.164 HD
BRANCH  12  15
HETATM   15  O3  UNK     1      17.989   1.374  35.582  1.00  0.00    -0.304 OA
BRANCH  15  16
HETATM   16  C18 UNK     1      17.228   1.252  36.788  1.00  0.00     0.176 C 
HETATM   17  C19 UNK     1      15.869   0.674  36.458  1.00  0.00     0.034 C 
ENDBRANCH  15  16
ENDBRANCH  12  15
ENDBRANCH  10  11
ENDBRANCH   9  10
ENDBRANCH   8   9
ENDBRANCH   7   8
ENDBRANCH   6   7
ENDBRANCH   5   6
ENDBRANCH   2   5
BRANCH   3  18
HETATM   18  C8  UNK     1      18.924   1.493  30.214  1.00  0.00     0.108 A 
HETATM   19  C10 UNK     1      19.579   0.525  29.561  1.00  0.00     0.037 A 
HETATM   20  C9  UNK     1      19.968  -0.693  30.253  1.00  0.00    -0.001 A 
HETATM   21  C12 UNK     1      19.647  -0.833  31.600  1.00  0.00     0.089 A 
HETATM   22  C14 UNK     1      20.652  -1.729  29.612  1.00  0.00     0.014 A 
HETATM   23  O1  UNK     1      18.958   0.189  32.282  1.00  0.00    -0.274 OA
HETATM   24  C15 UNK     1      19.991  -1.975  32.321  1.00  0.00     0.038 A 
HETATM   25  C13 UNK     1      18.574   1.366  31.646  1.00  0.00     0.304 A 
HETATM   26  O5  UNK     1      17.973   2.250  32.248  1.00  0.00    -0.259 OA
HETATM   27  C17 UNK     1      20.672  -3.003  31.673  1.00  0.00     0.003 A 
HETATM   28  C16 UNK     1      21.002  -2.880  30.322  1.00  0.00     0.001 A 
ENDBRANCH   3  18
TORSDOF 10
ENDMDL
MODEL 6
REMARK VINA RESULT:      -7.9      5.377      8.381
REMARK  10 active torsions:
REMARK  status: ('A' for Active; 'I' for Inactive)
REMARK    1  A    between atoms: C11_18  and  O3_3 
REMARK    2  A    between atoms: C18_25  and  O3_3 
REMARK    3  A    between atoms: C5_12  and  N1_6 
REMARK       I    between atoms: C7_14  and  N1_6 
REMARK       I    between atoms: C11_18  and  N2_7 
REMARK    4  A    between atoms: C6_13  and  N2_7 
REMARK    5  A    between atoms: C1_8  and  C2_9 
REMARK    6  A    between atoms: C1_8  and  C3_10 
REMARK    7  A    between atoms: C2_9  and  C4_11 
REMARK    8  A    between atoms: C3_10  and  C5_12 
REMARK    9  A    between atoms: C4_11  and  C6_13 
REMARK   10  A    between atoms: C7_14  and  C8_15 
ROOT
HETATM    1  O2  UNK     1      21.032  -4.534  37.111  1.00  0.00    -0.267 OA
HETATM    2  N1  UNK     1      18.869  -5.148  36.494  1.00  0.00    -0.357 N 
HETATM    3  C7  UNK     1      19.914  -4.261  36.686  1.00  0.00     0.257 C 
HETATM    4  H13 UNK     1      17.988  -4.821  36.108  1.00  0.00     0.162 HD
ENDROOT
BRANCH   2   5
HETATM    5  C5  UNK     1      18.968  -6.553  36.783  1.00  0.00     0.123 C 
BRANCH   5   6
HETATM    6  C3  UNK     1      19.037  -7.406  35.520  1.00  0.00     0.020 C 
BRANCH   6   7
HETATM    7  C1  UNK     1      20.443  -7.442  34.910  1.00  0.00     0.002 C 
BRANCH   7   8
HETATM    8  C2  UNK     1      21.393  -8.288  35.763  1.00  0.00     0.002 C 
BRANCH   8   9
HETATM    9  C4  UNK     1      21.485  -9.748  35.305  1.00  0.00     0.020 C 
BRANCH   9  10
HETATM   10  C6  UNK     1      21.110 -10.779  36.366  1.00  0.00     0.125 C 
BRANCH  10  11
HETATM   11  N2  UNK     1      21.278 -10.282  37.704  1.00  0.00    -0.337 N 
HETATM   12  C11 UNK     1      20.238  -9.838  38.501  1.00  0.00     0.360 C 
HETATM   13  O4  UNK     1      19.055  -9.811  38.176  1.00  0.00    -0.239 OA
HETATM   14  H14 UNK     1      22.220 -10.226  38.080  1.00  0.00     0.164 HD
BRANCH  12  15
HETATM   15  O3  UNK     1      20.719  -9.430  39.712  1.00  0.00    -0.304 OA
BRANCH  15  16
HETATM   16  C18 UNK     1      21.864  -8.572  39.672  1.00  0.00     0.176 C 
HETATM   17  C19 UNK     1      21.408  -7.151  39.422  1.00  0.00     0.034 C 
ENDBRANCH  15  16
ENDBRANCH  12  15
ENDBRANCH  10  11
ENDBRANCH   9  10
ENDBRANCH   8   9
ENDBRANCH   7   8
ENDBRANCH   6   7
ENDBRANCH   5   6
ENDBRANCH   2   5
BRANCH   3  18
HETATM   18  C8  UNK     1      19.569  -2.877  36.316  1.00  0.00     0.108 A 
HETATM   19  C10 UNK     1      18.853  -2.186  37.212  1.00  0.00     0.037 A 
HETATM   20  C9  UNK     1      18.463  -0.812  36.938  1.00  0.00    -0.001 A 
HETATM   21  C12 UNK     1      18.846  -0.233  35.731  1.00  0.00     0.089 A 
HETATM   22  C14 UNK     1      17.718  -0.054  37.843  1.00  0.00     0.014 A 
HETATM   23  O1  UNK     1      19.598  -0.965  34.792  1.00  0.00    -0.274 OA
HETATM   24  C15 UNK     1      18.504   1.078  35.407  1.00  0.00     0.038 A 
HETATM   25  C13 UNK     1      19.986  -2.281  35.028  1.00  0.00     0.304 A 
HETATM   26  O5  UNK     1      20.641  -2.910  34.204  1.00  0.00    -0.259 OA
HETATM   27  C17 UNK     1      17.759   1.827  36.316  1.00  0.00     0.003 A 
HETATM   28  C16 UNK     1      17.367   1.263  37.531  1.00  0.00     0.001 A 
ENDBRANCH   3  18
TORSDOF 10
ENDMDL
MODEL 7
REMARK VINA RESULT:      -7.9      4.429     10.138
REMARK  10 active torsions:
REMARK  status: ('A' for Active; 'I' for Inactive)
REMARK    1  A    between atoms: C11_18  and  O3_3 
REMARK    2  A    between atoms: C18_25  and  O3_3 
REMARK    3  A    between atoms: C5_12  and  N1_6 
REMARK       I    between atoms: C7_14  and  N1_6 
REMARK       I    between atoms: C11_18  and  N2_7 
REMARK    4  A    between atoms: C6_13  and  N2_7 
REMARK    5  A    between atoms: C1_8  and  C2_9 
REMARK    6  A    between atoms: C1_8  and  C3_10 
REMARK    7  A    between atoms: C2_9  and  C4_11 
REMARK    8  A    between atoms: C3_10  and  C5_12 
REMARK    9  A    between atoms: C4_11  and  C6_13 
REMARK   10  A    between atoms: C7_14  and  C8_15 
ROOT
HETATM    1  O2  UNK     1      20.493  -3.393  35.568  1.00  0.00    -0.267 OA
HETATM    2  N1  UNK     1      18.563  -3.076  36.837  1.00  0.00    -0.357 N 
HETATM    3  C7  UNK     1      19.689  -3.762  36.417  1.00  0.00     0.257 C 
HETATM    4  H13 UNK     1      17.977  -3.460  37.572  1.00  0.00     0.162 HD
ENDROOT
BRANCH   2   5
HETATM    5  C5  UNK     1      18.180  -1.796  36.306  1.00  0.00     0.123 C 
BRANCH   5   6
HETATM    6  C3  UNK     1      17.614  -0.865  37.373  1.00  0.00     0.020 C 
BRANCH   6   7
HETATM    7  C1  UNK     1      16.945   0.378  36.774  1.00  0.00     0.002 C 
BRANCH   7   8
HETATM    8  C2  UNK     1      17.884   1.587  36.822  1.00  0.00     0.002 C 
BRANCH   8   9
HETATM    9  C4  UNK     1      18.501   1.932  35.462  1.00  0.00     0.020 C 
BRANCH   9  10
HETATM   10  C6  UNK     1      17.801   1.303  34.260  1.00  0.00     0.125 C 
BRANCH  10  11
HETATM   11  N2  UNK     1      18.723   0.881  33.242  1.00  0.00    -0.337 N 
HETATM   12  C11 UNK     1      18.668  -0.348  32.610  1.00  0.00     0.360 C 
HETATM   13  O4  UNK     1      17.839  -1.225  32.830  1.00  0.00    -0.239 OA
HETATM   14  H14 UNK     1      19.479   1.511  32.989  1.00  0.00     0.164 HD
BRANCH  12  15
HETATM   15  O3  UNK     1      19.678  -0.449  31.695  1.00  0.00    -0.304 OA
BRANCH  15  16
HETATM   16  C18 UNK     1      20.294  -1.736  31.584  1.00  0.00     0.176 C 
HETATM   17  C19 UNK     1      20.394  -2.110  30.121  1.00  0.00     0.034 C 
ENDBRANCH  15  16
ENDBRANCH  12  15
ENDBRANCH  10  11
ENDBRANCH   9  10
ENDBRANCH   8   9
ENDBRANCH   7   8
ENDBRANCH   6   7
ENDBRANCH   5   6
ENDBRANCH   2   5
BRANCH   3  18
HETATM   18  C8  UNK     1      19.869  -5.050  37.112  1.00  0.00     0.108 A 
HETATM   19  C10 UNK     1      21.019  -5.208  37.779  1.00  0.00     0.037 A 
HETATM   20  C9  UNK     1      21.288  -6.444  38.496  1.00  0.00    -0.001 A 
HETATM   21  C12 UNK     1      20.332  -7.456  38.474  1.00  0.00     0.089 A 
HETATM   22  C14 UNK     1      22.473  -6.652  39.205  1.00  0.00     0.014 A 
HETATM   23  O1  UNK     1      19.125  -7.285  37.769  1.00  0.00    -0.274 OA
HETATM   24  C15 UNK     1      20.528  -8.664  39.138  1.00  0.00     0.038 A 
HETATM   25  C13 UNK     1      18.839  -6.112  37.075  1.00  0.00     0.304 A 
HETATM   26  O5  UNK     1      17.785  -5.973  36.465  1.00  0.00    -0.259 OA
HETATM   27  C17 UNK     1      21.714  -8.863  39.843  1.00  0.00     0.003 A 
HETATM   28  C16 UNK     1      22.684  -7.860  39.877  1.00  0.00     0.001 A 
ENDBRANCH   3  18
TORSDOF 10
ENDMDL
MODEL 8
REMARK VINA RESULT:      -7.8      2.536      3.814
REMARK  10 active torsions:
REMARK  status: ('A' for Active; 'I' for Inactive)
REMARK    1  A    between atoms: C11_18  and  O3_3 
REMARK    2  A    between atoms: C18_25  and  O3_3 
REMARK    3  A    between atoms: C5_12  and  N1_6 
REMARK       I    between atoms: C7_14  and  N1_6 
REMARK       I    between atoms: C11_18  and  N2_7 
REMARK    4  A    between atoms: C6_13  and  N2_7 
REMARK    5  A    between atoms: C1_8  and  C2_9 
REMARK    6  A    between atoms: C1_8  and  C3_10 
REMARK    7  A    between atoms: C2_9  and  C4_11 
REMARK    8  A    between atoms: C3_10  and  C5_12 
REMARK    9  A    between atoms: C4_11  and  C6_13 
REMARK   10  A    between atoms: C7_14  and  C8_15 
ROOT
HETATM    1  O2  UNK     1      19.898   4.994  30.202  1.00  0.00    -0.267 OA
HETATM    2  N1  UNK     1      18.379   3.784  31.492  1.00  0.00    -0.357 N 
HETATM    3  C7  UNK     1      19.052   4.924  31.087  1.00  0.00     0.257 C 
HETATM    4  H13 UNK     1      17.673   3.842  32.220  1.00  0.00     0.162 HD
ENDROOT
BRANCH   2   5
HETATM    5  C5  UNK     1      18.598   2.492  30.902  1.00  0.00     0.123 C 
BRANCH   5   6
HETATM    6  C3  UNK     1      18.150   2.429  29.446  1.00  0.00     0.020 C 
BRANCH   6   7
HETATM    7  C1  UNK     1      18.508   1.097  28.777  1.00  0.00     0.002 C 
BRANCH   7   8
HETATM    8  C2  UNK     1      19.880   0.599  29.239  1.00  0.00     0.002 C 
BRANCH   8   9
HETATM    9  C4  UNK     1      19.982  -0.929  29.302  1.00  0.00     0.020 C 
BRANCH   9  10
HETATM   10  C6  UNK     1      20.006  -1.515  30.711  1.00  0.00     0.125 C 
BRANCH  10  11
HETATM   11  N2  UNK     1      18.867  -1.121  31.493  1.00  0.00    -0.337 N 
HETATM   12  C11 UNK     1      18.817  -1.183  32.874  1.00  0.00     0.360 C 
HETATM   13  O4  UNK     1      19.723  -1.577  33.601  1.00  0.00    -0.239 OA
HETATM   14  H14 UNK     1      18.037  -0.801  31.003  1.00  0.00     0.164 HD
BRANCH  12  15
HETATM   15  O3  UNK     1      17.603  -0.740  33.318  1.00  0.00    -0.304 OA
BRANCH  15  16
HETATM   16  C18 UNK     1      17.505  -0.496  34.725  1.00  0.00     0.176 C 
HETATM   17  C19 UNK     1      16.077  -0.129  35.063  1.00  0.00     0.034 C 
ENDBRANCH  15  16
ENDBRANCH  12  15
ENDBRANCH  10  11
ENDBRANCH   9  10
ENDBRANCH   8   9
ENDBRANCH   7   8
ENDBRANCH   6   7
ENDBRANCH   5   6
ENDBRANCH   2   5
BRANCH   3  18
HETATM   18  C8  UNK     1      18.653   6.126  31.841  1.00  0.00     0.108 A 
HETATM   19  C10 UNK     1      17.425   6.598  31.595  1.00  0.00     0.037 A 
HETATM   20  C9  UNK     1      16.940   7.780  32.289  1.00  0.00    -0.001 A 
HETATM   21  C12 UNK     1      17.774   8.408  33.211  1.00  0.00     0.089 A 
HETATM   22  C14 UNK     1      15.667   8.308  32.064  1.00  0.00     0.014 A 
HETATM   23  O1  UNK     1      19.065   7.906  33.466  1.00  0.00    -0.274 OA
HETATM   24  C15 UNK     1      17.370   9.544  33.909  1.00  0.00     0.038 A 
HETATM   25  C13 UNK     1      19.556   6.776  32.817  1.00  0.00     0.304 A 
HETATM   26  O5  UNK     1      20.681   6.348  33.046  1.00  0.00    -0.259 OA
HETATM   27  C17 UNK     1      16.099  10.064  33.677  1.00  0.00     0.003 A 
HETATM   28  C16 UNK     1      15.249   9.447  32.757  1.00  0.00     0.001 A 
ENDBRANCH   3  18
TORSDOF 10
ENDMDL
MODEL 9
REMARK VINA RESULT:      -7.8      4.829     10.656
REMARK  10 active torsions:
REMARK  status: ('A' for Active; 'I' for Inactive)
REMARK    1  A    between atoms: C11_18  and  O3_3 
REMARK    2  A    between atoms: C18_25  and  O3_3 
REMARK    3  A    between atoms: C5_12  and  N1_6 
REMARK       I    between atoms: C7_14  and  N1_6 
REMARK       I    between atoms: C11_18  and  N2_7 
REMARK    4  A    between atoms: C6_13  and  N2_7 
REMARK    5  A    between atoms: C1_8  and  C2_9 
REMARK    6  A    between atoms: C1_8  and  C3_10 
REMARK    7  A    between atoms: C2_9  and  C4_11 
REMARK    8  A    between atoms: C3_10  and  C5_12 
REMARK    9  A    between atoms: C4_11  and  C6_13 
REMARK   10  A    between atoms: C7_14  and  C8_15 
ROOT
HETATM    1  O2  UNK     1      21.347  -3.917  37.156  1.00  0.00    -0.267 OA
HETATM    2  N1  UNK     1      19.124  -3.787  36.464  1.00  0.00    -0.357 N 
HETATM    3  C7  UNK     1      20.286  -4.442  36.835  1.00  0.00     0.257 C 
HETATM    4  H13 UNK     1      18.288  -4.320  36.244  1.00  0.00     0.162 HD
ENDROOT
BRANCH   2   5
HETATM    5  C5  UNK     1      19.014  -2.355  36.406  1.00  0.00     0.123 C 
BRANCH   5   6
HETATM    6  C3  UNK     1      17.759  -1.836  37.100  1.00  0.00     0.020 C 
BRANCH   6   7
HETATM    7  C1  UNK     1      17.794  -0.319  37.320  1.00  0.00     0.002 C 
BRANCH   7   8
HETATM    8  C2  UNK     1      16.551   0.353  36.731  1.00  0.00     0.002 C 
BRANCH   8   9
HETATM    9  C4  UNK     1      16.620   0.535  35.210  1.00  0.00     0.020 C 
BRANCH   9  10
HETATM   10  C6  UNK     1      17.876   1.239  34.704  1.00  0.00     0.125 C 
BRANCH  10  11
HETATM   11  N2  UNK     1      17.653   1.952  33.476  1.00  0.00    -0.337 N 
HETATM   12  C11 UNK     1      18.246   1.622  32.271  1.00  0.00     0.360 C 
HETATM   13  O4  UNK     1      19.028   0.693  32.093  1.00  0.00    -0.239 OA
HETATM   14  H14 UNK     1      17.044   2.764  33.498  1.00  0.00     0.164 HD
BRANCH  12  15
HETATM   15  O3  UNK     1      17.835   2.485  31.296  1.00  0.00    -0.304 OA
BRANCH  15  16
HETATM   16  C18 UNK     1      18.654   2.539  30.123  1.00  0.00     0.176 C 
HETATM   17  C19 UNK     1      17.901   1.917  28.967  1.00  0.00     0.034 C 
ENDBRANCH  15  16
ENDBRANCH  12  15
ENDBRANCH  10  11
ENDBRANCH   9  10
ENDBRANCH   8   9
ENDBRANCH   7   8
ENDBRANCH   6   7
ENDBRANCH   5   6
ENDBRANCH   2   5
BRANCH   3  18
HETATM   18  C8  UNK     1      20.149  -5.909  36.820  1.00  0.00     0.108 A 
HETATM   19  C10 UNK     1      20.016  -6.504  38.012  1.00  0.00     0.037 A 
HETATM   20  C9  UNK     1      19.874  -7.948  38.100  1.00  0.00    -0.001 A 
HETATM   21  C12 UNK     1      19.880  -8.697  36.927  1.00  0.00     0.089 A 
HETATM   22  C14 UNK     1      19.732  -8.611  39.322  1.00  0.00     0.014 A 
HETATM   23  O1  UNK     1      20.021  -8.066  35.676  1.00  0.00    -0.274 OA
HETATM   24  C15 UNK     1      19.750 -10.084  36.942  1.00  0.00     0.038 A 
HETATM   25  C13 UNK     1      20.157  -6.685  35.560  1.00  0.00     0.304 A 
HETATM   26  O5  UNK     1      20.280  -6.146  34.466  1.00  0.00    -0.259 OA
HETATM   27  C17 UNK     1      19.609 -10.737  38.165  1.00  0.00     0.003 A 
HETATM   28  C16 UNK     1      19.601 -10.002  39.352  1.00  0.00     0.001 A 
ENDBRANCH   3  18
TORSDOF 10
ENDMDL
MODEL 10
REMARK VINA RESULT:      -7.7      5.694      8.902
REMARK  10 active torsions:
REMARK  status: ('A' for Active; 'I' for Inactive)
REMARK    1  A    between atoms: C11_18  and  O3_3 
REMARK    2  A    between atoms: C18_25  and  O3_3 
REMARK    3  A    between atoms: C5_12  and  N1_6 
REMARK       I    between atoms: C7_14  and  N1_6 
REMARK       I    between atoms: C11_18  and  N2_7 
REMARK    4  A    between atoms: C6_13  and  N2_7 
REMARK    5  A    between atoms: C1_8  and  C2_9 
REMARK    6  A    between atoms: C1_8  and  C3_10 
REMARK    7  A    between atoms: C2_9  and  C4_11 
REMARK    8  A    between atoms: C3_10  and  C5_12 
REMARK    9  A    between atoms: C4_11  and  C6_13 
REMARK   10  A    between atoms: C7_14  and  C8_15 
ROOT
HETATM    1  O2  UNK     1      21.153  -4.371  37.230  1.00  0.00    -0.267 OA
HETATM    2  N1  UNK     1      19.747  -5.247  35.589  1.00  0.00    -0.357 N 
HETATM    3  C7  UNK     1      20.309  -4.237  36.351  1.00  0.00     0.257 C 
HETATM    4  H13 UNK     1      19.073  -5.022  34.863  1.00  0.00     0.162 HD
ENDROOT
BRANCH   2   5
HETATM    5  C5  UNK     1      20.097  -6.633  35.742  1.00  0.00     0.123 C 
BRANCH   5   6
HETATM    6  C3  UNK     1      18.917  -7.488  36.191  1.00  0.00     0.020 C 
BRANCH   6   7
HETATM    7  C1  UNK     1      18.513  -7.215  37.645  1.00  0.00     0.002 C 
BRANCH   7   8
HETATM    8  C2  UNK     1      19.738  -7.194  38.563  1.00  0.00     0.002 C 
BRANCH   8   9
HETATM    9  C4  UNK     1      19.828  -8.415  39.486  1.00  0.00     0.020 C 
BRANCH   9  10
HETATM   10  C6  UNK     1      21.166  -9.148  39.453  1.00  0.00     0.125 C 
BRANCH  10  11
HETATM   11  N2  UNK     1      21.708  -9.250  38.126  1.00  0.00    -0.337 N 
HETATM   12  C11 UNK     1      21.312 -10.197  37.199  1.00  0.00     0.360 C 
HETATM   13  O4  UNK     1      20.461 -11.061  37.384  1.00  0.00    -0.239 OA
HETATM   14  H14 UNK     1      22.446  -8.605  37.858  1.00  0.00     0.164 HD
BRANCH  12  15
HETATM   15  O3  UNK     1      22.010 -10.034  36.036  1.00  0.00    -0.304 OA
BRANCH  15  16
HETATM   16  C18 UNK     1      22.450 -11.237  35.397  1.00  0.00     0.176 C 
HETATM   17  C19 UNK     1      23.854 -11.557  35.862  1.00  0.00     0.034 C 
ENDBRANCH  15  16
ENDBRANCH  12  15
ENDBRANCH  10  11
ENDBRANCH   9  10
ENDBRANCH   8   9
ENDBRANCH   7   8
ENDBRANCH   6   7
ENDBRANCH   5   6
ENDBRANCH   2   5
BRANCH   3  18
HETATM   18  C8  UNK     1      19.789  -2.901  36.006  1.00  0.00     0.108 A 
HETATM   19  C10 UNK     1      19.076  -2.280  36.954  1.00  0.00     0.037 A 
HETATM   20  C9  UNK     1      18.521  -0.959  36.708  1.00  0.00    -0.001 A 
HETATM   21  C12 UNK     1      18.745  -0.355  35.475  1.00  0.00     0.089 A 
HETATM   22  C14 UNK     1      17.771  -0.275  37.668  1.00  0.00     0.014 A 
HETATM   23  O1  UNK     1      19.496  -1.012  34.481  1.00  0.00    -0.274 OA
HETATM   24  C15 UNK     1      18.241   0.909  35.175  1.00  0.00     0.038 A 
HETATM   25  C13 UNK     1      20.040  -2.277  34.688  1.00  0.00     0.304 A 
HETATM   26  O5  UNK     1      20.692  -2.842  33.817  1.00  0.00    -0.259 OA
HETATM   27  C17 UNK     1      17.493   1.584  36.138  1.00  0.00     0.003 A 
HETATM   28  C16 UNK     1      17.259   0.994  37.381  1.00  0.00     0.001 A 
ENDBRANCH   3  18
TORSDOF 10
ENDMDL
