MODEL 1
REMARK VINA RESULT:      -7.8      0.000      0.000
REMARK  1 active torsions:
REMARK  status: ('A' for Active; 'I' for Inactive)
REMARK       I    between atoms: C8_12  and  N1_4 
REMARK    1  A    between atoms: C8_12  and  C9_13 
ROOT
HETATM    1  O2  UNK     1      25.477  -5.527  38.651  1.00  0.00    -0.274 OA
HETATM    2  O3  UNK     1      23.214  -5.328  38.891  1.00  0.00    -0.259 OA
HETATM    3  C9  UNK     1      24.111  -7.515  39.054  1.00  0.00     0.108 A 
HETATM    4  C10 UNK     1      25.195  -8.299  39.023  1.00  0.00     0.037 A 
HETATM    5  C11 UNK     1      24.205  -6.049  38.864  1.00  0.00     0.304 A 
HETATM    6  C12 UNK     1      26.512  -7.722  38.798  1.00  0.00    -0.001 A 
HETATM    7  C13 UNK     1      26.622  -6.347  38.618  1.00  0.00     0.089 A 
HETATM    8  C14 UNK     1      27.670  -8.502  38.759  1.00  0.00     0.014 A 
HETATM    9  C15 UNK     1      27.853  -5.732  38.399  1.00  0.00     0.038 A 
HETATM   10  C16 UNK     1      28.912  -7.900  38.541  1.00  0.00     0.001 A 
HETATM   11  C17 UNK     1      29.003  -6.517  38.362  1.00  0.00     0.003 A 
ENDROOT
BRANCH   3  12
HETATM   12  C8  UNK     1      22.822  -8.193  39.287  1.00  0.00     0.260 C 
HETATM   13  O1  UNK     1      22.494  -8.408  40.456  1.00  0.00    -0.267 OA
HETATM   14  N1  UNK     1      22.065  -8.550  38.174  1.00  0.00    -0.347 N 
HETATM   15  C4  UNK     1      20.782  -9.231  38.366  1.00  0.00     0.130 C 
HETATM   16  C5  UNK     1      22.396  -8.279  36.768  1.00  0.00     0.130 C 
HETATM   17  C1  UNK     1      20.760 -10.568  37.615  1.00  0.00    -0.000 C 
HETATM   18  C3  UNK     1      21.124 -10.364  36.134  1.00  0.00     0.011 C 
HETATM   19  C6  UNK     1      19.395 -11.241  37.747  1.00  0.00     0.011 C 
HETATM   20  C2  UNK     1      22.431  -9.574  35.945  1.00  0.00    -0.000 C 
HETATM   21  C7  UNK     1      23.662 -10.419  36.286  1.00  0.00     0.011 C 
ENDBRANCH   3  12
TORSDOF 1
ENDMDL
MODEL 2
REMARK VINA RESULT:      -7.7     10.735     12.469
REMARK  1 active torsions:
REMARK  status: ('A' for Active; 'I' for Inactive)
REMARK       I    between atoms: C8_12  and  N1_4 
REMARK    1  A    between atoms: C8_12  and  C9_13 
ROOT
HETATM    1  O2  UNK     1      18.351   2.061  30.243  1.00  0.00    -0.274 OA
HETATM    2  O3  UNK     1      17.473   3.647  31.635  1.00  0.00    -0.259 OA
HETATM    3  C9  UNK     1      18.488   1.772  32.668  1.00  0.00     0.108 A 
HETATM    4  C10 UNK     1      19.126   0.605  32.520  1.00  0.00     0.037 A 
HETATM    5  C11 UNK     1      18.058   2.578  31.503  1.00  0.00     0.304 A 
HETATM    6  C12 UNK     1      19.417   0.092  31.189  1.00  0.00    -0.001 A 
HETATM    7  C13 UNK     1      19.023   0.834  30.081  1.00  0.00     0.089 A 
HETATM    8  C14 UNK     1      20.082  -1.120  30.988  1.00  0.00     0.014 A 
HETATM    9  C15 UNK     1      19.272   0.399  28.781  1.00  0.00     0.038 A 
HETATM   10  C16 UNK     1      20.339  -1.569  29.690  1.00  0.00     0.001 A 
HETATM   11  C17 UNK     1      19.935  -0.810  28.589  1.00  0.00     0.003 A 
ENDROOT
BRANCH   3  12
HETATM   12  C8  UNK     1      18.238   2.207  34.056  1.00  0.00     0.260 C 
HETATM   13  O1  UNK     1      18.615   3.336  34.376  1.00  0.00    -0.267 OA
HETATM   14  N1  UNK     1      17.599   1.313  34.911  1.00  0.00    -0.347 N 
HETATM   15  C4  UNK     1      17.339   1.707  36.298  1.00  0.00     0.130 C 
HETATM   16  C5  UNK     1      17.096  -0.023  34.562  1.00  0.00     0.130 C 
HETATM   17  C1  UNK     1      17.967   0.703  37.273  1.00  0.00    -0.000 C 
HETATM   18  C3  UNK     1      17.503  -0.728  36.951  1.00  0.00     0.011 C 
HETATM   19  C6  UNK     1      17.629   1.068  38.717  1.00  0.00     0.011 C 
HETATM   20  C2  UNK     1      17.704  -1.101  35.472  1.00  0.00    -0.000 C 
HETATM   21  C7  UNK     1      19.179  -1.343  35.140  1.00  0.00     0.011 C 
ENDBRANCH   3  12
TORSDOF 1
ENDMDL
MODEL 3
REMARK VINA RESULT:      -7.6      5.991      7.759
REMARK  1 active torsions:
REMARK  status: ('A' for Active; 'I' for Inactive)
REMARK       I    between atoms: C8_12  and  N1_4 
REMARK    1  A    between atoms: C8_12  and  C9_13 
ROOT
HETATM    1  O2  UNK     1      18.418  -1.305  35.064  1.00  0.00    -0.274 OA
HETATM    2  O3  UNK     1      18.110  -1.925  37.242  1.00  0.00    -0.259 OA
HETATM    3  C9  UNK     1      19.842  -3.026  36.059  1.00  0.00     0.108 A 
HETATM    4  C10 UNK     1      20.516  -3.169  34.912  1.00  0.00     0.037 A 
HETATM    5  C11 UNK     1      18.730  -2.058  36.192  1.00  0.00     0.304 A 
HETATM    6  C12 UNK     1      20.167  -2.366  33.750  1.00  0.00    -0.001 A 
HETATM    7  C13 UNK     1      19.125  -1.451  33.854  1.00  0.00     0.089 A 
HETATM    8  C14 UNK     1      20.843  -2.482  32.534  1.00  0.00     0.014 A 
HETATM    9  C15 UNK     1      18.740  -0.651  32.779  1.00  0.00     0.038 A 
HETATM   10  C16 UNK     1      20.470  -1.687  31.447  1.00  0.00     0.001 A 
HETATM   11  C17 UNK     1      19.420  -0.773  31.570  1.00  0.00     0.003 A 
ENDROOT
BRANCH   3  12
HETATM   12  C8  UNK     1      20.272  -3.885  37.179  1.00  0.00     0.260 C 
HETATM   13  O1  UNK     1      21.111  -3.429  37.958  1.00  0.00    -0.267 OA
HETATM   14  N1  UNK     1      19.704  -5.153  37.279  1.00  0.00    -0.347 N 
HETATM   15  C4  UNK     1      20.110  -6.037  38.374  1.00  0.00     0.130 C 
HETATM   16  C5  UNK     1      18.672  -5.721  36.400  1.00  0.00     0.130 C 
HETATM   17  C1  UNK     1      20.643  -7.368  37.828  1.00  0.00    -0.000 C 
HETATM   18  C3  UNK     1      19.621  -8.011  36.875  1.00  0.00     0.011 C 
HETATM   19  C6  UNK     1      20.991  -8.321  38.970  1.00  0.00     0.011 C 
HETATM   20  C2  UNK     1      19.139  -7.045  35.778  1.00  0.00    -0.000 C 
HETATM   21  C7  UNK     1      20.213  -6.813  34.712  1.00  0.00     0.011 C 
ENDBRANCH   3  12
TORSDOF 1
ENDMDL
MODEL 4
REMARK VINA RESULT:      -7.6     34.144     35.868
REMARK  1 active torsions:
REMARK  status: ('A' for Active; 'I' for Inactive)
REMARK       I    between atoms: C8_12  and  N1_4 
REMARK    1  A    between atoms: C8_12  and  C9_13 
ROOT
HETATM    1  O2  UNK     1      11.425   7.650   9.798  1.00  0.00    -0.274 OA
HETATM    2  O3  UNK     1      12.950   8.426  11.312  1.00  0.00    -0.259 OA
HETATM    3  C9  UNK     1      13.793   7.764   9.199  1.00  0.00     0.108 A 
HETATM    4  C10 UNK     1      13.536   7.276   7.979  1.00  0.00     0.037 A 
HETATM    5  C11 UNK     1      12.718   7.980  10.194  1.00  0.00     0.304 A 
HETATM    6  C12 UNK     1      12.172   6.942   7.596  1.00  0.00    -0.001 A 
HETATM    7  C13 UNK     1      11.147   7.137   8.515  1.00  0.00     0.089 A 
HETATM    8  C14 UNK     1      11.858   6.432   6.334  1.00  0.00     0.014 A 
HETATM    9  C15 UNK     1       9.821   6.838   8.211  1.00  0.00     0.038 A 
HETATM   10  C16 UNK     1      10.532   6.126   6.013  1.00  0.00     0.001 A 
HETATM   11  C17 UNK     1       9.516   6.330   6.950  1.00  0.00     0.003 A 
ENDROOT
BRANCH   3  12
HETATM   12  C8  UNK     1      15.206   8.072   9.493  1.00  0.00     0.260 C 
HETATM   13  O1  UNK     1      15.860   7.222  10.099  1.00  0.00    -0.267 OA
HETATM   14  N1  UNK     1      15.704   9.302   9.070  1.00  0.00    -0.347 N 
HETATM   15  C4  UNK     1      17.100   9.646   9.349  1.00  0.00     0.130 C 
HETATM   16  C5  UNK     1      14.974  10.326   8.310  1.00  0.00     0.130 C 
HETATM   17  C1  UNK     1      17.188  10.961  10.134  1.00  0.00    -0.000 C 
HETATM   18  C3  UNK     1      16.421  12.079   9.406  1.00  0.00     0.011 C 
HETATM   19  C6  UNK     1      18.646  11.362  10.355  1.00  0.00     0.011 C 
HETATM   20  C2  UNK     1      14.981  11.675   9.044  1.00  0.00    -0.000 C 
HETATM   21  C7  UNK     1      14.071  11.645  10.275  1.00  0.00     0.011 C 
ENDBRANCH   3  12
TORSDOF 1
ENDMDL
MODEL 5
REMARK VINA RESULT:      -7.3      5.731      7.707
REMARK  1 active torsions:
REMARK  status: ('A' for Active; 'I' for Inactive)
REMARK       I    between atoms: C8_12  and  N1_4 
REMARK    1  A    between atoms: C8_12  and  C9_13 
ROOT
HETATM    1  O2  UNK     1      19.322  -2.349  34.905  1.00  0.00    -0.274 OA
HETATM    2  O3  UNK     1      20.578  -4.221  34.530  1.00  0.00    -0.259 OA
HETATM    3  C9  UNK     1      20.058  -3.726  36.787  1.00  0.00     0.108 A 
HETATM    4  C10 UNK     1      19.450  -2.910  37.656  1.00  0.00     0.037 A 
HETATM    5  C11 UNK     1      20.021  -3.476  35.328  1.00  0.00     0.304 A 
HETATM    6  C12 UNK     1      18.726  -1.740  37.181  1.00  0.00    -0.001 A 
HETATM    7  C13 UNK     1      18.679  -1.487  35.815  1.00  0.00     0.089 A 
HETATM    8  C14 UNK     1      18.076  -0.862  38.052  1.00  0.00     0.014 A 
HETATM    9  C15 UNK     1      18.003  -0.385  35.295  1.00  0.00     0.038 A 
HETATM   10  C16 UNK     1      17.394   0.248  37.546  1.00  0.00     0.001 A 
HETATM   11  C17 UNK     1      17.357   0.485  36.170  1.00  0.00     0.003 A 
ENDROOT
BRANCH   3  12
HETATM   12  C8  UNK     1      20.765  -4.884  37.366  1.00  0.00     0.260 C 
HETATM   13  O1  UNK     1      21.970  -4.761  37.594  1.00  0.00    -0.267 OA
HETATM   14  N1  UNK     1      20.027  -6.039  37.613  1.00  0.00    -0.347 N 
HETATM   15  C4  UNK     1      20.696  -7.212  38.181  1.00  0.00     0.130 C 
HETATM   16  C5  UNK     1      18.584  -6.217  37.396  1.00  0.00     0.130 C 
HETATM   17  C1  UNK     1      20.507  -8.436  37.276  1.00  0.00    -0.000 C 
HETATM   18  C3  UNK     1      19.014  -8.670  36.985  1.00  0.00     0.011 C 
HETATM   19  C6  UNK     1      21.135  -9.677  37.907  1.00  0.00     0.011 C 
HETATM   20  C2  UNK     1      18.304  -7.407  36.467  1.00  0.00    -0.000 C 
HETATM   21  C7  UNK     1      18.691  -7.088  35.020  1.00  0.00     0.011 C 
ENDBRANCH   3  12
TORSDOF 1
ENDMDL
MODEL 6
REMARK VINA RESULT:      -7.2      6.505      7.820
REMARK  1 active torsions:
REMARK  status: ('A' for Active; 'I' for Inactive)
REMARK       I    between atoms: C8_12  and  N1_4 
REMARK    1  A    between atoms: C8_12  and  C9_13 
ROOT
HETATM    1  O2  UNK     1      31.267  -5.290  35.673  1.00  0.00    -0.274 OA
HETATM    2  O3  UNK     1      31.812  -6.187  33.644  1.00  0.00    -0.259 OA
HETATM    3  C9  UNK     1      29.972  -7.159  34.775  1.00  0.00     0.108 A 
HETATM    4  C10 UNK     1      29.180  -7.164  35.853  1.00  0.00     0.037 A 
HETATM    5  C11 UNK     1      31.085  -6.194  34.630  1.00  0.00     0.304 A 
HETATM    6  C12 UNK     1      29.397  -6.206  36.927  1.00  0.00    -0.001 A 
HETATM    7  C13 UNK     1      30.437  -5.290  36.811  1.00  0.00     0.089 A 
HETATM    8  C14 UNK     1      28.595  -6.174  38.070  1.00  0.00     0.014 A 
HETATM    9  C15 UNK     1      30.697  -4.346  37.803  1.00  0.00     0.038 A 
HETATM   10  C16 UNK     1      28.843  -5.234  39.073  1.00  0.00     0.001 A 
HETATM   11  C17 UNK     1      29.892  -4.321  38.939  1.00  0.00     0.003 A 
ENDROOT
BRANCH   3  12
HETATM   12  C8  UNK     1      29.672  -8.169  33.742  1.00  0.00     0.260 C 
HETATM   13  O1  UNK     1      30.283  -9.238  33.795  1.00  0.00    -0.267 OA
HETATM   14  N1  UNK     1      28.724  -7.847  32.774  1.00  0.00    -0.347 N 
HETATM   15  C4  UNK     1      28.404  -8.822  31.729  1.00  0.00     0.130 C 
HETATM   16  C5  UNK     1      27.942  -6.604  32.695  1.00  0.00     0.130 C 
HETATM   17  C1  UNK     1      28.627  -8.218  30.336  1.00  0.00    -0.000 C 
HETATM   18  C3  UNK     1      27.855  -6.895  30.190  1.00  0.00     0.011 C 
HETATM   19  C6  UNK     1      28.217  -9.206  29.246  1.00  0.00     0.011 C 
HETATM   20  C2  UNK     1      28.136  -5.911  31.339  1.00  0.00    -0.000 C 
HETATM   21  C7  UNK     1      29.529  -5.286  31.227  1.00  0.00     0.011 C 
ENDBRANCH   3  12
TORSDOF 1
ENDMDL
MODEL 7
REMARK VINA RESULT:      -7.2     33.291     35.258
REMARK  1 active torsions:
REMARK  status: ('A' for Active; 'I' for Inactive)
REMARK       I    between atoms: C8_12  and  N1_4 
REMARK    1  A    between atoms: C8_12  and  C9_13 
ROOT
HETATM    1  O2  UNK     1      10.454   5.580   9.333  1.00  0.00    -0.274 OA
HETATM    2  O3  UNK     1      12.033   5.144  10.926  1.00  0.00    -0.259 OA
HETATM    3  C9  UNK     1      12.829   5.693   8.764  1.00  0.00     0.108 A 
HETATM    4  C10 UNK     1      12.539   6.024   7.501  1.00  0.00     0.037 A 
HETATM    5  C11 UNK     1      11.769   5.449   9.769  1.00  0.00     0.304 A 
HETATM    6  C12 UNK     1      11.152   6.155   7.076  1.00  0.00    -0.001 A 
HETATM    7  C13 UNK     1      10.141   5.930   8.004  1.00  0.00     0.089 A 
HETATM    8  C14 UNK     1      10.803   6.499   5.769  1.00  0.00     0.014 A 
HETATM    9  C15 UNK     1       8.795   6.039   7.664  1.00  0.00     0.038 A 
HETATM   10  C16 UNK     1       9.457   6.612   5.412  1.00  0.00     0.001 A 
HETATM   11  C17 UNK     1       8.455   6.383   6.358  1.00  0.00     0.003 A 
ENDROOT
BRANCH   3  12
HETATM   12  C8  UNK     1      14.263   5.585   9.096  1.00  0.00     0.260 C 
HETATM   13  O1  UNK     1      14.726   4.456   9.263  1.00  0.00    -0.267 OA
HETATM   14  N1  UNK     1      14.995   6.765   9.203  1.00  0.00    -0.347 N 
HETATM   15  C4  UNK     1      16.420   6.698   9.537  1.00  0.00     0.130 C 
HETATM   16  C5  UNK     1      14.496   8.128   8.973  1.00  0.00     0.130 C 
HETATM   17  C1  UNK     1      16.721   7.525  10.794  1.00  0.00    -0.000 C 
HETATM   18  C3  UNK     1      16.202   8.964  10.634  1.00  0.00     0.011 C 
HETATM   19  C6  UNK     1      18.219   7.523  11.096  1.00  0.00     0.011 C 
HETATM   20  C2  UNK     1      14.726   9.020  10.201  1.00  0.00    -0.000 C 
HETATM   21  C7  UNK     1      13.782   8.646  11.347  1.00  0.00     0.011 C 
ENDBRANCH   3  12
TORSDOF 1
ENDMDL
MODEL 8
REMARK VINA RESULT:      -7.1      4.578      8.615
REMARK  1 active torsions:
REMARK  status: ('A' for Active; 'I' for Inactive)
REMARK       I    between atoms: C8_12  and  N1_4 
REMARK    1  A    between atoms: C8_12  and  C9_13 
ROOT
HETATM    1  O2  UNK     1      27.004  -7.784  36.813  1.00  0.00    -0.274 OA
HETATM    2  O3  UNK     1      27.623  -6.618  34.948  1.00  0.00    -0.259 OA
HETATM    3  C9  UNK     1      29.349  -7.741  36.119  1.00  0.00     0.108 A 
HETATM    4  C10 UNK     1      29.697  -8.516  37.154  1.00  0.00     0.037 A 
HETATM    5  C11 UNK     1      27.945  -7.328  35.894  1.00  0.00     0.304 A 
HETATM    6  C12 UNK     1      28.689  -8.977  38.097  1.00  0.00    -0.001 A 
HETATM    7  C13 UNK     1      27.364  -8.600  37.904  1.00  0.00     0.089 A 
HETATM    8  C14 UNK     1      29.007  -9.787  39.189  1.00  0.00     0.014 A 
HETATM    9  C15 UNK     1      26.351  -9.008  38.769  1.00  0.00     0.038 A 
HETATM   10  C16 UNK     1      28.002 -10.204  40.067  1.00  0.00     0.001 A 
HETATM   11  C17 UNK     1      26.677  -9.815  39.856  1.00  0.00     0.003 A 
ENDROOT
BRANCH   3  12
HETATM   12  C8  UNK     1      30.442  -7.325  35.220  1.00  0.00     0.260 C 
HETATM   13  O1  UNK     1      30.779  -8.110  34.332  1.00  0.00    -0.267 OA
HETATM   14  N1  UNK     1      31.021  -6.078  35.436  1.00  0.00    -0.347 N 
HETATM   15  C4  UNK     1      32.114  -5.633  34.567  1.00  0.00     0.130 C 
HETATM   16  C5  UNK     1      30.625  -5.094  36.453  1.00  0.00     0.130 C 
HETATM   17  C1  UNK     1      33.359  -5.289  35.394  1.00  0.00    -0.000 C 
HETATM   18  C3  UNK     1      33.012  -4.277  36.500  1.00  0.00     0.011 C 
HETATM   19  C6  UNK     1      34.471  -4.748  34.498  1.00  0.00     0.011 C 
HETATM   20  C2  UNK     1      31.810  -4.717  37.354  1.00  0.00    -0.000 C 
HETATM   21  C7  UNK     1      32.174  -5.860  38.305  1.00  0.00     0.011 C 
ENDBRANCH   3  12
TORSDOF 1
ENDMDL
MODEL 9
REMARK VINA RESULT:      -7.1     34.031     35.422
REMARK  1 active torsions:
REMARK  status: ('A' for Active; 'I' for Inactive)
REMARK       I    between atoms: C8_12  and  N1_4 
REMARK    1  A    between atoms: C8_12  and  C9_13 
ROOT
HETATM    1  O2  UNK     1      15.638   8.020  10.034  1.00  0.00    -0.274 OA
HETATM    2  O3  UNK     1      13.904   6.643  10.597  1.00  0.00    -0.259 OA
HETATM    3  C9  UNK     1      13.335   8.705   9.579  1.00  0.00     0.108 A 
HETATM    4  C10 UNK     1      13.755   9.860   9.050  1.00  0.00     0.037 A 
HETATM    5  C11 UNK     1      14.285   7.702  10.111  1.00  0.00     0.304 A 
HETATM    6  C12 UNK     1      15.177  10.163   8.983  1.00  0.00    -0.001 A 
HETATM    7  C13 UNK     1      16.086   9.234   9.477  1.00  0.00     0.089 A 
HETATM    8  C14 UNK     1      15.660  11.355   8.438  1.00  0.00     0.014 A 
HETATM    9  C15 UNK     1      17.461   9.462   9.442  1.00  0.00     0.038 A 
HETATM   10  C16 UNK     1      17.035  11.598   8.396  1.00  0.00     0.001 A 
HETATM   11  C17 UNK     1      17.934  10.653   8.897  1.00  0.00     0.003 A 
ENDROOT
BRANCH   3  12
HETATM   12  C8  UNK     1      11.875   8.491   9.602  1.00  0.00     0.260 C 
HETATM   13  O1  UNK     1      11.269   8.808  10.627  1.00  0.00    -0.267 OA
HETATM   14  N1  UNK     1      11.282   7.944   8.467  1.00  0.00    -0.347 N 
HETATM   15  C4  UNK     1       9.835   7.711   8.455  1.00  0.00     0.130 C 
HETATM   16  C5  UNK     1      11.957   7.591   7.211  1.00  0.00     0.130 C 
HETATM   17  C1  UNK     1       9.526   6.239   8.156  1.00  0.00    -0.000 C 
HETATM   18  C3  UNK     1      10.224   5.790   6.860  1.00  0.00     0.011 C 
HETATM   19  C6  UNK     1       8.018   6.011   8.062  1.00  0.00     0.011 C 
HETATM   20  C2  UNK     1      11.728   6.116   6.851  1.00  0.00    -0.000 C 
HETATM   21  C7  UNK     1      12.518   5.187   7.777  1.00  0.00     0.011 C 
ENDBRANCH   3  12
TORSDOF 1
ENDMDL
MODEL 10
REMARK VINA RESULT:      -7.1     13.447     15.539
REMARK  1 active torsions:
REMARK  status: ('A' for Active; 'I' for Inactive)
REMARK       I    between atoms: C8_12  and  N1_4 
REMARK    1  A    between atoms: C8_12  and  C9_13 
ROOT
HETATM    1  O2  UNK     1      19.152   2.256  30.482  1.00  0.00    -0.274 OA
HETATM    2  O3  UNK     1      18.802   4.441  29.909  1.00  0.00    -0.259 OA
HETATM    3  C9  UNK     1      18.042   3.769  32.050  1.00  0.00     0.108 A 
HETATM    4  C10 UNK     1      17.916   2.787  32.950  1.00  0.00     0.037 A 
HETATM    5  C11 UNK     1      18.685   3.543  30.736  1.00  0.00     0.304 A 
HETATM    6  C12 UNK     1      18.414   1.452  32.654  1.00  0.00    -0.001 A 
HETATM    7  C13 UNK     1      19.022   1.218  31.425  1.00  0.00     0.089 A 
HETATM    8  C14 UNK     1      18.305   0.398  33.563  1.00  0.00     0.014 A 
HETATM    9  C15 UNK     1      19.521  -0.036  31.080  1.00  0.00     0.038 A 
HETATM   10  C16 UNK     1      18.800  -0.866  33.232  1.00  0.00     0.001 A 
HETATM   11  C17 UNK     1      19.408  -1.082  31.993  1.00  0.00     0.003 A 
ENDROOT
BRANCH   3  12
HETATM   12  C8  UNK     1      17.505   5.086  32.443  1.00  0.00     0.260 C 
HETATM   13  O1  UNK     1      16.416   5.421  31.973  1.00  0.00    -0.267 OA
HETATM   14  N1  UNK     1      18.264   5.864  33.314  1.00  0.00    -0.347 N 
HETATM   15  C4  UNK     1      17.766   7.180  33.721  1.00  0.00     0.130 C 
HETATM   16  C5  UNK     1      19.545   5.489  33.930  1.00  0.00     0.130 C 
HETATM   17  C1  UNK     1      18.786   8.275  33.382  1.00  0.00    -0.000 C 
HETATM   18  C3  UNK     1      20.164   7.936  33.976  1.00  0.00     0.011 C 
HETATM   19  C6  UNK     1      18.303   9.636  33.879  1.00  0.00     0.011 C 
HETATM   20  C2  UNK     1      20.639   6.519  33.609  1.00  0.00    -0.000 C 
HETATM   21  C7  UNK     1      21.079   6.426  32.146  1.00  0.00     0.011 C 
ENDBRANCH   3  12
TORSDOF 1
ENDMDL
