MODEL 1
REMARK VINA RESULT:     -10.1      0.000      0.000
REMARK  4 active torsions:
REMARK  status: ('A' for Active; 'I' for Inactive)
REMARK    1  A    between atoms: C5_10  and  N1_3 
REMARK    2  A    between atoms: C6_11  and  N2_4 
REMARK    3  A    between atoms: C5_10  and  C7_12 
REMARK    4  A    between atoms: C6_11  and  C8_13 
ROOT
HETATM    1  N3  UNK     1      21.306  -3.808  32.026  1.00  0.00    -0.191 NA
HETATM    2  C8  UNK     1      19.312   0.721  29.916  1.00  0.00    -0.030 A 
HETATM    3  C12 UNK     1      20.034  -0.163  29.114  1.00  0.00     0.010 A 
HETATM    4  C13 UNK     1      19.107   0.431  31.265  1.00  0.00     0.010 A 
HETATM    5  C19 UNK     1      20.552  -1.337  29.662  1.00  0.00     0.023 A 
HETATM    6  C20 UNK     1      19.625  -0.743  31.812  1.00  0.00     0.023 A 
HETATM    7  C21 UNK     1      20.346  -1.627  31.011  1.00  0.00     0.044 A 
HETATM    8  C23 UNK     1      20.876  -2.831  31.571  1.00  0.00     0.099 C 
ENDROOT
BRANCH   2   9
HETATM    9  C6  UNK     1      18.757   1.983  29.328  1.00  0.00     0.311 C 
BRANCH   9  10
HETATM   10  N2  UNK     1      18.977   3.093  30.253  1.00  0.00     0.096 N 
HETATM   11  C3  UNK     1      19.026   4.370  29.532  1.00  0.00     0.303 C 
HETATM   12  C1  UNK     1      19.252   5.536  30.501  1.00  0.00     0.303 C 
HETATM   13  N1  UNK     1      18.209   5.568  31.533  1.00  0.00     0.096 N 
HETATM   14  C2  UNK     1      18.162   4.290  32.255  1.00  0.00     0.303 C 
HETATM   15  C4  UNK     1      17.934   3.125  31.286  1.00  0.00     0.303 C 
BRANCH  13  16
HETATM   16  C5  UNK     1      18.427   6.679  32.458  1.00  0.00     0.312 C 
BRANCH  16  17
HETATM   17  C7  UNK     1      17.120   7.376  32.588  1.00  0.00    -0.011 A 
HETATM   18  C10 UNK     1      15.984   6.802  32.171  1.00  0.00     0.092 A 
HETATM   19  C15 UNK     1      14.667   7.453  32.279  1.00  0.00     0.288 A 
HETATM   20  O1  UNK     1      14.644   8.719  32.844  1.00  0.00    -0.275 OA
HETATM   21  O2  UNK     1      13.648   6.897  31.887  1.00  0.00    -0.260 OA
HETATM   22  C11 UNK     1      15.822   9.348  33.292  1.00  0.00     0.090 A 
HETATM   23  C9  UNK     1      17.063   8.719  33.182  1.00  0.00     0.006 A 
HETATM   24  C16 UNK     1      15.677  10.623  33.844  1.00  0.00     0.045 A 
HETATM   25  C14 UNK     1      18.187   9.413  33.651  1.00  0.00     0.015 A 
HETATM   26  C18 UNK     1      18.059  10.691  34.206  1.00  0.00     0.007 A 
HETATM   27  C17 UNK     1      16.806  11.294  34.302  1.00  0.00    -0.059 A 
HETATM   28  C22 UNK     1      16.678  12.656  34.895  1.00  0.00     0.048 C 
ENDBRANCH  16  17
ENDBRANCH  13  16
ENDBRANCH   9  10
ENDBRANCH   2   9
TORSDOF 4
ENDMDL
MODEL 2
REMARK VINA RESULT:     -10.0      7.883     11.382
REMARK  4 active torsions:
REMARK  status: ('A' for Active; 'I' for Inactive)
REMARK    1  A    between atoms: C5_10  and  N1_3 
REMARK    2  A    between atoms: C6_11  and  N2_4 
REMARK    3  A    between atoms: C5_10  and  C7_12 
REMARK    4  A    between atoms: C6_11  and  C8_13 
ROOT
HETATM    1  N3  UNK     1      24.578 -12.611  35.311  1.00  0.00    -0.191 NA
HETATM    2  C8  UNK     1      20.937  -8.966  36.860  1.00  0.00    -0.030 A 
HETATM    3  C12 UNK     1      22.298  -8.683  36.974  1.00  0.00     0.010 A 
HETATM    4  C13 UNK     1      20.520 -10.193  36.346  1.00  0.00     0.010 A 
HETATM    5  C19 UNK     1      23.242  -9.629  36.573  1.00  0.00     0.023 A 
HETATM    6  C20 UNK     1      21.464 -11.139  35.945  1.00  0.00     0.023 A 
HETATM    7  C21 UNK     1      22.825 -10.856  36.057  1.00  0.00     0.044 A 
HETATM    8  C23 UNK     1      23.793 -11.824  35.646  1.00  0.00     0.099 C 
ENDROOT
BRANCH   2   9
HETATM    9  C6  UNK     1      19.923  -7.950  37.293  1.00  0.00     0.311 C 
BRANCH   9  10
HETATM   10  N2  UNK     1      20.389  -6.611  36.937  1.00  0.00     0.096 N 
HETATM   11  C3  UNK     1      19.624  -6.077  35.804  1.00  0.00     0.303 C 
HETATM   12  C1  UNK     1      20.108  -4.671  35.434  1.00  0.00     0.303 C 
HETATM   13  N1  UNK     1      20.019  -3.766  36.586  1.00  0.00     0.096 N 
HETATM   14  C2  UNK     1      20.787  -4.300  37.717  1.00  0.00     0.303 C 
HETATM   15  C4  UNK     1      20.301  -5.706  38.089  1.00  0.00     0.303 C 
BRANCH  13  16
HETATM   16  C5  UNK     1      20.483  -2.426  36.231  1.00  0.00     0.312 C 
BRANCH  16  17
HETATM   17  C7  UNK     1      19.457  -1.857  35.318  1.00  0.00    -0.011 A 
HETATM   18  C10 UNK     1      18.298  -1.379  35.791  1.00  0.00     0.092 A 
HETATM   19  C15 UNK     1      17.251  -0.807  34.926  1.00  0.00     0.288 A 
HETATM   20  O1  UNK     1      17.515  -0.779  33.566  1.00  0.00    -0.275 OA
HETATM   21  O2  UNK     1      16.203  -0.380  35.395  1.00  0.00    -0.260 OA
HETATM   22  C11 UNK     1      18.725  -1.272  33.039  1.00  0.00     0.090 A 
HETATM   23  C9  UNK     1      19.707  -1.813  33.871  1.00  0.00     0.006 A 
HETATM   24  C16 UNK     1      18.882  -1.192  31.653  1.00  0.00     0.045 A 
HETATM   25  C14 UNK     1      20.882  -2.284  33.268  1.00  0.00     0.015 A 
HETATM   26  C18 UNK     1      21.054  -2.210  31.881  1.00  0.00     0.007 A 
HETATM   27  C17 UNK     1      20.055  -1.666  31.076  1.00  0.00    -0.059 A 
HETATM   28  C22 UNK     1      20.245  -1.591  29.599  1.00  0.00     0.048 C 
ENDBRANCH  16  17
ENDBRANCH  13  16
ENDBRANCH   9  10
ENDBRANCH   2   9
TORSDOF 4
ENDMDL
MODEL 3
REMARK VINA RESULT:      -8.8     15.510     18.956
REMARK  4 active torsions:
REMARK  status: ('A' for Active; 'I' for Inactive)
REMARK    1  A    between atoms: C5_10  and  N1_3 
REMARK    2  A    between atoms: C6_11  and  N2_4 
REMARK    3  A    between atoms: C5_10  and  C7_12 
REMARK    4  A    between atoms: C6_11  and  C8_13 
ROOT
HETATM    1  N3  UNK     1      25.832  -5.085  38.889  1.00  0.00    -0.191 NA
HETATM    2  C8  UNK     1      31.103  -5.859  38.139  1.00  0.00    -0.030 A 
HETATM    3  C12 UNK     1      30.603  -4.566  38.295  1.00  0.00     0.010 A 
HETATM    4  C13 UNK     1      30.236  -6.951  38.177  1.00  0.00     0.010 A 
HETATM    5  C19 UNK     1      29.236  -4.365  38.489  1.00  0.00     0.023 A 
HETATM    6  C20 UNK     1      28.869  -6.750  38.371  1.00  0.00     0.023 A 
HETATM    7  C21 UNK     1      28.370  -5.458  38.528  1.00  0.00     0.044 A 
HETATM    8  C23 UNK     1      26.969  -5.251  38.727  1.00  0.00     0.099 C 
ENDROOT
BRANCH   2   9
HETATM    9  C6  UNK     1      32.571  -6.074  37.930  1.00  0.00     0.311 C 
BRANCH   9  10
HETATM   10  N2  UNK     1      32.846  -6.223  36.502  1.00  0.00     0.096 N 
HETATM   11  C3  UNK     1      32.877  -7.641  36.123  1.00  0.00     0.303 C 
HETATM   12  C1  UNK     1      33.161  -7.799  34.625  1.00  0.00     0.303 C 
HETATM   13  N1  UNK     1      32.166  -7.075  33.826  1.00  0.00     0.096 N 
HETATM   14  C2  UNK     1      32.136  -5.657  34.204  1.00  0.00     0.303 C 
HETATM   15  C4  UNK     1      31.851  -5.499  35.702  1.00  0.00     0.303 C 
BRANCH  13  16
HETATM   16  C5  UNK     1      32.439  -7.225  32.397  1.00  0.00     0.312 C 
BRANCH  16  17
HETATM   17  C7  UNK     1      31.452  -8.213  31.885  1.00  0.00    -0.011 A 
HETATM   18  C10 UNK     1      31.763  -9.512  31.782  1.00  0.00     0.092 A 
HETATM   19  C15 UNK     1      30.820 -10.527  31.281  1.00  0.00     0.288 A 
HETATM   20  O1  UNK     1      29.563 -10.078  30.908  1.00  0.00    -0.275 OA
HETATM   21  O2  UNK     1      31.140 -11.707  31.201  1.00  0.00    -0.260 OA
HETATM   22  C11 UNK     1      29.207  -8.719  31.005  1.00  0.00     0.090 A 
HETATM   23  C9  UNK     1      30.111  -7.768  31.482  1.00  0.00     0.006 A 
HETATM   24  C16 UNK     1      27.913  -8.381  30.602  1.00  0.00     0.045 A 
HETATM   25  C14 UNK     1      29.680  -6.436  31.547  1.00  0.00     0.015 A 
HETATM   26  C18 UNK     1      28.387  -6.082  31.146  1.00  0.00     0.007 A 
HETATM   27  C17 UNK     1      27.505  -7.054  30.673  1.00  0.00    -0.059 A 
HETATM   28  C22 UNK     1      26.129  -6.669  30.248  1.00  0.00     0.048 C 
ENDBRANCH  16  17
ENDBRANCH  13  16
ENDBRANCH   9  10
ENDBRANCH   2   9
TORSDOF 4
ENDMDL
MODEL 4
REMARK VINA RESULT:      -8.6     16.396     17.896
REMARK  4 active torsions:
REMARK  status: ('A' for Active; 'I' for Inactive)
REMARK    1  A    between atoms: C5_10  and  N1_3 
REMARK    2  A    between atoms: C6_11  and  N2_4 
REMARK    3  A    between atoms: C5_10  and  C7_12 
REMARK    4  A    between atoms: C6_11  and  C8_13 
ROOT
HETATM    1  N3  UNK     1      28.017 -10.723  27.866  1.00  0.00    -0.191 NA
HETATM    2  C8  UNK     1      29.895  -6.580  30.738  1.00  0.00    -0.030 A 
HETATM    3  C12 UNK     1      28.522  -6.813  30.666  1.00  0.00     0.010 A 
HETATM    4  C13 UNK     1      30.781  -7.421  30.065  1.00  0.00     0.010 A 
HETATM    5  C19 UNK     1      28.035  -7.887  29.921  1.00  0.00     0.023 A 
HETATM    6  C20 UNK     1      30.294  -8.495  29.320  1.00  0.00     0.023 A 
HETATM    7  C21 UNK     1      28.921  -8.728  29.248  1.00  0.00     0.044 A 
HETATM    8  C23 UNK     1      28.422  -9.829  28.486  1.00  0.00     0.099 C 
ENDROOT
BRANCH   2   9
HETATM    9  C6  UNK     1      30.418  -5.426  31.538  1.00  0.00     0.311 C 
BRANCH   9  10
HETATM   10  N2  UNK     1      30.915  -5.907  32.826  1.00  0.00     0.096 N 
HETATM   11  C3  UNK     1      31.773  -4.901  33.462  1.00  0.00     0.303 C 
HETATM   12  C1  UNK     1      32.291  -5.402  34.815  1.00  0.00     0.303 C 
HETATM   13  N1  UNK     1      31.178  -5.761  35.700  1.00  0.00     0.096 N 
HETATM   14  C2  UNK     1      30.321  -6.769  35.064  1.00  0.00     0.303 C 
HETATM   15  C4  UNK     1      29.801  -6.267  33.712  1.00  0.00     0.303 C 
BRANCH  13  16
HETATM   16  C5  UNK     1      31.674  -6.241  36.989  1.00  0.00     0.312 C 
BRANCH  16  17
HETATM   17  C7  UNK     1      30.599  -5.965  37.979  1.00  0.00    -0.011 A 
HETATM   18  C10 UNK     1      30.432  -4.741  38.497  1.00  0.00     0.092 A 
HETATM   19  C15 UNK     1      29.383  -4.420  39.479  1.00  0.00     0.288 A 
HETATM   20  O1  UNK     1      28.549  -5.459  39.861  1.00  0.00    -0.275 OA
HETATM   21  O2  UNK     1      29.260  -3.287  39.932  1.00  0.00    -0.260 OA
HETATM   22  C11 UNK     1      28.699  -6.757  39.334  1.00  0.00     0.090 A 
HETATM   23  C9  UNK     1      29.699  -7.046  38.404  1.00  0.00     0.006 A 
HETATM   24  C16 UNK     1      27.802  -7.725  39.791  1.00  0.00     0.045 A 
HETATM   25  C14 UNK     1      29.783  -8.362  37.928  1.00  0.00     0.015 A 
HETATM   26  C18 UNK     1      28.891  -9.343  38.377  1.00  0.00     0.007 A 
HETATM   27  C17 UNK     1      27.903  -9.024  39.307  1.00  0.00    -0.059 A 
HETATM   28  C22 UNK     1      26.957 -10.075  39.780  1.00  0.00     0.048 C 
ENDBRANCH  16  17
ENDBRANCH  13  16
ENDBRANCH   9  10
ENDBRANCH   2   9
TORSDOF 4
ENDMDL
MODEL 5
REMARK VINA RESULT:      -8.5      3.216      5.672
REMARK  4 active torsions:
REMARK  status: ('A' for Active; 'I' for Inactive)
REMARK    1  A    between atoms: C5_10  and  N1_3 
REMARK    2  A    between atoms: C6_11  and  N2_4 
REMARK    3  A    between atoms: C5_10  and  C7_12 
REMARK    4  A    between atoms: C6_11  and  C8_13 
ROOT
HETATM    1  N3  UNK     1      18.360   1.456  28.749  1.00  0.00    -0.191 NA
HETATM    2  C8  UNK     1      18.795   5.815  31.873  1.00  0.00    -0.030 A 
HETATM    3  C12 UNK     1      18.252   4.638  32.389  1.00  0.00     0.010 A 
HETATM    4  C13 UNK     1      19.225   5.861  30.547  1.00  0.00     0.010 A 
HETATM    5  C19 UNK     1      18.139   3.508  31.579  1.00  0.00     0.023 A 
HETATM    6  C20 UNK     1      19.112   4.731  29.737  1.00  0.00     0.023 A 
HETATM    7  C21 UNK     1      18.569   3.555  30.253  1.00  0.00     0.044 A 
HETATM    8  C23 UNK     1      18.454   2.397  29.424  1.00  0.00     0.099 C 
ENDROOT
BRANCH   2   9
HETATM    9  C6  UNK     1      18.916   7.029  32.743  1.00  0.00     0.311 C 
BRANCH   9  10
HETATM   10  N2  UNK     1      17.592   7.420  33.224  1.00  0.00     0.096 N 
HETATM   11  C3  UNK     1      17.701   8.435  34.279  1.00  0.00     0.303 C 
HETATM   12  C1  UNK     1      16.313   8.850  34.781  1.00  0.00     0.303 C 
HETATM   13  N1  UNK     1      15.483   9.343  33.677  1.00  0.00     0.096 N 
HETATM   14  C2  UNK     1      15.374   8.327  32.624  1.00  0.00     0.303 C 
HETATM   15  C4  UNK     1      16.761   7.914  32.120  1.00  0.00     0.303 C 
BRANCH  13  16
HETATM   16  C5  UNK     1      14.159   9.736  34.158  1.00  0.00     0.312 C 
BRANCH  16  17
HETATM   17  C7  UNK     1      14.167  11.221  34.234  1.00  0.00    -0.011 A 
HETATM   18  C10 UNK     1      14.285  11.972  33.131  1.00  0.00     0.092 A 
HETATM   19  C15 UNK     1      14.298  13.444  33.157  1.00  0.00     0.288 A 
HETATM   20  O1  UNK     1      14.181  14.045  34.400  1.00  0.00    -0.275 OA
HETATM   21  O2  UNK     1      14.408  14.098  32.126  1.00  0.00    -0.260 OA
HETATM   22  C11 UNK     1      14.055  13.283  35.579  1.00  0.00     0.090 A 
HETATM   23  C9  UNK     1      14.044  11.888  35.538  1.00  0.00     0.006 A 
HETATM   24  C16 UNK     1      13.943  13.996  36.774  1.00  0.00     0.045 A 
HETATM   25  C14 UNK     1      13.916  11.204  36.755  1.00  0.00     0.015 A 
HETATM   26  C18 UNK     1      13.803  11.903  37.961  1.00  0.00     0.007 A 
HETATM   27  C17 UNK     1      13.817  13.297  37.970  1.00  0.00    -0.059 A 
HETATM   28  C22 UNK     1      13.696  14.036  39.260  1.00  0.00     0.048 C 
ENDBRANCH  16  17
ENDBRANCH  13  16
ENDBRANCH   9  10
ENDBRANCH   2   9
TORSDOF 4
ENDMDL
MODEL 6
REMARK VINA RESULT:      -8.5     22.436     24.535
REMARK  4 active torsions:
REMARK  status: ('A' for Active; 'I' for Inactive)
REMARK    1  A    between atoms: C5_10  and  N1_3 
REMARK    2  A    between atoms: C6_11  and  N2_4 
REMARK    3  A    between atoms: C5_10  and  C7_12 
REMARK    4  A    between atoms: C6_11  and  C8_13 
ROOT
HETATM    1  N3  UNK     1      23.708  13.686  12.489  1.00  0.00    -0.191 NA
HETATM    2  C8  UNK     1      19.671  12.387   9.179  1.00  0.00    -0.030 A 
HETATM    3  C12 UNK     1      20.935  11.827   8.991  1.00  0.00     0.010 A 
HETATM    4  C13 UNK     1      19.455  13.284  10.224  1.00  0.00     0.010 A 
HETATM    5  C19 UNK     1      21.982  12.164   9.850  1.00  0.00     0.023 A 
HETATM    6  C20 UNK     1      20.502  13.622  11.083  1.00  0.00     0.023 A 
HETATM    7  C21 UNK     1      21.765  13.061  10.896  1.00  0.00     0.044 A 
HETATM    8  C23 UNK     1      22.838  13.406  11.775  1.00  0.00     0.099 C 
ENDROOT
BRANCH   2   9
HETATM    9  C6  UNK     1      18.547  12.025   8.256  1.00  0.00     0.311 C 
BRANCH   9  10
HETATM   10  N2  UNK     1      17.460  11.419   9.023  1.00  0.00     0.096 N 
HETATM   11  C3  UNK     1      16.246  11.307   8.206  1.00  0.00     0.303 C 
HETATM   12  C1  UNK     1      15.106  10.668   9.007  1.00  0.00     0.303 C 
HETATM   13  N1  UNK     1      15.503   9.352   9.521  1.00  0.00     0.096 N 
HETATM   14  C2  UNK     1      16.716   9.465  10.339  1.00  0.00     0.303 C 
HETATM   15  C4  UNK     1      17.856  10.103   9.538  1.00  0.00     0.303 C 
BRANCH  13  16
HETATM   16  C5  UNK     1      14.415   8.744  10.286  1.00  0.00     0.312 C 
BRANCH  16  17
HETATM   17  C7  UNK     1      14.218   7.382   9.722  1.00  0.00    -0.011 A 
HETATM   18  C10 UNK     1      15.041   6.374  10.041  1.00  0.00     0.092 A 
HETATM   19  C15 UNK     1      14.886   5.010   9.509  1.00  0.00     0.288 A 
HETATM   20  O1  UNK     1      13.828   4.798   8.638  1.00  0.00    -0.275 OA
HETATM   21  O2  UNK     1      15.659   4.113   9.823  1.00  0.00    -0.260 OA
HETATM   22  C11 UNK     1      12.945   5.838   8.284  1.00  0.00     0.090 A 
HETATM   23  C9  UNK     1      13.105   7.126   8.797  1.00  0.00     0.006 A 
HETATM   24  C16 UNK     1      11.915   5.509   7.401  1.00  0.00     0.045 A 
HETATM   25  C14 UNK     1      12.186   8.105   8.395  1.00  0.00     0.015 A 
HETATM   26  C18 UNK     1      11.149   7.791   7.510  1.00  0.00     0.007 A 
HETATM   27  C17 UNK     1      11.014   6.495   7.014  1.00  0.00    -0.059 A 
HETATM   28  C22 UNK     1       9.906   6.168   6.071  1.00  0.00     0.048 C 
ENDBRANCH  16  17
ENDBRANCH  13  16
ENDBRANCH   9  10
ENDBRANCH   2   9
TORSDOF 4
ENDMDL
MODEL 7
REMARK VINA RESULT:      -8.4     15.722     19.485
REMARK  4 active torsions:
REMARK  status: ('A' for Active; 'I' for Inactive)
REMARK    1  A    between atoms: C5_10  and  N1_3 
REMARK    2  A    between atoms: C6_11  and  N2_4 
REMARK    3  A    between atoms: C5_10  and  C7_12 
REMARK    4  A    between atoms: C6_11  and  C8_13 
ROOT
HETATM    1  N3  UNK     1      29.452  -3.936  39.763  1.00  0.00    -0.191 NA
HETATM    2  C8  UNK     1      33.157  -6.167  36.564  1.00  0.00    -0.030 A 
HETATM    3  C12 UNK     1      32.529  -6.936  37.545  1.00  0.00     0.010 A 
HETATM    4  C13 UNK     1      32.826  -4.821  36.414  1.00  0.00     0.010 A 
HETATM    5  C19 UNK     1      31.568  -6.356  38.374  1.00  0.00     0.023 A 
HETATM    6  C20 UNK     1      31.865  -4.242  37.244  1.00  0.00     0.023 A 
HETATM    7  C21 UNK     1      31.236  -5.010  38.223  1.00  0.00     0.044 A 
HETATM    8  C23 UNK     1      30.252  -4.417  39.074  1.00  0.00     0.099 C 
ENDROOT
BRANCH   2   9
HETATM    9  C6  UNK     1      34.190  -6.789  35.674  1.00  0.00     0.311 C 
BRANCH   9  10
HETATM   10  N2  UNK     1      33.769  -6.670  34.279  1.00  0.00     0.096 N 
HETATM   11  C3  UNK     1      34.739  -7.315  33.385  1.00  0.00     0.303 C 
HETATM   12  C1  UNK     1      34.297  -7.195  31.923  1.00  0.00     0.303 C 
HETATM   13  N1  UNK     1      32.961  -7.770  31.731  1.00  0.00     0.096 N 
HETATM   14  C2  UNK     1      31.991  -7.122  32.624  1.00  0.00     0.303 C 
HETATM   15  C4  UNK     1      32.432  -7.245  34.086  1.00  0.00     0.303 C 
BRANCH  13  16
HETATM   16  C5  UNK     1      32.540  -7.652  30.336  1.00  0.00     0.312 C 
BRANCH  16  17
HETATM   17  C7  UNK     1      31.366  -8.550  30.177  1.00  0.00    -0.011 A 
HETATM   18  C10 UNK     1      31.520  -9.873  30.024  1.00  0.00     0.092 A 
HETATM   19  C15 UNK     1      30.389 -10.801  29.863  1.00  0.00     0.288 A 
HETATM   20  O1  UNK     1      29.120 -10.244  29.875  1.00  0.00    -0.275 OA
HETATM   21  O2  UNK     1      30.569 -12.006  29.724  1.00  0.00    -0.260 OA
HETATM   22  C11 UNK     1      28.925  -8.858  30.035  1.00  0.00     0.090 A 
HETATM   23  C9  UNK     1      30.008  -7.990  30.186  1.00  0.00     0.006 A 
HETATM   24  C16 UNK     1      27.603  -8.408  30.033  1.00  0.00     0.045 A 
HETATM   25  C14 UNK     1      29.729  -6.624  30.339  1.00  0.00     0.015 A 
HETATM   26  C18 UNK     1      28.410  -6.159  30.338  1.00  0.00     0.007 A 
HETATM   27  C17 UNK     1      27.349  -7.049  30.185  1.00  0.00    -0.059 A 
HETATM   28  C22 UNK     1      25.946  -6.545  30.185  1.00  0.00     0.048 C 
ENDBRANCH  16  17
ENDBRANCH  13  16
ENDBRANCH   9  10
ENDBRANCH   2   9
TORSDOF 4
ENDMDL
MODEL 8
REMARK VINA RESULT:      -8.4     15.214     18.159
REMARK  4 active torsions:
REMARK  status: ('A' for Active; 'I' for Inactive)
REMARK    1  A    between atoms: C5_10  and  N1_3 
REMARK    2  A    between atoms: C6_11  and  N2_4 
REMARK    3  A    between atoms: C5_10  and  C7_12 
REMARK    4  A    between atoms: C6_11  and  C8_13 
ROOT
HETATM    1  N3  UNK     1      25.323  -6.467  30.708  1.00  0.00    -0.191 NA
HETATM    2  C8  UNK     1      30.551  -7.294  31.673  1.00  0.00    -0.030 A 
HETATM    3  C12 UNK     1      30.132  -6.106  31.073  1.00  0.00     0.010 A 
HETATM    4  C13 UNK     1      29.615  -8.267  32.022  1.00  0.00     0.010 A 
HETATM    5  C19 UNK     1      28.776  -5.892  30.822  1.00  0.00     0.023 A 
HETATM    6  C20 UNK     1      28.259  -8.053  31.771  1.00  0.00     0.023 A 
HETATM    7  C21 UNK     1      27.840  -6.865  31.172  1.00  0.00     0.044 A 
HETATM    8  C23 UNK     1      26.451  -6.645  30.915  1.00  0.00     0.099 C 
ENDROOT
BRANCH   2   9
HETATM    9  C6  UNK     1      32.007  -7.524  31.941  1.00  0.00     0.311 C 
BRANCH   9  10
HETATM   10  N2  UNK     1      32.347  -7.016  33.269  1.00  0.00     0.096 N 
HETATM   11  C3  UNK     1      31.269  -6.169  33.794  1.00  0.00     0.303 C 
HETATM   12  C1  UNK     1      31.621  -5.639  35.188  1.00  0.00     0.303 C 
HETATM   13  N1  UNK     1      31.903  -6.744  36.112  1.00  0.00     0.096 N 
HETATM   14  C2  UNK     1      32.982  -7.589  35.587  1.00  0.00     0.303 C 
HETATM   15  C4  UNK     1      32.628  -8.121  34.193  1.00  0.00     0.303 C 
BRANCH  13  16
HETATM   16  C5  UNK     1      32.241  -6.237  37.441  1.00  0.00     0.312 C 
BRANCH  16  17
HETATM   17  C7  UNK     1      30.949  -5.999  38.138  1.00  0.00    -0.011 A 
HETATM   18  C10 UNK     1      30.596  -4.772  38.543  1.00  0.00     0.092 A 
HETATM   19  C15 UNK     1      29.328  -4.487  39.237  1.00  0.00     0.288 A 
HETATM   20  O1  UNK     1      28.488  -5.567  39.464  1.00  0.00    -0.275 OA
HETATM   21  O2  UNK     1      29.039  -3.351  39.593  1.00  0.00    -0.260 OA
HETATM   22  C11 UNK     1      28.831  -6.868  39.049  1.00  0.00     0.090 A 
HETATM   23  C9  UNK     1      30.037  -7.122  38.393  1.00  0.00     0.006 A 
HETATM   24  C16 UNK     1      27.907  -7.877  39.330  1.00  0.00     0.045 A 
HETATM   25  C14 UNK     1      30.304  -8.445  38.014  1.00  0.00     0.015 A 
HETATM   26  C18 UNK     1      29.389  -9.467  38.289  1.00  0.00     0.007 A 
HETATM   27  C17 UNK     1      28.193  -9.183  38.947  1.00  0.00    -0.059 A 
HETATM   28  C22 UNK     1      27.223 -10.278  39.236  1.00  0.00     0.048 C 
ENDBRANCH  16  17
ENDBRANCH  13  16
ENDBRANCH   9  10
ENDBRANCH   2   9
TORSDOF 4
ENDMDL
MODEL 9
REMARK VINA RESULT:      -8.4     23.196     26.095
REMARK  4 active torsions:
REMARK  status: ('A' for Active; 'I' for Inactive)
REMARK    1  A    between atoms: C5_10  and  N1_3 
REMARK    2  A    between atoms: C6_11  and  N2_4 
REMARK    3  A    between atoms: C5_10  and  C7_12 
REMARK    4  A    between atoms: C6_11  and  C8_13 
ROOT
HETATM    1  N3  UNK     1      13.024  18.932   6.827  1.00  0.00    -0.191 NA
HETATM    2  C8  UNK     1      15.695  14.434   8.082  1.00  0.00    -0.030 A 
HETATM    3  C12 UNK     1      14.309  14.402   7.928  1.00  0.00     0.010 A 
HETATM    4  C13 UNK     1      16.388  15.632   7.911  1.00  0.00     0.010 A 
HETATM    5  C19 UNK     1      13.616  15.569   7.603  1.00  0.00     0.023 A 
HETATM    6  C20 UNK     1      15.695  16.799   7.586  1.00  0.00     0.023 A 
HETATM    7  C21 UNK     1      14.310  16.767   7.432  1.00  0.00     0.044 A 
HETATM    8  C23 UNK     1      13.600  17.961   7.098  1.00  0.00     0.099 C 
ENDROOT
BRANCH   2   9
HETATM    9  C6  UNK     1      16.439  13.181   8.432  1.00  0.00     0.311 C 
BRANCH   9  10
HETATM   10  N2  UNK     1      15.510  12.200   8.990  1.00  0.00     0.096 N 
HETATM   11  C3  UNK     1      15.550  10.949   8.224  1.00  0.00     0.303 C 
HETATM   12  C1  UNK     1      14.580   9.918   8.811  1.00  0.00     0.303 C 
HETATM   13  N1  UNK     1      14.879   9.664  10.225  1.00  0.00     0.096 N 
HETATM   14  C2  UNK     1      14.836  10.915  10.991  1.00  0.00     0.303 C 
HETATM   15  C4  UNK     1      15.808  11.946  10.405  1.00  0.00     0.303 C 
BRANCH  13  16
HETATM   16  C5  UNK     1      13.952   8.681  10.783  1.00  0.00     0.312 C 
BRANCH  16  17
HETATM   17  C7  UNK     1      14.084   7.460   9.947  1.00  0.00    -0.011 A 
HETATM   18  C10 UNK     1      15.151   6.657  10.055  1.00  0.00     0.092 A 
HETATM   19  C15 UNK     1      15.326   5.438   9.248  1.00  0.00     0.288 A 
HETATM   20  O1  UNK     1      14.318   5.140   8.345  1.00  0.00    -0.275 OA
HETATM   21  O2  UNK     1      16.317   4.728   9.375  1.00  0.00    -0.260 OA
HETATM   22  C11 UNK     1      13.183   5.963   8.208  1.00  0.00     0.090 A 
HETATM   23  C9  UNK     1      13.031   7.117   8.980  1.00  0.00     0.006 A 
HETATM   24  C16 UNK     1      12.231   5.564   7.268  1.00  0.00     0.045 A 
HETATM   25  C14 UNK     1      11.874   7.883   8.783  1.00  0.00     0.015 A 
HETATM   26  C18 UNK     1      10.911   7.496   7.844  1.00  0.00     0.007 A 
HETATM   27  C17 UNK     1      11.090   6.339   7.088  1.00  0.00    -0.059 A 
HETATM   28  C22 UNK     1      10.060   5.934   6.089  1.00  0.00     0.048 C 
ENDBRANCH  16  17
ENDBRANCH  13  16
ENDBRANCH   9  10
ENDBRANCH   2   9
TORSDOF 4
ENDMDL
MODEL 10
REMARK VINA RESULT:      -8.4     22.627     24.372
REMARK  4 active torsions:
REMARK  status: ('A' for Active; 'I' for Inactive)
REMARK    1  A    between atoms: C5_10  and  N1_3 
REMARK    2  A    between atoms: C6_11  and  N2_4 
REMARK    3  A    between atoms: C5_10  and  C7_12 
REMARK    4  A    between atoms: C6_11  and  C8_13 
ROOT
HETATM    1  N3  UNK     1       4.231  -0.548   9.102  1.00  0.00    -0.191 NA
HETATM    2  C8  UNK     1       6.905   3.996  10.167  1.00  0.00    -0.030 A 
HETATM    3  C12 UNK     1       6.134   3.392  11.160  1.00  0.00     0.010 A 
HETATM    4  C13 UNK     1       6.982   3.423   8.898  1.00  0.00     0.010 A 
HETATM    5  C19 UNK     1       5.441   2.214  10.883  1.00  0.00     0.023 A 
HETATM    6  C20 UNK     1       6.288   2.245   8.621  1.00  0.00     0.023 A 
HETATM    7  C21 UNK     1       5.518   1.640   9.614  1.00  0.00     0.044 A 
HETATM    8  C23 UNK     1       4.807   0.433   9.332  1.00  0.00     0.099 C 
ENDROOT
BRANCH   2   9
HETATM    9  C6  UNK     1       7.650   5.263  10.464  1.00  0.00     0.311 C 
BRANCH   9  10
HETATM   10  N2  UNK     1       8.749   5.420   9.513  1.00  0.00     0.096 N 
HETATM   11  C3  UNK     1       8.978   6.838   9.211  1.00  0.00     0.303 C 
HETATM   12  C1  UNK     1      10.133   7.004   8.217  1.00  0.00     0.303 C 
HETATM   13  N1  UNK     1      11.359   6.383   8.731  1.00  0.00     0.096 N 
HETATM   14  C2  UNK     1      11.129   4.964   9.030  1.00  0.00     0.303 C 
HETATM   15  C4  UNK     1       9.976   4.798  10.026  1.00  0.00     0.303 C 
BRANCH  13  16
HETATM   16  C5  UNK     1      12.459   6.541   7.781  1.00  0.00     0.312 C 
BRANCH  16  17
HETATM   17  C7  UNK     1      13.713   6.390   8.565  1.00  0.00    -0.011 A 
HETATM   18  C10 UNK     1      14.220   5.179   8.835  1.00  0.00     0.092 A 
HETATM   19  C15 UNK     1      15.458   4.980   9.608  1.00  0.00     0.288 A 
HETATM   20  O1  UNK     1      16.100   6.122  10.060  1.00  0.00    -0.275 OA
HETATM   21  O2  UNK     1      15.892   3.856   9.835  1.00  0.00    -0.260 OA
HETATM   22  C11 UNK     1      15.592   7.408   9.792  1.00  0.00     0.090 A 
HETATM   23  C9  UNK     1      14.417   7.582   9.059  1.00  0.00     0.006 A 
HETATM   24  C16 UNK     1      16.323   8.486  10.297  1.00  0.00     0.045 A 
HETATM   25  C14 UNK     1      13.978   8.894   8.836  1.00  0.00     0.015 A 
HETATM   26  C18 UNK     1      14.698   9.984   9.336  1.00  0.00     0.007 A 
HETATM   27  C17 UNK     1      15.869   9.780  10.065  1.00  0.00    -0.059 A 
HETATM   28  C22 UNK     1      16.631  10.947  10.594  1.00  0.00     0.048 C 
ENDBRANCH  16  17
ENDBRANCH  13  16
ENDBRANCH   9  10
ENDBRANCH   2   9
TORSDOF 4
ENDMDL
