MODEL 1
REMARK VINA RESULT:      -8.5      0.000      0.000
REMARK  4 active torsions:
REMARK  status: ('A' for Active; 'I' for Inactive)
REMARK    1  A    between atoms: C1_6  and  N1_5 
REMARK       I    between atoms: C4_9  and  N1_5 
REMARK    2  A    between atoms: C1_6  and  C2_7 
REMARK    3  A    between atoms: C1_6  and  C3_8 
REMARK    4  A    between atoms: C4_9  and  C5_10 
ROOT
HETATM    1  O2  UNK     1      26.977  -8.632  39.604  1.00  0.00    -0.267 OA
HETATM    2  N1  UNK     1      27.273  -7.507  37.584  1.00  0.00    -0.344 N 
HETATM    3  C4  UNK     1      26.562  -7.910  38.700  1.00  0.00     0.258 C 
HETATM    4  H2  UNK     1      26.816  -6.949  36.869  1.00  0.00     0.163 HD
ENDROOT
BRANCH   2   5
HETATM    5  C1  UNK     1      28.643  -7.900  37.338  1.00  0.00     0.151 C 
BRANCH   5   6
HETATM    6  C2  UNK     1      29.631  -6.816  37.729  1.00  0.00    -0.031 A 
HETATM    7  C6  UNK     1      29.189  -5.511  37.837  1.00  0.00     0.009 A 
HETATM    8  C13 UNK     1      30.098  -4.516  38.195  1.00  0.00     0.001 A 
HETATM    9  C18 UNK     1      31.432  -4.844  38.438  1.00  0.00     0.000 A 
HETATM   10  C15 UNK     1      31.857  -6.167  38.323  1.00  0.00     0.001 A 
HETATM   11  C8  UNK     1      30.948  -7.163  37.965  1.00  0.00     0.009 A 
ENDBRANCH   5   6
BRANCH   5  12
HETATM   12  C3  UNK     1      28.855  -8.391  35.918  1.00  0.00    -0.031 A 
HETATM   13  C7  UNK     1      28.446  -7.595  34.865  1.00  0.00     0.009 A 
HETATM   14  C14 UNK     1      28.641  -8.047  33.559  1.00  0.00     0.001 A 
HETATM   15  C19 UNK     1      29.241  -9.286  33.331  1.00  0.00     0.000 A 
HETATM   16  C16 UNK     1      29.646 -10.072  34.409  1.00  0.00     0.001 A 
HETATM   17  C9  UNK     1      29.452  -9.621  35.715  1.00  0.00     0.009 A 
ENDBRANCH   5  12
ENDBRANCH   2   5
BRANCH   3  18
HETATM   18  C5  UNK     1      25.193  -7.379  38.727  1.00  0.00     0.108 A 
HETATM   19  C11 UNK     1      24.208  -8.279  38.630  1.00  0.00     0.037 A 
HETATM   20  C10 UNK     1      22.818  -7.849  38.648  1.00  0.00     0.000 A 
HETATM   21  C12 UNK     1      22.535  -6.492  38.768  1.00  0.00     0.089 A 
HETATM   22  C20 UNK     1      21.758  -8.754  38.549  1.00  0.00     0.033 A 
HETATM   23  O1  UNK     1      23.577  -5.551  38.869  1.00  0.00    -0.274 OA
HETATM   24  C21 UNK     1      21.226  -6.016  38.790  1.00  0.00     0.039 A 
HETATM   25  C17 UNK     1      24.915  -5.931  38.855  1.00  0.00     0.304 A 
HETATM   26  O3  UNK     1      25.817  -5.103  38.944  1.00  0.00    -0.259 OA
HETATM   27  C23 UNK     1      20.174  -6.924  38.691  1.00  0.00     0.022 A 
HETATM   28  C22 UNK     1      20.439  -8.289  38.570  1.00  0.00     0.011 A 
HETATM   29 Br1  UNK     1      19.007  -9.518  38.438  1.00  0.00    -0.051 Br
ENDBRANCH   3  18
TORSDOF 4
ENDMDL
MODEL 2
REMARK VINA RESULT:      -8.4      6.818     10.008
REMARK  4 active torsions:
REMARK  status: ('A' for Active; 'I' for Inactive)
REMARK    1  A    between atoms: C1_6  and  N1_5 
REMARK       I    between atoms: C4_9  and  N1_5 
REMARK    2  A    between atoms: C1_6  and  C2_7 
REMARK    3  A    between atoms: C1_6  and  C3_8 
REMARK    4  A    between atoms: C4_9  and  C5_10 
ROOT
HETATM    1  O2  UNK     1      20.550  -3.298  37.314  1.00  0.00    -0.267 OA
HETATM    2  N1  UNK     1      19.413  -3.334  35.279  1.00  0.00    -0.344 N 
HETATM    3  C4  UNK     1      19.938  -3.894  36.430  1.00  0.00     0.258 C 
HETATM    4  H2  UNK     1      18.967  -3.929  34.587  1.00  0.00     0.163 HD
ENDROOT
BRANCH   2   5
HETATM    5  C1  UNK     1      19.525  -1.928  34.965  1.00  0.00     0.151 C 
BRANCH   5   6
HETATM    6  C2  UNK     1      18.371  -1.118  35.528  1.00  0.00    -0.031 A 
HETATM    7  C6  UNK     1      17.112  -1.275  34.982  1.00  0.00     0.009 A 
HETATM    8  C13 UNK     1      16.052  -0.531  35.500  1.00  0.00     0.001 A 
HETATM    9  C18 UNK     1      16.272   0.358  36.553  1.00  0.00     0.000 A 
HETATM   10  C15 UNK     1      17.552   0.501  37.088  1.00  0.00     0.001 A 
HETATM   11  C8  UNK     1      18.612  -0.244  36.570  1.00  0.00     0.009 A 
ENDBRANCH   5   6
BRANCH   5  12
HETATM   12  C3  UNK     1      19.733  -1.684  33.481  1.00  0.00    -0.031 A 
HETATM   13  C7  UNK     1      19.085  -0.622  32.879  1.00  0.00     0.009 A 
HETATM   14  C14 UNK     1      19.275  -0.398  31.515  1.00  0.00     0.001 A 
HETATM   15  C19 UNK     1      20.110  -1.239  30.779  1.00  0.00     0.000 A 
HETATM   16  C16 UNK     1      20.755  -2.305  31.408  1.00  0.00     0.001 A 
HETATM   17  C9  UNK     1      20.565  -2.529  32.771  1.00  0.00     0.009 A 
ENDBRANCH   5  12
ENDBRANCH   2   5
BRANCH   3  18
HETATM   18  C5  UNK     1      19.693  -5.338  36.526  1.00  0.00     0.108 A 
HETATM   19  C11 UNK     1      20.754  -6.132  36.340  1.00  0.00     0.037 A 
HETATM   20  C10 UNK     1      20.610  -7.577  36.415  1.00  0.00     0.000 A 
HETATM   21  C12 UNK     1      19.356  -8.116  36.684  1.00  0.00     0.089 A 
HETATM   22  C20 UNK     1      21.690  -8.444  36.227  1.00  0.00     0.033 A 
HETATM   23  O1  UNK     1      18.243  -7.275  36.879  1.00  0.00    -0.274 OA
HETATM   24  C21 UNK     1      19.152  -9.491  36.769  1.00  0.00     0.039 A 
HETATM   25  C17 UNK     1      18.349  -5.889  36.813  1.00  0.00     0.304 A 
HETATM   26  O3  UNK     1      17.374  -5.165  36.984  1.00  0.00    -0.259 OA
HETATM   27  C23 UNK     1      20.233 -10.349  36.580  1.00  0.00     0.022 A 
HETATM   28  C22 UNK     1      21.500  -9.826  36.309  1.00  0.00     0.011 A 
HETATM   29 Br1  UNK     1      22.965 -10.995  36.055  1.00  0.00    -0.051 Br
ENDBRANCH   3  18
TORSDOF 4
ENDMDL
MODEL 3
REMARK VINA RESULT:      -8.1     14.079     17.013
REMARK  4 active torsions:
REMARK  status: ('A' for Active; 'I' for Inactive)
REMARK    1  A    between atoms: C1_6  and  N1_5 
REMARK       I    between atoms: C4_9  and  N1_5 
REMARK    2  A    between atoms: C1_6  and  C2_7 
REMARK    3  A    between atoms: C1_6  and  C3_8 
REMARK    4  A    between atoms: C4_9  and  C5_10 
ROOT
HETATM    1  O2  UNK     1      19.533   5.709  33.760  1.00  0.00    -0.267 OA
HETATM    2  N1  UNK     1      17.933   4.373  32.718  1.00  0.00    -0.344 N 
HETATM    3  C4  UNK     1      18.446   5.561  33.206  1.00  0.00     0.258 C 
HETATM    4  H2  UNK     1      16.997   4.353  32.322  1.00  0.00     0.163 HD
ENDROOT
BRANCH   2   5
HETATM    5  C1  UNK     1      18.639   3.114  32.804  1.00  0.00     0.151 C 
BRANCH   5   6
HETATM    6  C2  UNK     1      18.636   2.362  31.485  1.00  0.00    -0.031 A 
HETATM    7  C6  UNK     1      19.346   1.182  31.383  1.00  0.00     0.009 A 
HETATM    8  C13 UNK     1      19.343   0.492  30.172  1.00  0.00     0.001 A 
HETATM    9  C18 UNK     1      18.630   0.996  29.083  1.00  0.00     0.000 A 
HETATM   10  C15 UNK     1      17.920   2.190  29.208  1.00  0.00     0.001 A 
HETATM   11  C8  UNK     1      17.923   2.880  30.420  1.00  0.00     0.009 A 
ENDBRANCH   5   6
BRANCH   5  12
HETATM   12  C3  UNK     1      18.153   2.258  33.959  1.00  0.00    -0.031 A 
HETATM   13  C7  UNK     1      17.256   1.238  33.707  1.00  0.00     0.009 A 
HETATM   14  C14 UNK     1      16.809   0.451  34.769  1.00  0.00     0.001 A 
HETATM   15  C19 UNK     1      17.268   0.699  36.063  1.00  0.00     0.000 A 
HETATM   16  C16 UNK     1      18.174   1.734  36.294  1.00  0.00     0.001 A 
HETATM   17  C9  UNK     1      18.621   2.521  35.233  1.00  0.00     0.009 A 
ENDBRANCH   5  12
ENDBRANCH   2   5
BRANCH   3  18
HETATM   18  C5  UNK     1      17.545   6.701  33.000  1.00  0.00     0.108 A 
HETATM   19  C11 UNK     1      17.058   7.278  34.104  1.00  0.00     0.037 A 
HETATM   20  C10 UNK     1      16.156   8.414  34.001  1.00  0.00     0.000 A 
HETATM   21  C12 UNK     1      15.812   8.888  32.739  1.00  0.00     0.089 A 
HETATM   22  C20 UNK     1      15.623   9.047  35.127  1.00  0.00     0.033 A 
HETATM   23  O1  UNK     1      16.328   8.277  31.580  1.00  0.00    -0.274 OA
HETATM   24  C21 UNK     1      14.953   9.972  32.571  1.00  0.00     0.039 A 
HETATM   25  C17 UNK     1      17.192   7.188  31.647  1.00  0.00     0.304 A 
HETATM   26  O3  UNK     1      17.637   6.661  30.631  1.00  0.00    -0.259 OA
HETATM   27  C23 UNK     1      14.426  10.597  33.699  1.00  0.00     0.022 A 
HETATM   28  C22 UNK     1      14.760  10.136  34.974  1.00  0.00     0.011 A 
HETATM   29 Br1  UNK     1      14.043  10.990  36.502  1.00  0.00    -0.051 Br
ENDBRANCH   3  18
TORSDOF 4
ENDMDL
MODEL 4
REMARK VINA RESULT:      -8.0      3.283      8.226
REMARK  4 active torsions:
REMARK  status: ('A' for Active; 'I' for Inactive)
REMARK    1  A    between atoms: C1_6  and  N1_5 
REMARK       I    between atoms: C4_9  and  N1_5 
REMARK    2  A    between atoms: C1_6  and  C2_7 
REMARK    3  A    between atoms: C1_6  and  C3_8 
REMARK    4  A    between atoms: C4_9  and  C5_10 
ROOT
HETATM    1  O2  UNK     1      23.769  -8.704  39.870  1.00  0.00    -0.267 OA
HETATM    2  N1  UNK     1      23.222  -7.271  38.115  1.00  0.00    -0.344 N 
HETATM    3  C4  UNK     1      24.079  -7.874  39.018  1.00  0.00     0.258 C 
HETATM    4  H2  UNK     1      23.575  -6.558  37.483  1.00  0.00     0.163 HD
ENDROOT
BRANCH   2   5
HETATM    5  C1  UNK     1      21.805  -7.555  38.063  1.00  0.00     0.151 C 
BRANCH   5   6
HETATM    6  C2  UNK     1      21.499  -8.814  37.272  1.00  0.00    -0.031 A 
HETATM    7  C6  UNK     1      20.726  -9.800  37.852  1.00  0.00     0.009 A 
HETATM    8  C13 UNK     1      20.445 -10.957  37.125  1.00  0.00     0.001 A 
HETATM    9  C18 UNK     1      20.945 -11.105  35.831  1.00  0.00     0.000 A 
HETATM   10  C15 UNK     1      21.724 -10.097  35.264  1.00  0.00     0.001 A 
HETATM   11  C8  UNK     1      22.005  -8.940  35.992  1.00  0.00     0.009 A 
ENDBRANCH   5   6
BRANCH   5  12
HETATM   12  C3  UNK     1      20.996  -6.362  37.588  1.00  0.00    -0.031 A 
HETATM   13  C7  UNK     1      21.489  -5.088  37.801  1.00  0.00     0.009 A 
HETATM   14  C14 UNK     1      20.745  -3.992  37.365  1.00  0.00     0.001 A 
HETATM   15  C19 UNK     1      19.522  -4.189  36.723  1.00  0.00     0.000 A 
HETATM   16  C16 UNK     1      19.044  -5.483  36.518  1.00  0.00     0.001 A 
HETATM   17  C9  UNK     1      19.787  -6.580  36.954  1.00  0.00     0.009 A 
ENDBRANCH   5  12
ENDBRANCH   2   5
BRANCH   3  18
HETATM   18  C5  UNK     1      25.469  -7.426  38.872  1.00  0.00     0.108 A 
HETATM   19  C11 UNK     1      26.376  -8.379  38.628  1.00  0.00     0.037 A 
HETATM   20  C10 UNK     1      27.779  -8.033  38.468  1.00  0.00     0.000 A 
HETATM   21  C12 UNK     1      28.159  -6.698  38.574  1.00  0.00     0.089 A 
HETATM   22  C20 UNK     1      28.760  -8.995  38.212  1.00  0.00     0.033 A 
HETATM   23  O1  UNK     1      27.200  -5.700  38.831  1.00  0.00    -0.274 OA
HETATM   24  C21 UNK     1      29.487  -6.301  38.432  1.00  0.00     0.039 A 
HETATM   25  C17 UNK     1      25.851  -6.000  38.989  1.00  0.00     0.304 A 
HETATM   26  O3  UNK     1      25.022  -5.123  39.213  1.00  0.00    -0.259 OA
HETATM   27  C23 UNK     1      30.458  -7.266  38.177  1.00  0.00     0.022 A 
HETATM   28  C22 UNK     1      30.096  -8.610  38.068  1.00  0.00     0.011 A 
HETATM   29 Br1  UNK     1      31.419  -9.916  37.720  1.00  0.00    -0.051 Br
ENDBRANCH   3  18
TORSDOF 4
ENDMDL
MODEL 5
REMARK VINA RESULT:      -8.0      3.264      8.525
REMARK  4 active torsions:
REMARK  status: ('A' for Active; 'I' for Inactive)
REMARK    1  A    between atoms: C1_6  and  N1_5 
REMARK       I    between atoms: C4_9  and  N1_5 
REMARK    2  A    between atoms: C1_6  and  C2_7 
REMARK    3  A    between atoms: C1_6  and  C3_8 
REMARK    4  A    between atoms: C4_9  and  C5_10 
ROOT
HETATM    1  O2  UNK     1      24.055  -8.479  39.923  1.00  0.00    -0.267 OA
HETATM    2  N1  UNK     1      23.251  -7.735  37.866  1.00  0.00    -0.344 N 
HETATM    3  C4  UNK     1      24.226  -8.170  38.746  1.00  0.00     0.258 C 
HETATM    4  H2  UNK     1      23.510  -7.456  36.924  1.00  0.00     0.163 HD
ENDROOT
BRANCH   2   5
HETATM    5  C1  UNK     1      21.862  -7.587  38.239  1.00  0.00     0.151 C 
BRANCH   5   6
HETATM    6  C2  UNK     1      21.084  -8.882  38.088  1.00  0.00    -0.031 A 
HETATM    7  C6  UNK     1      20.040  -9.143  38.955  1.00  0.00     0.009 A 
HETATM    8  C13 UNK     1      19.327 -10.333  38.816  1.00  0.00     0.001 A 
HETATM    9  C18 UNK     1      19.672 -11.241  37.815  1.00  0.00     0.000 A 
HETATM   10  C15 UNK     1      20.730 -10.958  36.952  1.00  0.00     0.001 A 
HETATM   11  C8  UNK     1      21.444  -9.767  37.090  1.00  0.00     0.009 A 
ENDBRANCH   5   6
BRANCH   5  12
HETATM   12  C3  UNK     1      21.195  -6.426  37.525  1.00  0.00    -0.031 A 
HETATM   13  C7  UNK     1      21.343  -5.149  38.035  1.00  0.00     0.009 A 
HETATM   14  C14 UNK     1      20.730  -4.082  37.379  1.00  0.00     0.001 A 
HETATM   15  C19 UNK     1      19.979  -4.310  36.225  1.00  0.00     0.000 A 
HETATM   16  C16 UNK     1      19.843  -5.606  35.727  1.00  0.00     0.001 A 
HETATM   17  C9  UNK     1      20.456  -6.674  36.383  1.00  0.00     0.009 A 
ENDBRANCH   5  12
ENDBRANCH   2   5
BRANCH   3  18
HETATM   18  C5  UNK     1      25.558  -8.242  38.133  1.00  0.00     0.108 A 
HETATM   19  C11 UNK     1      26.459  -7.355  38.571  1.00  0.00     0.037 A 
HETATM   20  C10 UNK     1      27.806  -7.348  38.024  1.00  0.00     0.000 A 
HETATM   21  C12 UNK     1      28.139  -8.276  37.042  1.00  0.00     0.089 A 
HETATM   22  C20 UNK     1      28.779  -6.440  38.451  1.00  0.00     0.033 A 
HETATM   23  O1  UNK     1      27.185  -9.206  36.585  1.00  0.00    -0.274 OA
HETATM   24  C21 UNK     1      29.411  -8.321  36.476  1.00  0.00     0.039 A 
HETATM   25  C17 UNK     1      25.889  -9.237  37.089  1.00  0.00     0.304 A 
HETATM   26  O3  UNK     1      25.065 -10.052  36.684  1.00  0.00    -0.259 OA
HETATM   27  C23 UNK     1      30.375  -7.413  36.908  1.00  0.00     0.022 A 
HETATM   28  C22 UNK     1      30.060  -6.475  37.893  1.00  0.00     0.011 A 
HETATM   29 Br1  UNK     1      31.374  -5.245  38.476  1.00  0.00    -0.051 Br
ENDBRANCH   3  18
TORSDOF 4
ENDMDL
MODEL 6
REMARK VINA RESULT:      -8.0      1.591      2.226
REMARK  4 active torsions:
REMARK  status: ('A' for Active; 'I' for Inactive)
REMARK    1  A    between atoms: C1_6  and  N1_5 
REMARK       I    between atoms: C4_9  and  N1_5 
REMARK    2  A    between atoms: C1_6  and  C2_7 
REMARK    3  A    between atoms: C1_6  and  C3_8 
REMARK    4  A    between atoms: C4_9  and  C5_10 
ROOT
HETATM    1  O2  UNK     1      26.170 -10.819  36.479  1.00  0.00    -0.267 OA
HETATM    2  N1  UNK     1      27.354  -8.838  36.808  1.00  0.00    -0.344 N 
HETATM    3  C4  UNK     1      26.241  -9.657  36.872  1.00  0.00     0.258 C 
HETATM    4  H2  UNK     1      27.289  -7.873  37.116  1.00  0.00     0.163 HD
ENDROOT
BRANCH   2   5
HETATM    5  C1  UNK     1      28.617  -9.268  36.250  1.00  0.00     0.151 C 
BRANCH   5   6
HETATM    6  C2  UNK     1      29.803  -8.650  36.968  1.00  0.00    -0.031 A 
HETATM    7  C6  UNK     1      31.039  -9.261  36.873  1.00  0.00     0.009 A 
HETATM    8  C13 UNK     1      32.127  -8.693  37.534  1.00  0.00     0.001 A 
HETATM    9  C18 UNK     1      31.960  -7.525  38.279  1.00  0.00     0.000 A 
HETATM   10  C15 UNK     1      30.704  -6.926  38.362  1.00  0.00     0.001 A 
HETATM   11  C8  UNK     1      29.614  -7.494  37.701  1.00  0.00     0.009 A 
ENDBRANCH   5   6
BRANCH   5  12
HETATM   12  C3  UNK     1      28.682  -9.066  34.747  1.00  0.00    -0.031 A 
HETATM   13  C7  UNK     1      28.419  -7.812  34.227  1.00  0.00     0.009 A 
HETATM   14  C14 UNK     1      28.478  -7.626  32.846  1.00  0.00     0.001 A 
HETATM   15  C19 UNK     1      28.799  -8.696  32.010  1.00  0.00     0.000 A 
HETATM   16  C16 UNK     1      29.061  -9.952  32.557  1.00  0.00     0.001 A 
HETATM   17  C9  UNK     1      29.002 -10.139  33.938  1.00  0.00     0.009 A 
ENDBRANCH   5  12
ENDBRANCH   2   5
BRANCH   3  18
HETATM   18  C5  UNK     1      25.081  -8.996  37.483  1.00  0.00     0.108 A 
HETATM   19  C11 UNK     1      23.909  -9.160  36.857  1.00  0.00     0.037 A 
HETATM   20  C10 UNK     1      22.703  -8.543  37.386  1.00  0.00     0.000 A 
HETATM   21  C12 UNK     1      22.790  -7.785  38.550  1.00  0.00     0.089 A 
HETATM   22  C20 UNK     1      21.459  -8.688  36.766  1.00  0.00     0.033 A 
HETATM   23  O1  UNK     1      24.026  -7.616  39.203  1.00  0.00    -0.274 OA
HETATM   24  C21 UNK     1      21.672  -7.168  39.107  1.00  0.00     0.039 A 
HETATM   25  C17 UNK     1      25.196  -8.193  38.721  1.00  0.00     0.304 A 
HETATM   26  O3  UNK     1      26.269  -8.040  39.297  1.00  0.00    -0.259 OA
HETATM   27  C23 UNK     1      20.436  -7.316  38.483  1.00  0.00     0.022 A 
HETATM   28  C22 UNK     1      20.329  -8.074  37.315  1.00  0.00     0.011 A 
HETATM   29 Br1  UNK     1      18.647  -8.274  36.473  1.00  0.00    -0.051 Br
ENDBRANCH   3  18
TORSDOF 4
ENDMDL
MODEL 7
REMARK VINA RESULT:      -7.9     33.210     35.077
REMARK  4 active torsions:
REMARK  status: ('A' for Active; 'I' for Inactive)
REMARK    1  A    between atoms: C1_6  and  N1_5 
REMARK       I    between atoms: C4_9  and  N1_5 
REMARK    2  A    between atoms: C1_6  and  C2_7 
REMARK    3  A    between atoms: C1_6  and  C3_8 
REMARK    4  A    between atoms: C4_9  and  C5_10 
ROOT
HETATM    1  O2  UNK     1      15.723  11.214  10.959  1.00  0.00    -0.267 OA
HETATM    2  N1  UNK     1      17.320  10.999   9.275  1.00  0.00    -0.344 N 
HETATM    3  C4  UNK     1      16.270  10.570  10.066  1.00  0.00     0.258 C 
HETATM    4  H2  UNK     1      17.732  10.365   8.596  1.00  0.00     0.163 HD
ENDROOT
BRANCH   2   5
HETATM    5  C1  UNK     1      17.925  12.306   9.408  1.00  0.00     0.151 C 
BRANCH   5   6
HETATM    6  C2  UNK     1      18.404  12.856   8.077  1.00  0.00    -0.031 A 
HETATM    7  C6  UNK     1      18.773  14.185   7.993  1.00  0.00     0.009 A 
HETATM    8  C13 UNK     1      19.212  14.690   6.770  1.00  0.00     0.001 A 
HETATM    9  C18 UNK     1      19.273  13.857   5.652  1.00  0.00     0.000 A 
HETATM   10  C15 UNK     1      18.894  12.519   5.759  1.00  0.00     0.001 A 
HETATM   11  C8  UNK     1      18.455  12.013   6.983  1.00  0.00     0.009 A 
ENDBRANCH   5   6
BRANCH   5  12
HETATM   12  C3  UNK     1      19.010  12.333  10.469  1.00  0.00    -0.031 A 
HETATM   13  C7  UNK     1      18.754  12.959  11.674  1.00  0.00     0.009 A 
HETATM   14  C14 UNK     1      19.751  12.985  12.649  1.00  0.00     0.001 A 
HETATM   15  C19 UNK     1      20.986  12.383  12.401  1.00  0.00     0.000 A 
HETATM   16  C16 UNK     1      21.222  11.757  11.178  1.00  0.00     0.001 A 
HETATM   17  C9  UNK     1      20.226  11.731  10.203  1.00  0.00     0.009 A 
ENDBRANCH   5  12
ENDBRANCH   2   5
BRANCH   3  18
HETATM   18  C5  UNK     1      15.827   9.209   9.739  1.00  0.00     0.108 A 
HETATM   19  C11 UNK     1      14.602   9.096   9.214  1.00  0.00     0.037 A 
HETATM   20  C10 UNK     1      14.075   7.788   8.857  1.00  0.00     0.000 A 
HETATM   21  C12 UNK     1      14.865   6.663   9.071  1.00  0.00     0.089 A 
HETATM   22  C20 UNK     1      12.801   7.623   8.306  1.00  0.00     0.033 A 
HETATM   23  O1  UNK     1      16.154   6.789   9.624  1.00  0.00    -0.274 OA
HETATM   24  C21 UNK     1      14.420   5.383   8.752  1.00  0.00     0.039 A 
HETATM   25  C17 UNK     1      16.685   8.026   9.976  1.00  0.00     0.304 A 
HETATM   26  O3  UNK     1      17.809   8.126  10.457  1.00  0.00    -0.259 OA
HETATM   27  C23 UNK     1      13.149   5.226   8.203  1.00  0.00     0.022 A 
HETATM   28  C22 UNK     1      12.341   6.343   7.981  1.00  0.00     0.011 A 
HETATM   29 Br1  UNK     1      10.617   6.125   7.234  1.00  0.00    -0.051 Br
ENDBRANCH   3  18
TORSDOF 4
ENDMDL
MODEL 8
REMARK VINA RESULT:      -7.7      4.614      7.728
REMARK  4 active torsions:
REMARK  status: ('A' for Active; 'I' for Inactive)
REMARK    1  A    between atoms: C1_6  and  N1_5 
REMARK       I    between atoms: C4_9  and  N1_5 
REMARK    2  A    between atoms: C1_6  and  C2_7 
REMARK    3  A    between atoms: C1_6  and  C3_8 
REMARK    4  A    between atoms: C4_9  and  C5_10 
ROOT
HETATM    1  O2  UNK     1      30.274  -4.746  32.320  1.00  0.00    -0.267 OA
HETATM    2  N1  UNK     1      30.774  -7.021  32.242  1.00  0.00    -0.344 N 
HETATM    3  C4  UNK     1      30.431  -5.835  32.867  1.00  0.00     0.258 C 
HETATM    4  H2  UNK     1      30.929  -7.858  32.798  1.00  0.00     0.163 HD
ENDROOT
BRANCH   2   5
HETATM    5  C1  UNK     1      30.997  -7.126  30.817  1.00  0.00     0.151 C 
BRANCH   5   6
HETATM    6  C2  UNK     1      29.957  -7.997  30.135  1.00  0.00    -0.031 A 
HETATM    7  C6  UNK     1      30.321  -8.728  29.021  1.00  0.00     0.009 A 
HETATM    8  C13 UNK     1      29.365  -9.528  28.395  1.00  0.00     0.001 A 
HETATM    9  C18 UNK     1      28.063  -9.580  28.894  1.00  0.00     0.000 A 
HETATM   10  C15 UNK     1      27.718  -8.833  30.019  1.00  0.00     0.001 A 
HETATM   11  C8  UNK     1      28.674  -8.033  30.646  1.00  0.00     0.009 A 
ENDBRANCH   5   6
BRANCH   5  12
HETATM   12  C3  UNK     1      32.415  -7.551  30.486  1.00  0.00    -0.031 A 
HETATM   13  C7  UNK     1      33.074  -6.932  29.440  1.00  0.00     0.009 A 
HETATM   14  C14 UNK     1      34.378  -7.323  29.135  1.00  0.00     0.001 A 
HETATM   15  C19 UNK     1      34.999  -8.326  29.881  1.00  0.00     0.000 A 
HETATM   16  C16 UNK     1      34.315  -8.936  30.932  1.00  0.00     0.001 A 
HETATM   17  C9  UNK     1      33.012  -8.546  31.238  1.00  0.00     0.009 A 
ENDBRANCH   5  12
ENDBRANCH   2   5
BRANCH   3  18
HETATM   18  C5  UNK     1      30.256  -5.984  34.317  1.00  0.00     0.108 A 
HETATM   19  C11 UNK     1      29.118  -6.559  34.719  1.00  0.00     0.037 A 
HETATM   20  C10 UNK     1      28.853  -6.749  36.137  1.00  0.00     0.000 A 
HETATM   21  C12 UNK     1      29.803  -6.325  37.061  1.00  0.00     0.089 A 
HETATM   22  C20 UNK     1      27.678  -7.345  36.602  1.00  0.00     0.033 A 
HETATM   23  O1  UNK     1      30.999  -5.720  36.631  1.00  0.00    -0.274 OA
HETATM   24  C21 UNK     1      29.610  -6.477  38.432  1.00  0.00     0.039 A 
HETATM   25  C17 UNK     1      31.280  -5.524  35.282  1.00  0.00     0.304 A 
HETATM   26  O3  UNK     1      32.326  -4.996  34.917  1.00  0.00    -0.259 OA
HETATM   27  C23 UNK     1      28.436  -7.072  38.888  1.00  0.00     0.022 A 
HETATM   28  C22 UNK     1      27.472  -7.505  37.976  1.00  0.00     0.011 A 
HETATM   29 Br1  UNK     1      25.880  -8.313  38.600  1.00  0.00    -0.051 Br
ENDBRANCH   3  18
TORSDOF 4
ENDMDL
MODEL 9
REMARK VINA RESULT:      -7.6     31.581     33.403
REMARK  4 active torsions:
REMARK  status: ('A' for Active; 'I' for Inactive)
REMARK    1  A    between atoms: C1_6  and  N1_5 
REMARK       I    between atoms: C4_9  and  N1_5 
REMARK    2  A    between atoms: C1_6  and  C2_7 
REMARK    3  A    between atoms: C1_6  and  C3_8 
REMARK    4  A    between atoms: C4_9  and  C5_10 
ROOT
HETATM    1  O2  UNK     1      21.363  14.933  11.080  1.00  0.00    -0.267 OA
HETATM    2  N1  UNK     1      22.507  12.978  11.632  1.00  0.00    -0.344 N 
HETATM    3  C4  UNK     1      21.468  13.708  11.083  1.00  0.00     0.258 C 
HETATM    4  H2  UNK     1      22.470  11.963  11.624  1.00  0.00     0.163 HD
ENDROOT
BRANCH   2   5
HETATM    5  C1  UNK     1      23.636  13.591  12.295  1.00  0.00     0.151 C 
BRANCH   5   6
HETATM    6  C2  UNK     1      24.920  12.809  12.084  1.00  0.00    -0.031 A 
HETATM    7  C6  UNK     1      26.132  13.455  12.232  1.00  0.00     0.009 A 
HETATM    8  C13 UNK     1      27.311  12.736  12.038  1.00  0.00     0.001 A 
HETATM    9  C18 UNK     1      27.256  11.384  11.698  1.00  0.00     0.000 A 
HETATM   10  C15 UNK     1      26.022  10.751  11.554  1.00  0.00     0.001 A 
HETATM   11  C8  UNK     1      24.842  11.471  11.748  1.00  0.00     0.009 A 
ENDBRANCH   5   6
BRANCH   5  12
HETATM   12  C3  UNK     1      23.363  13.869  13.762  1.00  0.00    -0.031 A 
HETATM   13  C7  UNK     1      23.457  15.167  14.228  1.00  0.00     0.009 A 
HETATM   14  C14 UNK     1      23.206  15.422  15.576  1.00  0.00     0.001 A 
HETATM   15  C19 UNK     1      22.865  14.376  16.433  1.00  0.00     0.000 A 
HETATM   16  C16 UNK     1      22.775  13.074  15.941  1.00  0.00     0.001 A 
HETATM   17  C9  UNK     1      23.026  12.817  14.594  1.00  0.00     0.009 A 
ENDBRANCH   5  12
ENDBRANCH   2   5
BRANCH   3  18
HETATM   18  C5  UNK     1      20.441  12.862  10.463  1.00  0.00     0.108 A 
HETATM   19  C11 UNK     1      19.230  12.890  11.032  1.00  0.00     0.037 A 
HETATM   20  C10 UNK     1      18.147  12.085  10.490  1.00  0.00     0.000 A 
HETATM   21  C12 UNK     1      18.392  11.290   9.374  1.00  0.00     0.089 A 
HETATM   22  C20 UNK     1      16.867  12.082  11.051  1.00  0.00     0.033 A 
HETATM   23  O1  UNK     1      19.668  11.266   8.780  1.00  0.00    -0.274 OA
HETATM   24  C21 UNK     1      17.398  10.496   8.807  1.00  0.00     0.039 A 
HETATM   25  C17 UNK     1      20.724  12.024   9.276  1.00  0.00     0.304 A 
HETATM   26  O3  UNK     1      21.834  11.996   8.752  1.00  0.00    -0.259 OA
HETATM   27  C23 UNK     1      16.125  10.499   9.373  1.00  0.00     0.022 A 
HETATM   28  C22 UNK     1      15.860  11.290  10.492  1.00  0.00     0.011 A 
HETATM   29 Br1  UNK     1      14.129  11.292  11.255  1.00  0.00    -0.051 Br
ENDBRANCH   3  18
TORSDOF 4
ENDMDL
MODEL 10
REMARK VINA RESULT:      -7.6      4.567      7.645
REMARK  4 active torsions:
REMARK  status: ('A' for Active; 'I' for Inactive)
REMARK    1  A    between atoms: C1_6  and  N1_5 
REMARK       I    between atoms: C4_9  and  N1_5 
REMARK    2  A    between atoms: C1_6  and  C2_7 
REMARK    3  A    between atoms: C1_6  and  C3_8 
REMARK    4  A    between atoms: C4_9  and  C5_10 
ROOT
HETATM    1  O2  UNK     1      27.160  -9.615  35.714  1.00  0.00    -0.267 OA
HETATM    2  N1  UNK     1      28.577  -7.767  35.797  1.00  0.00    -0.344 N 
HETATM    3  C4  UNK     1      28.031  -8.901  35.224  1.00  0.00     0.258 C 
HETATM    4  H2  UNK     1      29.332  -7.276  35.326  1.00  0.00     0.163 HD
ENDROOT
BRANCH   2   5
HETATM    5  C1  UNK     1      28.173  -7.266  37.092  1.00  0.00     0.151 C 
BRANCH   5   6
HETATM    6  C2  UNK     1      28.969  -6.042  37.509  1.00  0.00    -0.031 A 
HETATM    7  C6  UNK     1      28.613  -5.371  38.663  1.00  0.00     0.009 A 
HETATM    8  C13 UNK     1      29.344  -4.246  39.045  1.00  0.00     0.001 A 
HETATM    9  C18 UNK     1      30.417  -3.813  38.264  1.00  0.00     0.000 A 
HETATM   10  C15 UNK     1      30.757  -4.504  37.102  1.00  0.00     0.001 A 
HETATM   11  C8  UNK     1      30.026  -5.630  36.720  1.00  0.00     0.009 A 
ENDBRANCH   5   6
BRANCH   5  12
HETATM   12  C3  UNK     1      28.177  -8.348  38.156  1.00  0.00    -0.031 A 
HETATM   13  C7  UNK     1      29.343  -9.054  38.390  1.00  0.00     0.009 A 
HETATM   14  C14 UNK     1      29.347 -10.049  39.368  1.00  0.00     0.001 A 
HETATM   15  C19 UNK     1      28.186 -10.320  40.093  1.00  0.00     0.000 A 
HETATM   16  C16 UNK     1      27.022  -9.595  39.840  1.00  0.00     0.001 A 
HETATM   17  C9  UNK     1      27.017  -8.600  38.863  1.00  0.00     0.009 A 
ENDBRANCH   5  12
ENDBRANCH   2   5
BRANCH   3  18
HETATM   18  C5  UNK     1      28.601  -9.206  33.906  1.00  0.00     0.108 A 
HETATM   19  C11 UNK     1      29.132 -10.425  33.758  1.00  0.00     0.037 A 
HETATM   20  C10 UNK     1      29.722 -10.819  32.489  1.00  0.00     0.000 A 
HETATM   21  C12 UNK     1      29.723  -9.910  31.436  1.00  0.00     0.089 A 
HETATM   22  C20 UNK     1      30.288 -12.082  32.290  1.00  0.00     0.033 A 
HETATM   23  O1  UNK     1      29.162  -8.628  31.597  1.00  0.00    -0.274 OA
HETATM   24  C21 UNK     1      30.272 -10.225  30.195  1.00  0.00     0.039 A 
HETATM   25  C17 UNK     1      28.591  -8.222  32.799  1.00  0.00     0.304 A 
HETATM   26  O3  UNK     1      28.105  -7.103  32.931  1.00  0.00    -0.259 OA
HETATM   27  C23 UNK     1      30.834 -11.485  30.005  1.00  0.00     0.022 A 
HETATM   28  C22 UNK     1      30.842 -12.412  31.050  1.00  0.00     0.011 A 
HETATM   29 Br1  UNK     1      31.606 -14.122  30.786  1.00  0.00    -0.051 Br
ENDBRANCH   3  18
TORSDOF 4
ENDMDL
