MODEL 1
REMARK VINA RESULT:      -9.5      0.000      0.000
REMARK  5 active torsions:
REMARK  status: ('A' for Active; 'I' for Inactive)
REMARK    1  A    between atoms: C13_21  and  O2_3 
REMARK    2  A    between atoms: C21_29  and  O5_6 
REMARK       I    between atoms: C15_23  and  N1_8 
REMARK    3  A    between atoms: C6_14  and  N1_8 
REMARK    4  A    between atoms: C13_21  and  C3_11 
REMARK    5  A    between atoms: C14_22  and  C15_23 
ROOT
HETATM    1  S1  UNK     1      19.551  -2.476  12.490  1.00  0.00    -0.075 SA
HETATM    2  C1  UNK     1      19.891  -4.972  12.995  1.00  0.00     0.006 A 
HETATM    3  C2  UNK     1      20.045  -6.385  12.756  1.00  0.00    -0.017 A 
HETATM    4  C3  UNK     1      19.902  -4.308  14.257  1.00  0.00     0.085 A 
HETATM    5  C4  UNK     1      19.708  -4.093  11.950  1.00  0.00    -0.007 A 
HETATM    6  C5  UNK     1      18.938  -7.232  12.724  1.00  0.00    -0.051 A 
HETATM    7  C6  UNK     1      19.729  -2.969  14.106  1.00  0.00     0.094 A 
HETATM    8  C7  UNK     1      21.326  -6.896  12.558  1.00  0.00     0.019 A 
HETATM    9  C8  UNK     1      21.501  -8.260  12.325  1.00  0.00    -0.061 A 
HETATM   10  C9  UNK     1      19.114  -8.595  12.491  1.00  0.00     0.008 A 
HETATM   11  C10 UNK     1      19.636  -4.364  10.495  1.00  0.00     0.057 C 
HETATM   12  C11 UNK     1      20.395  -9.110  12.291  1.00  0.00     0.007 A 
HETATM   13  C12 UNK     1      17.550  -6.717  12.934  1.00  0.00     0.049 C 
HETATM   14  C16 UNK     1      22.871  -8.811  12.112  1.00  0.00     0.048 C 
ENDROOT
BRANCH   7  15
HETATM   15  N1  UNK     1      19.673  -1.949  15.061  1.00  0.00    -0.316 N 
HETATM   16  C15 UNK     1      18.647  -1.736  15.971  1.00  0.00     0.262 C 
HETATM   17  O4  UNK     1      17.610  -2.379  16.122  1.00  0.00    -0.267 OA
HETATM   18  H7  UNK     1      20.484  -1.338  15.074  1.00  0.00     0.169 HD
BRANCH  16  19
HETATM   19  C14 UNK     1      18.910  -0.574  16.829  1.00  0.00     0.108 A 
HETATM   20  C18 UNK     1      18.922  -0.803  18.148  1.00  0.00     0.037 A 
HETATM   21  C17 UNK     1      19.173   0.286  19.078  1.00  0.00     0.002 A 
HETATM   22  C19 UNK     1      19.399   1.563  18.575  1.00  0.00     0.123 A 
HETATM   23  C22 UNK     1      19.196   0.093  20.462  1.00  0.00     0.014 A 
HETATM   24  O1  UNK     1      19.385   1.798  17.187  1.00  0.00    -0.271 OA
HETATM   25  C21 UNK     1      19.646   2.649  19.413  1.00  0.00     0.102 A 
HETATM   26  C20 UNK     1      19.149   0.776  16.271  1.00  0.00     0.304 A 
HETATM   27  O6  UNK     1      19.140   0.990  15.064  1.00  0.00    -0.259 OA
HETATM   28  C23 UNK     1      19.666   2.448  20.792  1.00  0.00     0.040 A 
HETATM   29  C24 UNK     1      19.442   1.173  21.315  1.00  0.00     0.004 A 
BRANCH  25  30
HETATM   30  O5  UNK     1      19.865   3.892  18.907  1.00  0.00    -0.353 OA
HETATM   31  C26 UNK     1      21.201   4.211  18.521  1.00  0.00     0.210 C 
ENDBRANCH  25  30
ENDBRANCH  16  19
ENDBRANCH   7  15
BRANCH   4  32
HETATM   32  C13 UNK     1      20.072  -4.945  15.539  1.00  0.00     0.296 C 
HETATM   33  O3  UNK     1      19.454  -5.958  15.895  1.00  0.00    -0.259 OA
BRANCH  32  34
HETATM   34  O2  UNK     1      20.994  -4.323  16.353  1.00  0.00    -0.322 OA
HETATM   35  C25 UNK     1      22.362  -4.719  16.199  1.00  0.00     0.213 C 
ENDBRANCH  32  34
ENDBRANCH   4  32
TORSDOF 5
ENDMDL
MODEL 2
REMARK VINA RESULT:      -8.6      2.101      3.136
REMARK  5 active torsions:
REMARK  status: ('A' for Active; 'I' for Inactive)
REMARK    1  A    between atoms: C13_21  and  O2_3 
REMARK    2  A    between atoms: C21_29  and  O5_6 
REMARK       I    between atoms: C15_23  and  N1_8 
REMARK    3  A    between atoms: C6_14  and  N1_8 
REMARK    4  A    between atoms: C13_21  and  C3_11 
REMARK    5  A    between atoms: C14_22  and  C15_23 
ROOT
HETATM    1  S1  UNK     1      17.388  -5.527  15.391  1.00  0.00    -0.075 SA
HETATM    2  C1  UNK     1      18.244  -5.952  13.006  1.00  0.00     0.006 A 
HETATM    3  C2  UNK     1      18.493  -6.650  11.770  1.00  0.00    -0.017 A 
HETATM    4  C3  UNK     1      18.644  -4.625  13.339  1.00  0.00     0.085 A 
HETATM    5  C4  UNK     1      17.553  -6.558  14.033  1.00  0.00    -0.007 A 
HETATM    6  C5  UNK     1      19.643  -7.417  11.598  1.00  0.00    -0.051 A 
HETATM    7  C6  UNK     1      18.238  -4.292  14.592  1.00  0.00     0.094 A 
HETATM    8  C7  UNK     1      17.559  -6.545  10.740  1.00  0.00     0.019 A 
HETATM    9  C8  UNK     1      17.777  -7.211   9.534  1.00  0.00    -0.061 A 
HETATM   10  C9  UNK     1      19.861  -8.082  10.391  1.00  0.00     0.008 A 
HETATM   11  C10 UNK     1      16.967  -7.917  14.101  1.00  0.00     0.057 C 
HETATM   12  C11 UNK     1      18.928  -7.980   9.360  1.00  0.00     0.007 A 
HETATM   13  C12 UNK     1      20.666  -7.551  12.680  1.00  0.00     0.049 C 
HETATM   14  C16 UNK     1      16.780  -7.100   8.430  1.00  0.00     0.048 C 
ENDROOT
BRANCH   7  15
HETATM   15  N1  UNK     1      18.412  -3.108  15.316  1.00  0.00    -0.316 N 
HETATM   16  C15 UNK     1      19.607  -2.637  15.839  1.00  0.00     0.262 C 
HETATM   17  O4  UNK     1      20.726  -3.145  15.775  1.00  0.00    -0.267 OA
HETATM   18  H7  UNK     1      17.566  -2.559  15.435  1.00  0.00     0.169 HD
BRANCH  16  19
HETATM   19  C14 UNK     1      19.431  -1.362  16.545  1.00  0.00     0.108 A 
HETATM   20  C18 UNK     1      19.337  -1.433  17.879  1.00  0.00     0.037 A 
HETATM   21  C17 UNK     1      19.160  -0.223  18.666  1.00  0.00     0.002 A 
HETATM   22  C19 UNK     1      19.090   1.003  18.011  1.00  0.00     0.123 A 
HETATM   23  C22 UNK     1      19.060  -0.249  20.059  1.00  0.00     0.014 A 
HETATM   24  O1  UNK     1      19.188   1.070  16.608  1.00  0.00    -0.271 OA
HETATM   25  C21 UNK     1      18.921   2.198  18.706  1.00  0.00     0.102 A 
HETATM   26  C20 UNK     1      19.359  -0.070  15.827  1.00  0.00     0.304 A 
HETATM   27  O6  UNK     1      19.445  -0.001  14.606  1.00  0.00    -0.259 OA
HETATM   28  C23 UNK     1      18.821   2.163  20.096  1.00  0.00     0.040 A 
HETATM   29  C24 UNK     1      18.890   0.942  20.771  1.00  0.00     0.004 A 
BRANCH  25  30
HETATM   30  O5  UNK     1      18.854   3.389  18.053  1.00  0.00    -0.353 OA
HETATM   31  C26 UNK     1      20.012   4.221  18.095  1.00  0.00     0.210 C 
ENDBRANCH  25  30
ENDBRANCH  16  19
ENDBRANCH   7  15
BRANCH   4  32
HETATM   32  C13 UNK     1      19.381  -3.730  12.482  1.00  0.00     0.296 C 
HETATM   33  O3  UNK     1      20.565  -3.901  12.159  1.00  0.00    -0.259 OA
BRANCH  32  34
HETATM   34  O2  UNK     1      18.648  -2.650  12.041  1.00  0.00    -0.322 OA
HETATM   35  C25 UNK     1      19.384  -1.550  11.494  1.00  0.00     0.213 C 
ENDBRANCH  32  34
ENDBRANCH   4  32
TORSDOF 5
ENDMDL
MODEL 3
REMARK VINA RESULT:      -8.6     13.390     16.897
REMARK  5 active torsions:
REMARK  status: ('A' for Active; 'I' for Inactive)
REMARK    1  A    between atoms: C13_21  and  O2_3 
REMARK    2  A    between atoms: C21_29  and  O5_6 
REMARK       I    between atoms: C15_23  and  N1_8 
REMARK    3  A    between atoms: C6_14  and  N1_8 
REMARK    4  A    between atoms: C13_21  and  C3_11 
REMARK    5  A    between atoms: C14_22  and  C15_23 
ROOT
HETATM    1  S1  UNK     1      14.912  12.724   8.698  1.00  0.00    -0.075 SA
HETATM    2  C1  UNK     1      17.199  12.050   9.655  1.00  0.00     0.006 A 
HETATM    3  C2  UNK     1      18.576  12.171  10.065  1.00  0.00    -0.017 A 
HETATM    4  C3  UNK     1      16.373  10.892   9.752  1.00  0.00     0.085 A 
HETATM    5  C4  UNK     1      16.530  13.118   9.100  1.00  0.00    -0.007 A 
HETATM    6  C5  UNK     1      19.615  11.887   9.181  1.00  0.00    -0.051 A 
HETATM    7  C6  UNK     1      15.127  11.138   9.270  1.00  0.00     0.094 A 
HETATM    8  C7  UNK     1      18.855  12.578  11.368  1.00  0.00     0.019 A 
HETATM    9  C8  UNK     1      20.179  12.703  11.789  1.00  0.00    -0.061 A 
HETATM   10  C9  UNK     1      20.939  12.011   9.602  1.00  0.00     0.008 A 
HETATM   11  C10 UNK     1      17.013  14.491   8.824  1.00  0.00     0.057 C 
HETATM   12  C11 UNK     1      21.221  12.420  10.905  1.00  0.00     0.007 A 
HETATM   13  C12 UNK     1      19.352  11.447   7.776  1.00  0.00     0.049 C 
HETATM   14  C16 UNK     1      20.482  13.139  13.182  1.00  0.00     0.048 C 
ENDROOT
BRANCH   7  15
HETATM   15  N1  UNK     1      14.012  10.301   9.170  1.00  0.00    -0.316 N 
HETATM   16  C15 UNK     1      13.973   9.062   8.547  1.00  0.00     0.262 C 
HETATM   17  O4  UNK     1      14.881   8.462   7.974  1.00  0.00    -0.267 OA
HETATM   18  H7  UNK     1      13.175  10.657   9.622  1.00  0.00     0.169 HD
BRANCH  16  19
HETATM   19  C14 UNK     1      12.640   8.452   8.626  1.00  0.00     0.108 A 
HETATM   20  C18 UNK     1      12.184   7.880   7.505  1.00  0.00     0.037 A 
HETATM   21  C17 UNK     1      10.873   7.250   7.484  1.00  0.00     0.002 A 
HETATM   22  C19 UNK     1      10.106   7.253   8.645  1.00  0.00     0.123 A 
HETATM   23  C22 UNK     1      10.358   6.640   6.339  1.00  0.00     0.014 A 
HETATM   24  O1  UNK     1      10.591   7.857   9.821  1.00  0.00    -0.271 OA
HETATM   25  C21 UNK     1       8.843   6.667   8.691  1.00  0.00     0.102 A 
HETATM   26  C20 UNK     1      11.841   8.467   9.872  1.00  0.00     0.304 A 
HETATM   27  O6  UNK     1      12.256   8.989  10.901  1.00  0.00    -0.259 OA
HETATM   28  C23 UNK     1       8.336   6.061   7.543  1.00  0.00     0.040 A 
HETATM   29  C24 UNK     1       9.092   6.048   6.369  1.00  0.00     0.004 A 
BRANCH  25  30
HETATM   30  O5  UNK     1       8.104   6.678   9.833  1.00  0.00    -0.353 OA
HETATM   31  C26 UNK     1       7.577   5.430  10.279  1.00  0.00     0.210 C 
ENDBRANCH  25  30
ENDBRANCH  16  19
ENDBRANCH   7  15
BRANCH   4  32
HETATM   32  C13 UNK     1      16.776   9.615  10.287  1.00  0.00     0.296 C 
HETATM   33  O3  UNK     1      17.713   8.941   9.835  1.00  0.00    -0.259 OA
BRANCH  32  34
HETATM   34  O2  UNK     1      16.021   9.196  11.361  1.00  0.00    -0.322 OA
HETATM   35  C25 UNK     1      15.748   7.793  11.450  1.00  0.00     0.213 C 
ENDBRANCH  32  34
ENDBRANCH   4  32
TORSDOF 5
ENDMDL
MODEL 4
REMARK VINA RESULT:      -8.5     13.375     16.951
REMARK  5 active torsions:
REMARK  status: ('A' for Active; 'I' for Inactive)
REMARK    1  A    between atoms: C13_21  and  O2_3 
REMARK    2  A    between atoms: C21_29  and  O5_6 
REMARK       I    between atoms: C15_23  and  N1_8 
REMARK    3  A    between atoms: C6_14  and  N1_8 
REMARK    4  A    between atoms: C13_21  and  C3_11 
REMARK    5  A    between atoms: C14_22  and  C15_23 
ROOT
HETATM    1  S1  UNK     1      14.975  12.830   8.862  1.00  0.00    -0.075 SA
HETATM    2  C1  UNK     1      17.308  12.087   9.640  1.00  0.00     0.006 A 
HETATM    3  C2  UNK     1      18.696  12.185  10.018  1.00  0.00    -0.017 A 
HETATM    4  C3  UNK     1      16.512  10.906   9.597  1.00  0.00     0.085 A 
HETATM    5  C4  UNK     1      16.597  13.206   9.264  1.00  0.00    -0.007 A 
HETATM    6  C5  UNK     1      19.709  12.057   9.069  1.00  0.00    -0.051 A 
HETATM    7  C6  UNK     1      15.244  11.186   9.194  1.00  0.00     0.094 A 
HETATM    8  C7  UNK     1      19.012  12.411  11.356  1.00  0.00     0.019 A 
HETATM    9  C8  UNK     1      20.348  12.509  11.748  1.00  0.00    -0.061 A 
HETATM   10  C9  UNK     1      21.044  12.155   9.461  1.00  0.00     0.008 A 
HETATM   11  C10 UNK     1      17.041  14.616   9.171  1.00  0.00     0.057 C 
HETATM   12  C11 UNK     1      21.364  12.382  10.799  1.00  0.00     0.007 A 
HETATM   13  C12 UNK     1      19.406  11.814   7.626  1.00  0.00     0.049 C 
HETATM   14  C16 UNK     1      20.690  12.751  13.179  1.00  0.00     0.048 C 
ENDROOT
BRANCH   7  15
HETATM   15  N1  UNK     1      14.144  10.342   9.012  1.00  0.00    -0.316 N 
HETATM   16  C15 UNK     1      13.241   9.953   9.991  1.00  0.00     0.262 C 
HETATM   17  O4  UNK     1      13.220  10.260  11.181  1.00  0.00    -0.267 OA
HETATM   18  H7  UNK     1      14.015  10.018   8.059  1.00  0.00     0.169 HD
BRANCH  16  19
HETATM   19  C14 UNK     1      12.206   9.060   9.456  1.00  0.00     0.108 A 
HETATM   20  C18 UNK     1      10.958   9.274   9.889  1.00  0.00     0.037 A 
HETATM   21  C17 UNK     1       9.864   8.440   9.416  1.00  0.00     0.002 A 
HETATM   22  C19 UNK     1      10.138   7.421   8.510  1.00  0.00     0.123 A 
HETATM   23  C22 UNK     1       8.547   8.629   9.839  1.00  0.00     0.014 A 
HETATM   24  O1  UNK     1      11.454   7.200   8.058  1.00  0.00    -0.271 OA
HETATM   25  C21 UNK     1       9.136   6.587   8.018  1.00  0.00     0.102 A 
HETATM   26  C20 UNK     1      12.521   7.982   8.491  1.00  0.00     0.304 A 
HETATM   27  O6  UNK     1      13.662   7.783   8.091  1.00  0.00    -0.259 OA
HETATM   28  C23 UNK     1       7.824   6.781   8.446  1.00  0.00     0.040 A 
HETATM   29  C24 UNK     1       7.530   7.800   9.356  1.00  0.00     0.004 A 
BRANCH  25  30
HETATM   30  O5  UNK     1       9.419   5.594   7.133  1.00  0.00    -0.353 OA
HETATM   31  C26 UNK     1       9.568   5.966   5.764  1.00  0.00     0.210 C 
ENDBRANCH  25  30
ENDBRANCH  16  19
ENDBRANCH   7  15
BRANCH   4  32
HETATM   32  C13 UNK     1      16.961   9.577   9.930  1.00  0.00     0.296 C 
HETATM   33  O3  UNK     1      17.842   8.968   9.306  1.00  0.00    -0.259 OA
BRANCH  32  34
HETATM   34  O2  UNK     1      16.319   9.028  11.019  1.00  0.00    -0.322 OA
HETATM   35  C25 UNK     1      15.953   7.647  10.924  1.00  0.00     0.213 C 
ENDBRANCH  32  34
ENDBRANCH   4  32
TORSDOF 5
ENDMDL
MODEL 5
REMARK VINA RESULT:      -8.4     22.487     24.461
REMARK  5 active torsions:
REMARK  status: ('A' for Active; 'I' for Inactive)
REMARK    1  A    between atoms: C13_21  and  O2_3 
REMARK    2  A    between atoms: C21_29  and  O5_6 
REMARK       I    between atoms: C15_23  and  N1_8 
REMARK    3  A    between atoms: C6_14  and  N1_8 
REMARK    4  A    between atoms: C13_21  and  C3_11 
REMARK    5  A    between atoms: C14_22  and  C15_23 
ROOT
HETATM    1  S1  UNK     1      29.703  -9.515  35.111  1.00  0.00    -0.075 SA
HETATM    2  C1  UNK     1      31.184  -7.618  36.012  1.00  0.00     0.006 A 
HETATM    3  C2  UNK     1      32.370  -6.835  36.252  1.00  0.00    -0.017 A 
HETATM    4  C3  UNK     1      29.868  -7.353  36.490  1.00  0.00     0.085 A 
HETATM    5  C4  UNK     1      31.237  -8.764  35.249  1.00  0.00    -0.007 A 
HETATM    6  C5  UNK     1      33.186  -7.087  37.354  1.00  0.00    -0.051 A 
HETATM    7  C6  UNK     1      28.993  -8.303  36.068  1.00  0.00     0.094 A 
HETATM    8  C7  UNK     1      32.690  -5.811  35.361  1.00  0.00     0.019 A 
HETATM    9  C8  UNK     1      33.832  -5.039  35.573  1.00  0.00    -0.061 A 
HETATM   10  C9  UNK     1      34.326  -6.313  37.564  1.00  0.00     0.008 A 
HETATM   11  C10 UNK     1      32.395  -9.391  34.571  1.00  0.00     0.057 C 
HETATM   12  C11 UNK     1      34.651  -5.290  36.674  1.00  0.00     0.007 A 
HETATM   13  C12 UNK     1      32.871  -8.175  38.330  1.00  0.00     0.049 C 
HETATM   14  C16 UNK     1      34.178  -3.944  34.621  1.00  0.00     0.048 C 
ENDROOT
BRANCH   7  15
HETATM   15  N1  UNK     1      27.621  -8.438  36.297  1.00  0.00    -0.316 N 
HETATM   16  C15 UNK     1      27.028  -9.230  37.271  1.00  0.00     0.262 C 
HETATM   17  O4  UNK     1      27.569  -9.952  38.106  1.00  0.00    -0.267 OA
HETATM   18  H7  UNK     1      27.034  -7.876  35.689  1.00  0.00     0.169 HD
BRANCH  16  19
HETATM   19  C14 UNK     1      25.564  -9.139  37.233  1.00  0.00     0.108 A 
HETATM   20  C18 UNK     1      24.931 -10.082  36.524  1.00  0.00     0.037 A 
HETATM   21  C17 UNK     1      23.480 -10.076  36.427  1.00  0.00     0.002 A 
HETATM   22  C19 UNK     1      22.766  -9.076  37.080  1.00  0.00     0.123 A 
HETATM   23  C22 UNK     1      22.778 -11.040  35.701  1.00  0.00     0.014 A 
HETATM   24  O1  UNK     1      23.438  -8.087  37.824  1.00  0.00    -0.271 OA
HETATM   25  C21 UNK     1      21.375  -9.014  37.027  1.00  0.00     0.102 A 
HETATM   26  C20 UNK     1      24.825  -8.067  37.937  1.00  0.00     0.304 A 
HETATM   27  O6  UNK     1      25.401  -7.202  38.587  1.00  0.00    -0.259 OA
HETATM   28  C23 UNK     1      20.682  -9.979  36.299  1.00  0.00     0.040 A 
HETATM   29  C24 UNK     1      21.382 -10.990  35.637  1.00  0.00     0.004 A 
BRANCH  25  30
HETATM   30  O5  UNK     1      20.690  -8.031  37.671  1.00  0.00    -0.353 OA
HETATM   31  C26 UNK     1      19.868  -8.423  38.769  1.00  0.00     0.210 C 
ENDBRANCH  25  30
ENDBRANCH  16  19
ENDBRANCH   7  15
BRANCH   4  32
HETATM   32  C13 UNK     1      29.483  -6.233  37.312  1.00  0.00     0.296 C 
HETATM   33  O3  UNK     1      28.851  -6.340  38.373  1.00  0.00    -0.259 OA
BRANCH  32  34
HETATM   34  O2  UNK     1      29.881  -5.011  36.814  1.00  0.00    -0.322 OA
HETATM   35  C25 UNK     1      30.261  -4.017  37.772  1.00  0.00     0.213 C 
ENDBRANCH  32  34
ENDBRANCH   4  32
TORSDOF 5
ENDMDL
MODEL 6
REMARK VINA RESULT:      -8.3      2.480      3.502
REMARK  5 active torsions:
REMARK  status: ('A' for Active; 'I' for Inactive)
REMARK    1  A    between atoms: C13_21  and  O2_3 
REMARK    2  A    between atoms: C21_29  and  O5_6 
REMARK       I    between atoms: C15_23  and  N1_8 
REMARK    3  A    between atoms: C6_14  and  N1_8 
REMARK    4  A    between atoms: C13_21  and  C3_11 
REMARK    5  A    between atoms: C14_22  and  C15_23 
ROOT
HETATM    1  S1  UNK     1      20.584  -5.828  14.147  1.00  0.00    -0.075 SA
HETATM    2  C1  UNK     1      20.020  -6.033  11.649  1.00  0.00     0.006 A 
HETATM    3  C2  UNK     1      19.880  -6.632  10.345  1.00  0.00    -0.017 A 
HETATM    4  C3  UNK     1      19.692  -4.697  12.019  1.00  0.00     0.085 A 
HETATM    5  C4  UNK     1      20.516  -6.758  12.710  1.00  0.00    -0.007 A 
HETATM    6  C5  UNK     1      20.918  -6.580   9.417  1.00  0.00    -0.051 A 
HETATM    7  C6  UNK     1      19.953  -4.476  13.335  1.00  0.00     0.094 A 
HETATM    8  C7  UNK     1      18.682  -7.267  10.022  1.00  0.00     0.019 A 
HETATM    9  C8  UNK     1      18.522  -7.853   8.767  1.00  0.00    -0.061 A 
HETATM   10  C9  UNK     1      20.758  -7.165   8.161  1.00  0.00     0.008 A 
HETATM   11  C10 UNK     1      20.971  -8.168  12.756  1.00  0.00     0.057 C 
HETATM   12  C11 UNK     1      19.561  -7.803   7.836  1.00  0.00     0.007 A 
HETATM   13  C12 UNK     1      22.216  -5.906   9.729  1.00  0.00     0.049 C 
HETATM   14  C16 UNK     1      17.242  -8.533   8.419  1.00  0.00     0.048 C 
ENDROOT
BRANCH   7  15
HETATM   15  N1  UNK     1      19.787  -3.325  14.111  1.00  0.00    -0.316 N 
HETATM   16  C15 UNK     1      18.648  -2.975  14.822  1.00  0.00     0.262 C 
HETATM   17  O4  UNK     1      17.584  -3.585  14.915  1.00  0.00    -0.267 OA
HETATM   18  H7  UNK     1      20.603  -2.721  14.150  1.00  0.00     0.169 HD
BRANCH  16  19
HETATM   19  C14 UNK     1      18.815  -1.699  15.528  1.00  0.00     0.108 A 
HETATM   20  C18 UNK     1      18.661  -1.734  16.858  1.00  0.00     0.037 A 
HETATM   21  C17 UNK     1      18.806  -0.520  17.645  1.00  0.00     0.002 A 
HETATM   22  C19 UNK     1      19.106   0.672  16.994  1.00  0.00     0.123 A 
HETATM   23  C22 UNK     1      18.656  -0.510  19.033  1.00  0.00     0.014 A 
HETATM   24  O1  UNK     1      19.266   0.703  15.595  1.00  0.00    -0.271 OA
HETATM   25  C21 UNK     1      19.259   1.870  17.689  1.00  0.00     0.102 A 
HETATM   26  C20 UNK     1      19.135  -0.442  14.815  1.00  0.00     0.304 A 
HETATM   27  O6  UNK     1      19.277  -0.406  13.598  1.00  0.00    -0.259 OA
HETATM   28  C23 UNK     1      19.106   1.871  19.075  1.00  0.00     0.040 A 
HETATM   29  C24 UNK     1      18.805   0.683  19.745  1.00  0.00     0.004 A 
BRANCH  25  30
HETATM   30  O5  UNK     1      19.552   3.028  17.040  1.00  0.00    -0.353 OA
HETATM   31  C26 UNK     1      20.192   4.054  17.796  1.00  0.00     0.210 C 
ENDBRANCH  25  30
ENDBRANCH  16  19
ENDBRANCH   7  15
BRANCH   4  32
HETATM   32  C13 UNK     1      19.153  -3.689  11.140  1.00  0.00     0.296 C 
HETATM   33  O3  UNK     1      18.150  -3.854  10.432  1.00  0.00    -0.259 OA
BRANCH  32  34
HETATM   34  O2  UNK     1      19.858  -2.504  11.151  1.00  0.00    -0.322 OA
HETATM   35  C25 UNK     1      21.061  -2.462  10.376  1.00  0.00     0.213 C 
ENDBRANCH  32  34
ENDBRANCH   4  32
TORSDOF 5
ENDMDL
MODEL 7
REMARK VINA RESULT:      -8.3     23.102     24.538
REMARK  5 active torsions:
REMARK  status: ('A' for Active; 'I' for Inactive)
REMARK    1  A    between atoms: C13_21  and  O2_3 
REMARK    2  A    between atoms: C21_29  and  O5_6 
REMARK       I    between atoms: C15_23  and  N1_8 
REMARK    3  A    between atoms: C6_14  and  N1_8 
REMARK    4  A    between atoms: C13_21  and  C3_11 
REMARK    5  A    between atoms: C14_22  and  C15_23 
ROOT
HETATM    1  S1  UNK     1      28.749  -9.280  35.165  1.00  0.00    -0.075 SA
HETATM    2  C1  UNK     1      30.388  -7.634  36.264  1.00  0.00     0.006 A 
HETATM    3  C2  UNK     1      31.630  -6.963  36.553  1.00  0.00    -0.017 A 
HETATM    4  C3  UNK     1      29.117  -7.382  36.858  1.00  0.00     0.085 A 
HETATM    5  C4  UNK     1      30.330  -8.643  35.327  1.00  0.00    -0.007 A 
HETATM    6  C5  UNK     1      32.485  -7.433  37.548  1.00  0.00    -0.051 A 
HETATM    7  C6  UNK     1      28.165  -8.205  36.344  1.00  0.00     0.094 A 
HETATM    8  C7  UNK     1      31.966  -5.827  35.819  1.00  0.00     0.019 A 
HETATM    9  C8  UNK     1      33.163  -5.159  36.080  1.00  0.00    -0.061 A 
HETATM   10  C9  UNK     1      33.681  -6.765  37.809  1.00  0.00     0.008 A 
HETATM   11  C10 UNK     1      31.411  -9.210  34.487  1.00  0.00     0.057 C 
HETATM   12  C11 UNK     1      34.020  -5.629  37.075  1.00  0.00     0.007 A 
HETATM   13  C12 UNK     1      32.157  -8.648  38.355  1.00  0.00     0.049 C 
HETATM   14  C16 UNK     1      33.525  -3.944  35.296  1.00  0.00     0.048 C 
ENDROOT
BRANCH   7  15
HETATM   15  N1  UNK     1      26.801  -8.304  36.633  1.00  0.00    -0.316 N 
HETATM   16  C15 UNK     1      26.242  -8.937  37.734  1.00  0.00     0.262 C 
HETATM   17  O4  UNK     1      26.811  -9.522  38.654  1.00  0.00    -0.267 OA
HETATM   18  H7  UNK     1      26.193  -7.842  35.964  1.00  0.00     0.169 HD
BRANCH  16  19
HETATM   19  C14 UNK     1      24.777  -8.853  37.727  1.00  0.00     0.108 A 
HETATM   20  C18 UNK     1      24.230  -7.969  38.571  1.00  0.00     0.037 A 
HETATM   21  C17 UNK     1      22.786  -7.814  38.636  1.00  0.00     0.002 A 
HETATM   22  C19 UNK     1      21.986  -8.598  37.811  1.00  0.00     0.123 A 
HETATM   23  C22 UNK     1      22.173  -6.903  39.499  1.00  0.00     0.014 A 
HETATM   24  O1  UNK     1      22.567  -9.527  36.926  1.00  0.00    -0.271 OA
HETATM   25  C21 UNK     1      20.597  -8.498  37.825  1.00  0.00     0.102 A 
HETATM   26  C20 UNK     1      23.945  -9.698  36.840  1.00  0.00     0.304 A 
HETATM   27  O6  UNK     1      24.442 -10.508  36.066  1.00  0.00    -0.259 OA
HETATM   28  C23 UNK     1      19.993  -7.587  38.690  1.00  0.00     0.040 A 
HETATM   29  C24 UNK     1      20.780  -6.791  39.526  1.00  0.00     0.004 A 
BRANCH  25  30
HETATM   30  O5  UNK     1      19.827  -9.272  37.013  1.00  0.00    -0.353 OA
HETATM   31  C26 UNK     1      19.358 -10.509  37.546  1.00  0.00     0.210 C 
ENDBRANCH  25  30
ENDBRANCH  16  19
ENDBRANCH   7  15
BRANCH   4  32
HETATM   32  C13 UNK     1      28.845  -6.393  37.871  1.00  0.00     0.296 C 
HETATM   33  O3  UNK     1      28.491  -6.666  39.027  1.00  0.00    -0.259 OA
BRANCH  32  34
HETATM   34  O2  UNK     1      29.013  -5.094  37.442  1.00  0.00    -0.322 OA
HETATM   35  C25 UNK     1      29.719  -4.210  38.319  1.00  0.00     0.213 C 
ENDBRANCH  32  34
ENDBRANCH   4  32
TORSDOF 5
ENDMDL
MODEL 8
REMARK VINA RESULT:      -8.2     22.324     25.959
REMARK  5 active torsions:
REMARK  status: ('A' for Active; 'I' for Inactive)
REMARK    1  A    between atoms: C13_21  and  O2_3 
REMARK    2  A    between atoms: C21_29  and  O5_6 
REMARK       I    between atoms: C15_23  and  N1_8 
REMARK    3  A    between atoms: C6_14  and  N1_8 
REMARK    4  A    between atoms: C13_21  and  C3_11 
REMARK    5  A    between atoms: C14_22  and  C15_23 
ROOT
HETATM    1  S1  UNK     1      32.253  -7.197  32.626  1.00  0.00    -0.075 SA
HETATM    2  C1  UNK     1      31.792  -6.550  35.070  1.00  0.00     0.006 A 
HETATM    3  C2  UNK     1      31.102  -5.999  36.209  1.00  0.00    -0.017 A 
HETATM    4  C3  UNK     1      33.053  -7.214  35.068  1.00  0.00     0.085 A 
HETATM    5  C4  UNK     1      31.246  -6.472  33.807  1.00  0.00    -0.007 A 
HETATM    6  C5  UNK     1      31.310  -4.678  36.603  1.00  0.00    -0.051 A 
HETATM    7  C6  UNK     1      33.399  -7.604  33.813  1.00  0.00     0.094 A 
HETATM    8  C7  UNK     1      30.219  -6.812  36.917  1.00  0.00     0.019 A 
HETATM    9  C8  UNK     1      29.540  -6.302  38.024  1.00  0.00    -0.061 A 
HETATM   10  C9  UNK     1      30.631  -4.169  37.710  1.00  0.00     0.008 A 
HETATM   11  C10 UNK     1      29.964  -5.870  33.371  1.00  0.00     0.057 C 
HETATM   12  C11 UNK     1      29.746  -4.980  38.420  1.00  0.00     0.007 A 
HETATM   13  C12 UNK     1      32.250  -3.779  35.868  1.00  0.00     0.049 C 
HETATM   14  C16 UNK     1      28.594  -7.169  38.783  1.00  0.00     0.048 C 
ENDROOT
BRANCH   7  15
HETATM   15  N1  UNK     1      34.535  -8.276  33.353  1.00  0.00    -0.316 N 
HETATM   16  C15 UNK     1      34.672  -9.650  33.214  1.00  0.00     0.262 C 
HETATM   17  O4  UNK     1      33.850 -10.532  33.456  1.00  0.00    -0.267 OA
HETATM   18  H7  UNK     1      35.306  -7.670  33.089  1.00  0.00     0.169 HD
BRANCH  16  19
HETATM   19  C14 UNK     1      35.999 -10.018  32.706  1.00  0.00     0.108 A 
HETATM   20  C18 UNK     1      36.707 -10.867  33.462  1.00  0.00     0.037 A 
HETATM   21  C17 UNK     1      38.034 -11.290  33.042  1.00  0.00     0.002 A 
HETATM   22  C19 UNK     1      38.551 -10.799  31.847  1.00  0.00     0.123 A 
HETATM   23  C22 UNK     1      38.807 -12.175  33.797  1.00  0.00     0.014 A 
HETATM   24  O1  UNK     1      37.801  -9.906  31.057  1.00  0.00    -0.271 OA
HETATM   25  C21 UNK     1      39.815 -11.165  31.390  1.00  0.00     0.102 A 
HETATM   26  C20 UNK     1      36.529  -9.484  31.431  1.00  0.00     0.304 A 
HETATM   27  O6  UNK     1      35.884  -8.707  30.736  1.00  0.00    -0.259 OA
HETATM   28  C23 UNK     1      40.580 -12.048  32.149  1.00  0.00     0.040 A 
HETATM   29  C24 UNK     1      40.077 -12.551  33.351  1.00  0.00     0.004 A 
BRANCH  25  30
HETATM   30  O5  UNK     1      40.308 -10.677  30.220  1.00  0.00    -0.353 OA
HETATM   31  C26 UNK     1      40.120 -11.474  29.052  1.00  0.00     0.210 C 
ENDBRANCH  25  30
ENDBRANCH  16  19
ENDBRANCH   7  15
BRANCH   4  32
HETATM   32  C13 UNK     1      33.877  -7.455  36.226  1.00  0.00     0.296 C 
HETATM   33  O3  UNK     1      33.472  -8.007  37.259  1.00  0.00    -0.259 OA
BRANCH  32  34
HETATM   34  O2  UNK     1      35.175  -7.014  36.089  1.00  0.00    -0.322 OA
HETATM   35  C25 UNK     1      35.415  -5.625  36.342  1.00  0.00     0.213 C 
ENDBRANCH  32  34
ENDBRANCH   4  32
TORSDOF 5
ENDMDL
MODEL 9
REMARK VINA RESULT:      -8.2     22.343     25.915
REMARK  5 active torsions:
REMARK  status: ('A' for Active; 'I' for Inactive)
REMARK    1  A    between atoms: C13_21  and  O2_3 
REMARK    2  A    between atoms: C21_29  and  O5_6 
REMARK       I    between atoms: C15_23  and  N1_8 
REMARK    3  A    between atoms: C6_14  and  N1_8 
REMARK    4  A    between atoms: C13_21  and  C3_11 
REMARK    5  A    between atoms: C14_22  and  C15_23 
ROOT
HETATM    1  S1  UNK     1      31.052  -7.521  33.638  1.00  0.00    -0.075 SA
HETATM    2  C1  UNK     1      30.458  -7.289  36.126  1.00  0.00     0.006 A 
HETATM    3  C2  UNK     1      29.676  -7.001  37.302  1.00  0.00    -0.017 A 
HETATM    4  C3  UNK     1      31.802  -7.762  36.083  1.00  0.00     0.085 A 
HETATM    5  C4  UNK     1      29.930  -7.114  34.866  1.00  0.00    -0.007 A 
HETATM    6  C5  UNK     1      29.684  -5.732  37.877  1.00  0.00    -0.051 A 
HETATM    7  C6  UNK     1      32.223  -7.923  34.801  1.00  0.00     0.094 A 
HETATM    8  C7  UNK     1      28.907  -8.020  37.862  1.00  0.00     0.019 A 
HETATM    9  C8  UNK     1      28.141  -7.768  39.000  1.00  0.00    -0.061 A 
HETATM   10  C9  UNK     1      28.919  -5.480  39.016  1.00  0.00     0.008 A 
HETATM   11  C10 UNK     1      28.583  -6.644  34.467  1.00  0.00     0.057 C 
HETATM   12  C11 UNK     1      28.147  -6.497  39.577  1.00  0.00     0.007 A 
HETATM   13  C12 UNK     1      30.499  -4.617  37.305  1.00  0.00     0.049 C 
HETATM   14  C16 UNK     1      27.316  -8.855  39.601  1.00  0.00     0.048 C 
ENDROOT
BRANCH   7  15
HETATM   15  N1  UNK     1      33.453  -8.360  34.299  1.00  0.00    -0.316 N 
HETATM   16  C15 UNK     1      34.414  -7.568  33.686  1.00  0.00     0.262 C 
HETATM   17  O4  UNK     1      34.384  -6.358  33.466  1.00  0.00    -0.267 OA
HETATM   18  H7  UNK     1      33.634  -9.350  34.429  1.00  0.00     0.169 HD
BRANCH  16  19
HETATM   19  C14 UNK     1      35.586  -8.350  33.277  1.00  0.00     0.108 A 
HETATM   20  C18 UNK     1      35.395  -9.226  32.283  1.00  0.00     0.037 A 
HETATM   21  C17 UNK     1      36.498 -10.047  31.807  1.00  0.00     0.002 A 
HETATM   22  C19 UNK     1      37.747  -9.906  32.402  1.00  0.00     0.123 A 
HETATM   23  C22 UNK     1      36.345 -10.972  30.772  1.00  0.00     0.014 A 
HETATM   24  O1  UNK     1      37.942  -8.984  33.448  1.00  0.00    -0.271 OA
HETATM   25  C21 UNK     1      38.844 -10.663  31.993  1.00  0.00     0.102 A 
HETATM   26  C20 UNK     1      36.907  -8.183  33.924  1.00  0.00     0.304 A 
HETATM   27  O6  UNK     1      37.086  -7.382  34.834  1.00  0.00    -0.259 OA
HETATM   28  C23 UNK     1      38.683 -11.584  30.960  1.00  0.00     0.040 A 
HETATM   29  C24 UNK     1      37.435 -11.738  30.351  1.00  0.00     0.004 A 
BRANCH  25  30
HETATM   30  O5  UNK     1      40.060 -10.515  32.584  1.00  0.00    -0.353 OA
HETATM   31  C26 UNK     1      41.194 -11.004  31.870  1.00  0.00     0.210 C 
ENDBRANCH  25  30
ENDBRANCH  16  19
ENDBRANCH   7  15
BRANCH   4  32
HETATM   32  C13 UNK     1      32.631  -8.043  37.229  1.00  0.00     0.296 C 
HETATM   33  O3  UNK     1      32.239  -8.656  38.233  1.00  0.00    -0.259 OA
BRANCH  32  34
HETATM   34  O2  UNK     1      33.919  -7.565  37.117  1.00  0.00    -0.322 OA
HETATM   35  C25 UNK     1      34.151  -6.224  37.562  1.00  0.00     0.213 C 
ENDBRANCH  32  34
ENDBRANCH   4  32
TORSDOF 5
ENDMDL
MODEL 10
REMARK VINA RESULT:      -8.1     21.579     25.092
REMARK  5 active torsions:
REMARK  status: ('A' for Active; 'I' for Inactive)
REMARK    1  A    between atoms: C13_21  and  O2_3 
REMARK    2  A    between atoms: C21_29  and  O5_6 
REMARK       I    between atoms: C15_23  and  N1_8 
REMARK    3  A    between atoms: C6_14  and  N1_8 
REMARK    4  A    between atoms: C13_21  and  C3_11 
REMARK    5  A    between atoms: C14_22  and  C15_23 
ROOT
HETATM    1  S1  UNK     1      30.399  -7.473  33.037  1.00  0.00    -0.075 SA
HETATM    2  C1  UNK     1      30.130  -7.527  35.591  1.00  0.00     0.006 A 
HETATM    3  C2  UNK     1      29.517  -7.353  36.884  1.00  0.00    -0.017 A 
HETATM    4  C3  UNK     1      31.425  -8.056  35.319  1.00  0.00     0.085 A 
HETATM    5  C4  UNK     1      29.463  -7.170  34.439  1.00  0.00    -0.007 A 
HETATM    6  C5  UNK     1      29.676  -6.168  37.600  1.00  0.00    -0.051 A 
HETATM    7  C6  UNK     1      31.675  -8.074  33.983  1.00  0.00     0.094 A 
HETATM    8  C7  UNK     1      28.758  -8.397  37.413  1.00  0.00     0.019 A 
HETATM    9  C8  UNK     1      28.155  -8.253  38.663  1.00  0.00    -0.061 A 
HETATM   10  C9  UNK     1      29.073  -6.026  38.849  1.00  0.00     0.008 A 
HETATM   11  C10 UNK     1      28.110  -6.590  34.276  1.00  0.00     0.057 C 
HETATM   12  C11 UNK     1      28.313  -7.067  39.381  1.00  0.00     0.007 A 
HETATM   13  C12 UNK     1      30.483  -5.030  37.064  1.00  0.00     0.049 C 
HETATM   14  C16 UNK     1      27.343  -9.366  39.231  1.00  0.00     0.048 C 
ENDROOT
BRANCH   7  15
HETATM   15  N1  UNK     1      32.804  -8.502  33.278  1.00  0.00    -0.316 N 
HETATM   16  C15 UNK     1      33.909  -7.728  32.955  1.00  0.00     0.262 C 
HETATM   17  O4  UNK     1      34.118  -6.544  33.214  1.00  0.00    -0.267 OA
HETATM   18  H7  UNK     1      32.787  -9.481  33.010  1.00  0.00     0.169 HD
BRANCH  16  19
HETATM   19  C14 UNK     1      34.914  -8.493  32.208  1.00  0.00     0.108 A 
HETATM   20  C18 UNK     1      36.003  -8.866  32.891  1.00  0.00     0.037 A 
HETATM   21  C17 UNK     1      37.054  -9.628  32.237  1.00  0.00     0.002 A 
HETATM   22  C19 UNK     1      36.908  -9.961  30.894  1.00  0.00     0.123 A 
HETATM   23  C22 UNK     1      38.206 -10.039  32.911  1.00  0.00     0.014 A 
HETATM   24  O1  UNK     1      35.761  -9.565  30.180  1.00  0.00    -0.271 OA
HETATM   25  C21 UNK     1      37.879 -10.689  30.209  1.00  0.00     0.102 A 
HETATM   26  C20 UNK     1      34.737  -8.837  30.779  1.00  0.00     0.304 A 
HETATM   27  O6  UNK     1      33.741  -8.498  30.149  1.00  0.00    -0.259 OA
HETATM   28  C23 UNK     1      39.025 -11.094  30.888  1.00  0.00     0.040 A 
HETATM   29  C24 UNK     1      39.189 -10.770  32.237  1.00  0.00     0.004 A 
BRANCH  25  30
HETATM   30  O5  UNK     1      37.723 -11.007  28.895  1.00  0.00    -0.353 OA
HETATM   31  C26 UNK     1      38.491 -12.099  28.395  1.00  0.00     0.210 C 
ENDBRANCH  25  30
ENDBRANCH  16  19
ENDBRANCH   7  15
BRANCH   4  32
HETATM   32  C13 UNK     1      32.368  -8.518  36.307  1.00  0.00     0.296 C 
HETATM   33  O3  UNK     1      32.155  -9.465  37.076  1.00  0.00    -0.259 OA
BRANCH  32  34
HETATM   34  O2  UNK     1      33.549  -7.807  36.326  1.00  0.00    -0.322 OA
HETATM   35  C25 UNK     1      33.861  -7.107  37.536  1.00  0.00     0.213 C 
ENDBRANCH  32  34
ENDBRANCH   4  32
TORSDOF 5
ENDMDL
