MODEL 1
REMARK VINA RESULT:      -8.7      0.000      0.000
REMARK  4 active torsions:
REMARK  status: ('A' for Active; 'I' for Inactive)
REMARK       I    between atoms: C5_8  and  N1_3 
REMARK    1  A    between atoms: C8_11  and  N1_3 
REMARK    2  A    between atoms: C1_4  and  C2_5 
REMARK    3  A    between atoms: C1_4  and  C5_8 
REMARK    4  A    between atoms: C3_6  and  C4_7 
ROOT
HETATM    1  C1  UNK     1      19.108  -2.143  15.321  1.00  0.00     0.043 C 
HETATM    2  C3  UNK     1      19.149  -1.413  14.175  1.00  0.00     0.029 C 
ENDROOT
BRANCH   1   3
HETATM    3  C2  UNK     1      19.548  -3.552  15.371  1.00  0.00    -0.021 A 
HETATM    4  C6  UNK     1      18.600  -4.558  15.332  1.00  0.00     0.012 A 
HETATM    5  C11 UNK     1      19.016  -5.889  15.380  1.00  0.00     0.001 A 
HETATM    6  C15 UNK     1      20.375  -6.191  15.464  1.00  0.00     0.000 A 
HETATM    7  C12 UNK     1      21.317  -5.164  15.502  1.00  0.00     0.001 A 
HETATM    8  C7  UNK     1      20.901  -3.833  15.455  1.00  0.00     0.012 A 
ENDBRANCH   1   3
BRANCH   1   9
HETATM    9  C5  UNK     1      18.550  -1.445  16.541  1.00  0.00     0.257 C 
HETATM   10  O1  UNK     1      17.407  -1.687  16.920  1.00  0.00    -0.267 OA
HETATM   11  N1  UNK     1      19.455  -0.558  17.109  1.00  0.00    -0.323 N 
HETATM   12  H4  UNK     1      20.372  -0.436  16.691  1.00  0.00     0.169 HD
BRANCH  11  13
HETATM   13  C8  UNK     1      19.231   0.231  18.243  1.00  0.00     0.035 A 
HETATM   14  C13 UNK     1      18.985   1.595  18.101  1.00  0.00     0.032 A 
HETATM   15  C19 UNK     1      18.763   2.382  19.231  1.00  0.00     0.044 A 
HETATM   16  C21 UNK     1      18.787   1.803  20.499  1.00  0.00     0.116 A 
HETATM   17  C20 UNK     1      19.033   0.437  20.638  1.00  0.00     0.044 A 
HETATM   18  F1  UNK     1      18.574   2.559  21.585  1.00  0.00    -0.206 F 
HETATM   19  C14 UNK     1      19.256  -0.350  19.509  1.00  0.00     0.032 A 
ENDBRANCH  11  13
ENDBRANCH   1   9
BRANCH   2  20
HETATM   20  C4  UNK     1      19.596  -1.874  12.870  1.00  0.00    -0.035 A 
HETATM   21  C10 UNK     1      20.703  -1.280  12.263  1.00  0.00     0.011 A 
HETATM   22  C17 UNK     1      21.132  -1.721  11.011  1.00  0.00     0.001 A 
HETATM   23  C18 UNK     1      20.454  -2.756  10.366  1.00  0.00     0.000 A 
HETATM   24  C16 UNK     1      19.347  -3.349  10.973  1.00  0.00     0.001 A 
HETATM   25  C9  UNK     1      18.918  -2.908  12.225  1.00  0.00     0.011 A 
ENDBRANCH   2  20
TORSDOF 4
ENDMDL
MODEL 2
REMARK VINA RESULT:      -8.6     16.908     20.189
REMARK  4 active torsions:
REMARK  status: ('A' for Active; 'I' for Inactive)
REMARK       I    between atoms: C5_8  and  N1_3 
REMARK    1  A    between atoms: C8_11  and  N1_3 
REMARK    2  A    between atoms: C1_4  and  C2_5 
REMARK    3  A    between atoms: C1_4  and  C5_8 
REMARK    4  A    between atoms: C3_6  and  C4_7 
ROOT
HETATM    1  C1  UNK     1      18.452   4.960  33.474  1.00  0.00     0.043 C 
HETATM    2  C3  UNK     1      18.074   5.893  34.388  1.00  0.00     0.029 C 
ENDROOT
BRANCH   1   3
HETATM    3  C2  UNK     1      19.072   5.329  32.185  1.00  0.00    -0.021 A 
HETATM    4  C6  UNK     1      18.269   5.478  31.069  1.00  0.00     0.012 A 
HETATM    5  C11 UNK     1      18.854   5.827  29.851  1.00  0.00     0.001 A 
HETATM    6  C15 UNK     1      20.233   6.023  29.771  1.00  0.00     0.000 A 
HETATM    7  C12 UNK     1      21.026   5.870  30.908  1.00  0.00     0.001 A 
HETATM    8  C7  UNK     1      20.442   5.521  32.125  1.00  0.00     0.012 A 
ENDBRANCH   1   3
BRANCH   1   9
HETATM    9  C5  UNK     1      18.171   3.518  33.832  1.00  0.00     0.257 C 
HETATM   10  O1  UNK     1      17.788   2.733  32.968  1.00  0.00    -0.267 OA
HETATM   11  N1  UNK     1      18.388   3.249  35.177  1.00  0.00    -0.323 N 
HETATM   12  H4  UNK     1      18.694   3.992  35.796  1.00  0.00     0.169 HD
BRANCH  11  13
HETATM   13  C8  UNK     1      18.216   2.011  35.806  1.00  0.00     0.035 A 
HETATM   14  C13 UNK     1      18.957   0.910  35.384  1.00  0.00     0.032 A 
HETATM   15  C19 UNK     1      18.784  -0.325  36.010  1.00  0.00     0.044 A 
HETATM   16  C21 UNK     1      17.872  -0.454  37.056  1.00  0.00     0.116 A 
HETATM   17  C20 UNK     1      17.131   0.650  37.476  1.00  0.00     0.044 A 
HETATM   18  F1  UNK     1      17.705  -1.640  37.657  1.00  0.00    -0.206 F 
HETATM   19  C14 UNK     1      17.303   1.884  36.851  1.00  0.00     0.032 A 
ENDBRANCH  11  13
ENDBRANCH   1   9
BRANCH   2  20
HETATM   20  C4  UNK     1      18.195   7.336  34.255  1.00  0.00    -0.035 A 
HETATM   21  C10 UNK     1      19.402   7.965  34.556  1.00  0.00     0.011 A 
HETATM   22  C17 UNK     1      19.518   9.350  34.429  1.00  0.00     0.001 A 
HETATM   23  C18 UNK     1      18.426  10.104  34.000  1.00  0.00     0.000 A 
HETATM   24  C16 UNK     1      17.219   9.475  33.699  1.00  0.00     0.001 A 
HETATM   25  C9  UNK     1      17.103   8.090  33.826  1.00  0.00     0.011 A 
ENDBRANCH   2  20
TORSDOF 4
ENDMDL
MODEL 3
REMARK VINA RESULT:      -8.4     18.662     21.523
REMARK  4 active torsions:
REMARK  status: ('A' for Active; 'I' for Inactive)
REMARK       I    between atoms: C5_8  and  N1_3 
REMARK    1  A    between atoms: C8_11  and  N1_3 
REMARK    2  A    between atoms: C1_4  and  C2_5 
REMARK    3  A    between atoms: C1_4  and  C5_8 
REMARK    4  A    between atoms: C3_6  and  C4_7 
ROOT
HETATM    1  C1  UNK     1      20.233  -4.491  36.811  1.00  0.00     0.043 C 
HETATM    2  C3  UNK     1      21.114  -4.740  37.815  1.00  0.00     0.029 C 
ENDROOT
BRANCH   1   3
HETATM    3  C2  UNK     1      19.318  -5.529  36.293  1.00  0.00    -0.021 A 
HETATM    4  C6  UNK     1      19.778  -6.421  35.341  1.00  0.00     0.012 A 
HETATM    5  C11 UNK     1      18.914  -7.401  34.852  1.00  0.00     0.001 A 
HETATM    6  C15 UNK     1      17.603  -7.474  35.326  1.00  0.00     0.000 A 
HETATM    7  C12 UNK     1      17.158  -6.567  36.287  1.00  0.00     0.001 A 
HETATM    8  C7  UNK     1      18.021  -5.587  36.775  1.00  0.00     0.012 A 
ENDBRANCH   1   3
BRANCH   1   9
HETATM    9  C5  UNK     1      20.262  -3.098  36.222  1.00  0.00     0.257 C 
HETATM   10  O1  UNK     1      21.333  -2.581  35.917  1.00  0.00    -0.267 OA
HETATM   11  N1  UNK     1      18.994  -2.543  36.101  1.00  0.00    -0.323 N 
HETATM   12  H4  UNK     1      18.182  -3.071  36.404  1.00  0.00     0.169 HD
BRANCH  11  13
HETATM   13  C8  UNK     1      18.699  -1.274  35.592  1.00  0.00     0.035 A 
HETATM   14  C13 UNK     1      18.644  -1.074  34.215  1.00  0.00     0.032 A 
HETATM   15  C19 UNK     1      18.350   0.192  33.708  1.00  0.00     0.044 A 
HETATM   16  C21 UNK     1      18.111   1.254  34.579  1.00  0.00     0.116 A 
HETATM   17  C20 UNK     1      18.166   1.050  35.958  1.00  0.00     0.044 A 
HETATM   18  F1  UNK     1      17.829   2.469  34.093  1.00  0.00    -0.206 F 
HETATM   19  C14 UNK     1      18.460  -0.215  36.466  1.00  0.00     0.032 A 
ENDBRANCH  11  13
ENDBRANCH   1   9
BRANCH   2  20
HETATM   20  C4  UNK     1      21.308  -6.006  38.505  1.00  0.00    -0.035 A 
HETATM   21  C10 UNK     1      22.589  -6.542  38.633  1.00  0.00     0.011 A 
HETATM   22  C17 UNK     1      22.774  -7.756  39.294  1.00  0.00     0.001 A 
HETATM   23  C18 UNK     1      21.678  -8.434  39.827  1.00  0.00     0.000 A 
HETATM   24  C16 UNK     1      20.397  -7.898  39.699  1.00  0.00     0.001 A 
HETATM   25  C9  UNK     1      20.211  -6.684  39.038  1.00  0.00     0.011 A 
ENDBRANCH   2  20
TORSDOF 4
ENDMDL
MODEL 4
REMARK VINA RESULT:      -8.0      1.125      3.368
REMARK  4 active torsions:
REMARK  status: ('A' for Active; 'I' for Inactive)
REMARK       I    between atoms: C5_8  and  N1_3 
REMARK    1  A    between atoms: C8_11  and  N1_3 
REMARK    2  A    between atoms: C1_4  and  C2_5 
REMARK    3  A    between atoms: C1_4  and  C5_8 
REMARK    4  A    between atoms: C3_6  and  C4_7 
ROOT
HETATM    1  C1  UNK     1      18.793  -2.748  15.415  1.00  0.00     0.043 C 
HETATM    2  C3  UNK     1      18.713  -4.081  15.665  1.00  0.00     0.029 C 
ENDROOT
BRANCH   1   3
HETATM    3  C2  UNK     1      19.341  -2.217  14.151  1.00  0.00    -0.021 A 
HETATM    4  C6  UNK     1      20.704  -2.287  13.923  1.00  0.00     0.012 A 
HETATM    5  C11 UNK     1      21.222  -1.786  12.729  1.00  0.00     0.001 A 
HETATM    6  C15 UNK     1      20.367  -1.224  11.780  1.00  0.00     0.000 A 
HETATM    7  C12 UNK     1      18.996  -1.163  12.026  1.00  0.00     0.001 A 
HETATM    8  C7  UNK     1      18.479  -1.663  13.221  1.00  0.00     0.012 A 
ENDBRANCH   1   3
BRANCH   1   9
HETATM    9  C5  UNK     1      18.323  -1.828  16.520  1.00  0.00     0.257 C 
HETATM   10  O1  UNK     1      17.135  -1.794  16.829  1.00  0.00    -0.267 OA
HETATM   11  N1  UNK     1      19.358  -1.087  17.075  1.00  0.00    -0.323 N 
HETATM   12  H4  UNK     1      20.303  -1.197  16.721  1.00  0.00     0.169 HD
BRANCH  11  13
HETATM   13  C8  UNK     1      19.238  -0.155  18.112  1.00  0.00     0.035 A 
HETATM   14  C13 UNK     1      18.990   1.183  17.816  1.00  0.00     0.032 A 
HETATM   15  C19 UNK     1      18.871   2.113  18.849  1.00  0.00     0.044 A 
HETATM   16  C21 UNK     1      18.999   1.702  20.175  1.00  0.00     0.116 A 
HETATM   17  C20 UNK     1      19.246   0.360  20.468  1.00  0.00     0.044 A 
HETATM   18  F1  UNK     1      18.885   2.594  21.167  1.00  0.00    -0.206 F 
HETATM   19  C14 UNK     1      19.366  -0.569  19.436  1.00  0.00     0.032 A 
ENDBRANCH  11  13
ENDBRANCH   1   9
BRANCH   2  20
HETATM   20  C4  UNK     1      19.143  -5.156  14.784  1.00  0.00    -0.035 A 
HETATM   21  C10 UNK     1      20.400  -5.736  14.954  1.00  0.00     0.011 A 
HETATM   22  C17 UNK     1      20.813  -6.766  14.109  1.00  0.00     0.001 A 
HETATM   23  C18 UNK     1      19.968  -7.216  13.094  1.00  0.00     0.000 A 
HETATM   24  C16 UNK     1      18.711  -6.636  12.924  1.00  0.00     0.001 A 
HETATM   25  C9  UNK     1      18.298  -5.605  13.769  1.00  0.00     0.011 A 
ENDBRANCH   2  20
TORSDOF 4
ENDMDL
MODEL 5
REMARK VINA RESULT:      -7.8     16.518     20.859
REMARK  4 active torsions:
REMARK  status: ('A' for Active; 'I' for Inactive)
REMARK       I    between atoms: C5_8  and  N1_3 
REMARK    1  A    between atoms: C8_11  and  N1_3 
REMARK    2  A    between atoms: C1_4  and  C2_5 
REMARK    3  A    between atoms: C1_4  and  C5_8 
REMARK    4  A    between atoms: C3_6  and  C4_7 
ROOT
HETATM    1  C1  UNK     1      20.206  -4.311  36.474  1.00  0.00     0.043 C 
HETATM    2  C3  UNK     1      21.136  -4.363  37.464  1.00  0.00     0.029 C 
ENDROOT
BRANCH   1   3
HETATM    3  C2  UNK     1      19.356  -5.469  36.133  1.00  0.00    -0.021 A 
HETATM    4  C6  UNK     1      18.063  -5.525  36.621  1.00  0.00     0.012 A 
HETATM    5  C11 UNK     1      17.259  -6.619  36.299  1.00  0.00     0.001 A 
HETATM    6  C15 UNK     1      17.762  -7.639  35.491  1.00  0.00     0.000 A 
HETATM    7  C12 UNK     1      19.068  -7.566  35.007  1.00  0.00     0.001 A 
HETATM    8  C7  UNK     1      19.871  -6.472  35.330  1.00  0.00     0.012 A 
ENDBRANCH   1   3
BRANCH   1   9
HETATM    9  C5  UNK     1      20.110  -3.008  35.711  1.00  0.00     0.257 C 
HETATM   10  O1  UNK     1      20.132  -1.939  36.313  1.00  0.00    -0.267 OA
HETATM   11  N1  UNK     1      19.995  -3.200  34.340  1.00  0.00    -0.323 N 
HETATM   12  H4  UNK     1      19.975  -4.142  33.963  1.00  0.00     0.169 HD
BRANCH  11  13
HETATM   13  C8  UNK     1      19.889  -2.192  33.375  1.00  0.00     0.035 A 
HETATM   14  C13 UNK     1      18.914  -1.206  33.506  1.00  0.00     0.032 A 
HETATM   15  C19 UNK     1      18.807  -0.202  32.544  1.00  0.00     0.044 A 
HETATM   16  C21 UNK     1      19.677  -0.186  31.455  1.00  0.00     0.116 A 
HETATM   17  C20 UNK     1      20.653  -1.174  31.326  1.00  0.00     0.044 A 
HETATM   18  F1  UNK     1      19.575   0.779  30.531  1.00  0.00    -0.206 F 
HETATM   19  C14 UNK     1      20.760  -2.178  32.287  1.00  0.00     0.032 A 
ENDBRANCH  11  13
ENDBRANCH   1   9
BRANCH   2  20
HETATM   20  C4  UNK     1      21.446  -5.511  38.302  1.00  0.00    -0.035 A 
HETATM   21  C10 UNK     1      22.775  -5.865  38.535  1.00  0.00     0.011 A 
HETATM   22  C17 UNK     1      23.073  -6.966  39.338  1.00  0.00     0.001 A 
HETATM   23  C18 UNK     1      22.042  -7.713  39.908  1.00  0.00     0.000 A 
HETATM   24  C16 UNK     1      20.713  -7.359  39.674  1.00  0.00     0.001 A 
HETATM   25  C9  UNK     1      20.415  -6.258  38.871  1.00  0.00     0.011 A 
ENDBRANCH   2  20
TORSDOF 4
ENDMDL
MODEL 6
REMARK VINA RESULT:      -7.6     22.156     24.520
REMARK  4 active torsions:
REMARK  status: ('A' for Active; 'I' for Inactive)
REMARK       I    between atoms: C5_8  and  N1_3 
REMARK    1  A    between atoms: C8_11  and  N1_3 
REMARK    2  A    between atoms: C1_4  and  C2_5 
REMARK    3  A    between atoms: C1_4  and  C5_8 
REMARK    4  A    between atoms: C3_6  and  C4_7 
ROOT
HETATM    1  C1  UNK     1      27.379  -7.861  38.198  1.00  0.00     0.043 C 
HETATM    2  C3  UNK     1      28.137  -7.157  39.079  1.00  0.00     0.029 C 
ENDROOT
BRANCH   1   3
HETATM    3  C2  UNK     1      27.793  -8.070  36.796  1.00  0.00    -0.021 A 
HETATM    4  C6  UNK     1      28.065  -9.353  36.356  1.00  0.00     0.012 A 
HETATM    5  C11 UNK     1      28.456  -9.550  35.031  1.00  0.00     0.001 A 
HETATM    6  C15 UNK     1      28.568  -8.460  34.168  1.00  0.00     0.000 A 
HETATM    7  C12 UNK     1      28.290  -7.173  34.629  1.00  0.00     0.001 A 
HETATM    8  C7  UNK     1      27.899  -6.976  35.953  1.00  0.00     0.012 A 
ENDBRANCH   1   3
BRANCH   1   9
HETATM    9  C5  UNK     1      26.063  -8.394  38.721  1.00  0.00     0.257 C 
HETATM   10  O1  UNK     1      26.052  -9.238  39.613  1.00  0.00    -0.267 OA
HETATM   11  N1  UNK     1      24.967  -7.831  38.080  1.00  0.00    -0.323 N 
HETATM   12  H4  UNK     1      25.110  -7.148  37.344  1.00  0.00     0.169 HD
BRANCH  11  13
HETATM   13  C8  UNK     1      23.624  -8.121  38.344  1.00  0.00     0.035 A 
HETATM   14  C13 UNK     1      22.875  -8.840  37.416  1.00  0.00     0.032 A 
HETATM   15  C19 UNK     1      21.535  -9.128  37.677  1.00  0.00     0.044 A 
HETATM   16  C21 UNK     1      20.949  -8.697  38.866  1.00  0.00     0.116 A 
HETATM   17  C20 UNK     1      21.702  -7.977  39.794  1.00  0.00     0.044 A 
HETATM   18  F1  UNK     1      19.663  -8.973  39.118  1.00  0.00    -0.206 F 
HETATM   19  C14 UNK     1      23.040  -7.688  39.533  1.00  0.00     0.032 A 
ENDBRANCH  11  13
ENDBRANCH   1   9
BRANCH   2  20
HETATM   20  C4  UNK     1      29.411  -6.510  38.803  1.00  0.00    -0.035 A 
HETATM   21  C10 UNK     1      29.501  -5.118  38.806  1.00  0.00     0.011 A 
HETATM   22  C17 UNK     1      30.722  -4.497  38.541  1.00  0.00     0.001 A 
HETATM   23  C18 UNK     1      31.852  -5.270  38.273  1.00  0.00     0.000 A 
HETATM   24  C16 UNK     1      31.762  -6.661  38.270  1.00  0.00     0.001 A 
HETATM   25  C9  UNK     1      30.541  -7.282  38.535  1.00  0.00     0.011 A 
ENDBRANCH   2  20
TORSDOF 4
ENDMDL
MODEL 7
REMARK VINA RESULT:      -7.5     17.179     20.879
REMARK  4 active torsions:
REMARK  status: ('A' for Active; 'I' for Inactive)
REMARK       I    between atoms: C5_8  and  N1_3 
REMARK    1  A    between atoms: C8_11  and  N1_3 
REMARK    2  A    between atoms: C1_4  and  C2_5 
REMARK    3  A    between atoms: C1_4  and  C5_8 
REMARK    4  A    between atoms: C3_6  and  C4_7 
ROOT
HETATM    1  C1  UNK     1      19.612  -2.636  35.780  1.00  0.00     0.043 C 
HETATM    2  C3  UNK     1      19.071  -1.849  36.747  1.00  0.00     0.029 C 
ENDROOT
BRANCH   1   3
HETATM    3  C2  UNK     1      19.673  -2.212  34.366  1.00  0.00    -0.021 A 
HETATM    4  C6  UNK     1      20.758  -2.589  33.595  1.00  0.00     0.012 A 
HETATM    5  C11 UNK     1      20.816  -2.190  32.260  1.00  0.00     0.001 A 
HETATM    6  C15 UNK     1      19.786  -1.420  31.717  1.00  0.00     0.000 A 
HETATM    7  C12 UNK     1      18.700  -1.051  32.510  1.00  0.00     0.001 A 
HETATM    8  C7  UNK     1      18.642  -1.450  33.844  1.00  0.00     0.012 A 
ENDBRANCH   1   3
BRANCH   1   9
HETATM    9  C5  UNK     1      20.118  -3.991  36.222  1.00  0.00     0.257 C 
HETATM   10  O1  UNK     1      21.159  -4.079  36.866  1.00  0.00    -0.267 OA
HETATM   11  N1  UNK     1      19.293  -5.029  35.810  1.00  0.00    -0.323 N 
HETATM   12  H4  UNK     1      18.460  -4.826  35.266  1.00  0.00     0.169 HD
BRANCH  11  13
HETATM   13  C8  UNK     1      19.495  -6.390  36.065  1.00  0.00     0.035 A 
HETATM   14  C13 UNK     1      20.388  -7.117  35.283  1.00  0.00     0.032 A 
HETATM   15  C19 UNK     1      20.589  -8.474  35.536  1.00  0.00     0.044 A 
HETATM   16  C21 UNK     1      19.897  -9.100  36.572  1.00  0.00     0.116 A 
HETATM   17  C20 UNK     1      19.003  -8.369  37.355  1.00  0.00     0.044 A 
HETATM   18  F1  UNK     1      20.089 -10.402  36.816  1.00  0.00    -0.206 F 
HETATM   19  C14 UNK     1      18.801  -7.013  37.101  1.00  0.00     0.032 A 
ENDBRANCH  11  13
ENDBRANCH   1   9
BRANCH   2  20
HETATM   20  C4  UNK     1      18.479  -0.533  36.564  1.00  0.00    -0.035 A 
HETATM   21  C10 UNK     1      19.265   0.529  36.117  1.00  0.00     0.011 A 
HETATM   22  C17 UNK     1      18.698   1.791  35.942  1.00  0.00     0.001 A 
HETATM   23  C18 UNK     1      17.345   1.991  36.214  1.00  0.00     0.000 A 
HETATM   24  C16 UNK     1      16.559   0.929  36.661  1.00  0.00     0.001 A 
HETATM   25  C9  UNK     1      17.126  -0.333  36.836  1.00  0.00     0.011 A 
ENDBRANCH   2  20
TORSDOF 4
ENDMDL
MODEL 8
REMARK VINA RESULT:      -7.4     20.111     23.482
REMARK  4 active torsions:
REMARK  status: ('A' for Active; 'I' for Inactive)
REMARK       I    between atoms: C5_8  and  N1_3 
REMARK    1  A    between atoms: C8_11  and  N1_3 
REMARK    2  A    between atoms: C1_4  and  C2_5 
REMARK    3  A    between atoms: C1_4  and  C5_8 
REMARK    4  A    between atoms: C3_6  and  C4_7 
ROOT
HETATM    1  C1  UNK     1      29.169  -8.146  35.582  1.00  0.00     0.043 C 
HETATM    2  C3  UNK     1      30.141  -7.204  35.451  1.00  0.00     0.029 C 
ENDROOT
BRANCH   1   3
HETATM    3  C2  UNK     1      28.536  -8.446  36.882  1.00  0.00    -0.021 A 
HETATM    4  C6  UNK     1      29.165  -9.315  37.754  1.00  0.00     0.012 A 
HETATM    5  C11 UNK     1      28.567  -9.599  38.982  1.00  0.00     0.001 A 
HETATM    6  C15 UNK     1      27.349  -9.007  39.318  1.00  0.00     0.000 A 
HETATM    7  C12 UNK     1      26.730  -8.133  38.425  1.00  0.00     0.001 A 
HETATM    8  C7  UNK     1      27.328  -7.849  37.198  1.00  0.00     0.012 A 
ENDBRANCH   1   3
BRANCH   1   9
HETATM    9  C5  UNK     1      28.793  -8.900  34.326  1.00  0.00     0.257 C 
HETATM   10  O1  UNK     1      28.289 -10.017  34.407  1.00  0.00    -0.267 OA
HETATM   11  N1  UNK     1      29.091  -8.193  33.168  1.00  0.00    -0.323 N 
HETATM   12  H4  UNK     1      29.523  -7.276  33.235  1.00  0.00     0.169 HD
BRANCH  11  13
HETATM   13  C8  UNK     1      28.860  -8.626  31.858  1.00  0.00     0.035 A 
HETATM   14  C13 UNK     1      27.749  -8.162  31.160  1.00  0.00     0.032 A 
HETATM   15  C19 UNK     1      27.518  -8.595  29.854  1.00  0.00     0.044 A 
HETATM   16  C21 UNK     1      28.400  -9.490  29.250  1.00  0.00     0.116 A 
HETATM   17  C20 UNK     1      29.513  -9.953  29.952  1.00  0.00     0.044 A 
HETATM   18  F1  UNK     1      28.179  -9.906  27.997  1.00  0.00    -0.206 F 
HETATM   19  C14 UNK     1      29.744  -9.521  31.257  1.00  0.00     0.032 A 
ENDBRANCH  11  13
ENDBRANCH   1   9
BRANCH   2  20
HETATM   20  C4  UNK     1      30.703  -6.386  36.514  1.00  0.00    -0.035 A 
HETATM   21  C10 UNK     1      30.055  -5.216  36.911  1.00  0.00     0.011 A 
HETATM   22  C17 UNK     1      30.594  -4.431  37.930  1.00  0.00     0.001 A 
HETATM   23  C18 UNK     1      31.782  -4.816  38.552  1.00  0.00     0.000 A 
HETATM   24  C16 UNK     1      32.430  -5.985  38.155  1.00  0.00     0.001 A 
HETATM   25  C9  UNK     1      31.891  -6.770  37.136  1.00  0.00     0.011 A 
ENDBRANCH   2  20
TORSDOF 4
ENDMDL
MODEL 9
REMARK VINA RESULT:      -7.4     20.116     23.482
REMARK  4 active torsions:
REMARK  status: ('A' for Active; 'I' for Inactive)
REMARK       I    between atoms: C5_8  and  N1_3 
REMARK    1  A    between atoms: C8_11  and  N1_3 
REMARK    2  A    between atoms: C1_4  and  C2_5 
REMARK    3  A    between atoms: C1_4  and  C5_8 
REMARK    4  A    between atoms: C3_6  and  C4_7 
ROOT
HETATM    1  C1  UNK     1      29.166  -8.145  35.585  1.00  0.00     0.043 C 
HETATM    2  C3  UNK     1      30.141  -7.208  35.446  1.00  0.00     0.029 C 
ENDROOT
BRANCH   1   3
HETATM    3  C2  UNK     1      28.545  -8.445  36.891  1.00  0.00    -0.021 A 
HETATM    4  C6  UNK     1      27.342  -7.846  37.219  1.00  0.00     0.012 A 
HETATM    5  C11 UNK     1      26.755  -8.129  38.453  1.00  0.00     0.001 A 
HETATM    6  C15 UNK     1      27.381  -9.008  39.337  1.00  0.00     0.000 A 
HETATM    7  C12 UNK     1      28.593  -9.603  38.989  1.00  0.00     0.001 A 
HETATM    8  C7  UNK     1      29.180  -9.319  37.756  1.00  0.00     0.012 A 
ENDBRANCH   1   3
BRANCH   1   9
HETATM    9  C5  UNK     1      28.772  -8.895  34.331  1.00  0.00     0.257 C 
HETATM   10  O1  UNK     1      28.241  -9.999  34.416  1.00  0.00    -0.267 OA
HETATM   11  N1  UNK     1      29.088  -8.199  33.171  1.00  0.00    -0.323 N 
HETATM   12  H4  UNK     1      29.542  -7.294  33.235  1.00  0.00     0.169 HD
BRANCH  11  13
HETATM   13  C8  UNK     1      28.848  -8.632  31.863  1.00  0.00     0.035 A 
HETATM   14  C13 UNK     1      29.717  -9.539  31.261  1.00  0.00     0.032 A 
HETATM   15  C19 UNK     1      29.479  -9.969  29.956  1.00  0.00     0.044 A 
HETATM   16  C21 UNK     1      28.371  -9.492  29.257  1.00  0.00     0.116 A 
HETATM   17  C20 UNK     1      27.501  -8.585  29.862  1.00  0.00     0.044 A 
HETATM   18  F1  UNK     1      28.141  -9.906  28.004  1.00  0.00    -0.206 F 
HETATM   19  C14 UNK     1      27.740  -8.154  31.166  1.00  0.00     0.032 A 
ENDBRANCH  11  13
ENDBRANCH   1   9
BRANCH   2  20
HETATM   20  C4  UNK     1      30.719  -6.395  36.504  1.00  0.00    -0.035 A 
HETATM   21  C10 UNK     1      31.908  -6.789  37.116  1.00  0.00     0.011 A 
HETATM   22  C17 UNK     1      32.462  -6.009  38.131  1.00  0.00     0.001 A 
HETATM   23  C18 UNK     1      31.826  -4.835  38.534  1.00  0.00     0.000 A 
HETATM   24  C16 UNK     1      30.636  -4.441  37.923  1.00  0.00     0.001 A 
HETATM   25  C9  UNK     1      30.082  -5.220  36.907  1.00  0.00     0.011 A 
ENDBRANCH   2  20
TORSDOF 4
ENDMDL
MODEL 10
REMARK VINA RESULT:      -7.4     20.029     21.916
REMARK  4 active torsions:
REMARK  status: ('A' for Active; 'I' for Inactive)
REMARK       I    between atoms: C5_8  and  N1_3 
REMARK    1  A    between atoms: C8_11  and  N1_3 
REMARK    2  A    between atoms: C1_4  and  C2_5 
REMARK    3  A    between atoms: C1_4  and  C5_8 
REMARK    4  A    between atoms: C3_6  and  C4_7 
ROOT
HETATM    1  C1  UNK     1      19.813  -6.340  36.883  1.00  0.00     0.043 C 
HETATM    2  C3  UNK     1      19.576  -7.325  35.976  1.00  0.00     0.029 C 
ENDROOT
BRANCH   1   3
HETATM    3  C2  UNK     1      20.830  -6.479  37.944  1.00  0.00    -0.021 A 
HETATM    4  C6  UNK     1      22.000  -5.745  37.858  1.00  0.00     0.012 A 
HETATM    5  C11 UNK     1      22.961  -5.875  38.861  1.00  0.00     0.001 A 
HETATM    6  C15 UNK     1      22.735  -6.737  39.935  1.00  0.00     0.000 A 
HETATM    7  C12 UNK     1      21.550  -7.469  40.005  1.00  0.00     0.001 A 
HETATM    8  C7  UNK     1      20.590  -7.339  39.002  1.00  0.00     0.012 A 
ENDBRANCH   1   3
BRANCH   1   9
HETATM    9  C5  UNK     1      18.951  -5.102  36.771  1.00  0.00     0.257 C 
HETATM   10  O1  UNK     1      17.729  -5.206  36.709  1.00  0.00    -0.267 OA
HETATM   11  N1  UNK     1      19.699  -3.932  36.742  1.00  0.00    -0.323 N 
HETATM   12  H4  UNK     1      20.712  -3.980  36.787  1.00  0.00     0.169 HD
BRANCH  11  13
HETATM   13  C8  UNK     1      19.188  -2.633  36.644  1.00  0.00     0.035 A 
HETATM   14  C13 UNK     1      18.505  -2.074  37.721  1.00  0.00     0.032 A 
HETATM   15  C19 UNK     1      17.995  -0.779  37.624  1.00  0.00     0.044 A 
HETATM   16  C21 UNK     1      18.170  -0.048  36.450  1.00  0.00     0.116 A 
HETATM   17  C20 UNK     1      18.855  -0.610  35.373  1.00  0.00     0.044 A 
HETATM   18  F1  UNK     1      17.680   1.196  36.356  1.00  0.00    -0.206 F 
HETATM   19  C14 UNK     1      19.365  -1.904  35.470  1.00  0.00     0.032 A 
ENDBRANCH  11  13
ENDBRANCH   1   9
BRANCH   2  20
HETATM   20  C4  UNK     1      20.237  -8.618  35.908  1.00  0.00    -0.035 A 
HETATM   21  C10 UNK     1      21.293  -8.816  35.019  1.00  0.00     0.011 A 
HETATM   22  C17 UNK     1      21.927 -10.056  34.953  1.00  0.00     0.001 A 
HETATM   23  C18 UNK     1      21.504 -11.100  35.777  1.00  0.00     0.000 A 
HETATM   24  C16 UNK     1      20.448 -10.903  36.666  1.00  0.00     0.001 A 
HETATM   25  C9  UNK     1      19.814  -9.662  36.732  1.00  0.00     0.011 A 
ENDBRANCH   2  20
TORSDOF 4
ENDMDL
