MODEL 1
REMARK VINA RESULT:      -8.3      0.000      0.000
REMARK  1 active torsions:
REMARK  status: ('A' for Active; 'I' for Inactive)
REMARK    1  A    between atoms: C10_16  and  C13_19 
ROOT
HETATM    1  N2  UNK     1      20.554  -0.300  29.543  1.00  0.00    -0.197 NA
HETATM    2  C13 UNK     1      18.754   1.557  29.020  1.00  0.00     0.190 C 
HETATM    3  C14 UNK     1      19.761   0.513  29.305  1.00  0.00     0.065 C 
ENDROOT
BRANCH   2   4
HETATM    4  C10 UNK     1      18.565   2.453  30.181  1.00  0.00     0.088 A 
HETATM    5  S1  UNK     1      18.623   4.151  29.943  1.00  0.00    -0.071 SA
HETATM    6  C5  UNK     1      18.338   4.374  31.622  1.00  0.00     0.040 A 
HETATM    7  C2  UNK     1      18.257   5.689  32.179  1.00  0.00     0.059 A 
HETATM    8  C9  UNK     1      18.221   3.142  32.235  1.00  0.00     0.137 A 
HETATM    9  C3  UNK     1      17.067   6.305  32.237  1.00  0.00     0.033 A 
HETATM   10  C6  UNK     1      19.489   6.350  32.689  1.00  0.00     0.300 A 
HETATM   11  C1  UNK     1      16.946   7.638  32.804  1.00  0.00     0.000 A 
HETATM   12  C4  UNK     1      18.086   8.266  33.291  1.00  0.00     0.089 A 
HETATM   13  C7  UNK     1      15.723   8.309  32.878  1.00  0.00     0.033 A 
HETATM   14  O1  UNK     1      19.337   7.622  33.234  1.00  0.00    -0.274 OA
HETATM   15  C8  UNK     1      18.040   9.543  33.849  1.00  0.00     0.039 A 
HETATM   16  C12 UNK     1      16.816  10.205  33.919  1.00  0.00     0.022 A 
HETATM   17  C11 UNK     1      15.660   9.589  33.434  1.00  0.00     0.011 A 
HETATM   18 Br1  UNK     1      14.001  10.493  33.531  1.00  0.00    -0.051 Br
HETATM   19  O2  UNK     1      20.591   5.813  32.633  1.00  0.00    -0.259 OA
HETATM   20  N1  UNK     1      18.350   2.040  31.411  1.00  0.00    -0.256 NA
ENDBRANCH   2   4
TORSDOF 1
ENDMDL
MODEL 2
REMARK VINA RESULT:      -7.6      1.602      2.285
REMARK  1 active torsions:
REMARK  status: ('A' for Active; 'I' for Inactive)
REMARK    1  A    between atoms: C10_16  and  C13_19 
ROOT
HETATM    1  N2  UNK     1      17.593   1.546  29.374  1.00  0.00    -0.197 NA
HETATM    2  C13 UNK     1      19.154   3.622  29.838  1.00  0.00     0.190 C 
HETATM    3  C14 UNK     1      18.285   2.457  29.572  1.00  0.00     0.065 C 
ENDROOT
BRANCH   2   4
HETATM    4  C10 UNK     1      18.612   4.458  30.931  1.00  0.00     0.088 A 
HETATM    5  S1  UNK     1      18.581   6.163  30.741  1.00  0.00    -0.071 SA
HETATM    6  C5  UNK     1      17.878   6.302  32.301  1.00  0.00     0.040 A 
HETATM    7  C2  UNK     1      17.551   7.586  32.841  1.00  0.00     0.059 A 
HETATM    8  C9  UNK     1      17.719   5.043  32.848  1.00  0.00     0.137 A 
HETATM    9  C3  UNK     1      16.335   8.103  32.615  1.00  0.00     0.033 A 
HETATM   10  C6  UNK     1      18.561   8.323  33.650  1.00  0.00     0.300 A 
HETATM   11  C1  UNK     1      15.965   9.402  33.155  1.00  0.00     0.000 A 
HETATM   12  C4  UNK     1      16.895  10.100  33.918  1.00  0.00     0.089 A 
HETATM   13  C7  UNK     1      14.709   9.971  32.936  1.00  0.00     0.033 A 
HETATM   14  O1  UNK     1      18.172   9.558  34.160  1.00  0.00    -0.274 OA
HETATM   15  C8  UNK     1      16.605  11.348  34.467  1.00  0.00     0.039 A 
HETATM   16  C12 UNK     1      15.349  11.908  34.243  1.00  0.00     0.022 A 
HETATM   17  C11 UNK     1      14.403  11.221  33.479  1.00  0.00     0.011 A 
HETATM   18 Br1  UNK     1      12.700  11.987  33.180  1.00  0.00    -0.051 Br
HETATM   19  O2  UNK     1      19.685   7.877  33.858  1.00  0.00    -0.259 OA
HETATM   20  N1  UNK     1      18.139   3.985  32.064  1.00  0.00    -0.256 NA
ENDBRANCH   2   4
TORSDOF 1
ENDMDL
MODEL 3
REMARK VINA RESULT:      -7.3     22.946     24.160
REMARK  1 active torsions:
REMARK  status: ('A' for Active; 'I' for Inactive)
REMARK    1  A    between atoms: C10_16  and  C13_19 
ROOT
HETATM    1  N2  UNK     1      10.464   5.790   7.153  1.00  0.00    -0.197 NA
HETATM    2  C13 UNK     1      12.012   5.355   9.246  1.00  0.00     0.190 C 
HETATM    3  C14 UNK     1      11.142   5.591   8.074  1.00  0.00     0.065 C 
ENDROOT
BRANCH   2   4
HETATM    4  C10 UNK     1      12.824   6.550   9.561  1.00  0.00     0.088 A 
HETATM    5  S1  UNK     1      14.089   7.004   8.494  1.00  0.00    -0.071 SA
HETATM    6  C5  UNK     1      14.447   8.334   9.519  1.00  0.00     0.040 A 
HETATM    7  C2  UNK     1      15.510   9.236   9.199  1.00  0.00     0.059 A 
HETATM    8  C9  UNK     1      13.579   8.332  10.594  1.00  0.00     0.137 A 
HETATM    9  C3  UNK     1      15.250  10.317   8.448  1.00  0.00     0.033 A 
HETATM   10  C6  UNK     1      16.883   8.966   9.706  1.00  0.00     0.300 A 
HETATM   11  C1  UNK     1      16.304  11.259   8.109  1.00  0.00     0.000 A 
HETATM   12  C4  UNK     1      17.590  11.024   8.582  1.00  0.00     0.089 A 
HETATM   13  C7  UNK     1      16.069  12.392   7.328  1.00  0.00     0.033 A 
HETATM   14  O1  UNK     1      17.867   9.892   9.372  1.00  0.00    -0.274 OA
HETATM   15  C8  UNK     1      18.646  11.889   8.296  1.00  0.00     0.039 A 
HETATM   16  C12 UNK     1      18.403  13.017   7.515  1.00  0.00     0.022 A 
HETATM   17  C11 UNK     1      17.117  13.268   7.032  1.00  0.00     0.011 A 
HETATM   18 Br1  UNK     1      16.792  14.801   5.973  1.00  0.00    -0.051 Br
HETATM   19  O2  UNK     1      17.148   7.977  10.382  1.00  0.00    -0.259 OA
HETATM   20  N1  UNK     1      12.648   7.311  10.619  1.00  0.00    -0.256 NA
ENDBRANCH   2   4
TORSDOF 1
ENDMDL
MODEL 4
REMARK VINA RESULT:      -7.3     23.205     24.384
REMARK  1 active torsions:
REMARK  status: ('A' for Active; 'I' for Inactive)
REMARK    1  A    between atoms: C10_16  and  C13_19 
ROOT
HETATM    1  N2  UNK     1       7.421   4.857   8.325  1.00  0.00    -0.197 NA
HETATM    2  C13 UNK     1       9.186   6.146   6.845  1.00  0.00     0.190 C 
HETATM    3  C14 UNK     1       8.194   5.421   7.667  1.00  0.00     0.065 C 
ENDROOT
BRANCH   2   4
HETATM    4  C10 UNK     1      10.129   6.908   7.692  1.00  0.00     0.088 A 
HETATM    5  S1  UNK     1      11.807   6.849   7.333  1.00  0.00    -0.071 SA
HETATM    6  C5  UNK     1      12.105   7.896   8.661  1.00  0.00     0.040 A 
HETATM    7  C2  UNK     1      13.438   8.307   8.980  1.00  0.00     0.059 A 
HETATM    8  C9  UNK     1      10.909   8.211   9.275  1.00  0.00     0.137 A 
HETATM    9  C3  UNK     1      13.932   9.422   8.422  1.00  0.00     0.033 A 
HETATM   10  C6  UNK     1      14.251   7.497   9.927  1.00  0.00     0.300 A 
HETATM   11  C1  UNK     1      15.279   9.874   8.729  1.00  0.00     0.000 A 
HETATM   12  C4  UNK     1      16.049   9.132   9.618  1.00  0.00     0.089 A 
HETATM   13  C7  UNK     1      15.826  11.028   8.164  1.00  0.00     0.033 A 
HETATM   14  O1  UNK     1      15.533   7.963  10.207  1.00  0.00    -0.274 OA
HETATM   15  C8  UNK     1      17.347   9.511   9.957  1.00  0.00     0.039 A 
HETATM   16  C12 UNK     1      17.885  10.663   9.389  1.00  0.00     0.022 A 
HETATM   17  C11 UNK     1      17.126  11.421   8.494  1.00  0.00     0.011 A 
HETATM   18 Br1  UNK     1      17.861  12.984   7.726  1.00  0.00    -0.051 Br
HETATM   19  O2  UNK     1      13.826   6.466  10.439  1.00  0.00    -0.259 OA
HETATM   20  N1  UNK     1       9.776   7.646   8.721  1.00  0.00    -0.256 NA
ENDBRANCH   2   4
TORSDOF 1
ENDMDL
MODEL 5
REMARK VINA RESULT:      -7.2     17.661     19.425
REMARK  1 active torsions:
REMARK  status: ('A' for Active; 'I' for Inactive)
REMARK    1  A    between atoms: C10_16  and  C13_19 
ROOT
HETATM    1  N2  UNK     1      37.160  -8.858  33.128  1.00  0.00    -0.197 NA
HETATM    2  C13 UNK     1      35.995  -6.491  33.082  1.00  0.00     0.190 C 
HETATM    3  C14 UNK     1      36.650  -7.815  33.100  1.00  0.00     0.065 C 
ENDROOT
BRANCH   2   4
HETATM    4  C10 UNK     1      35.232  -6.253  34.327  1.00  0.00     0.088 A 
HETATM    5  S1  UNK     1      33.523  -6.114  34.244  1.00  0.00    -0.071 SA
HETATM    6  C5  UNK     1      33.482  -5.878  35.944  1.00  0.00     0.040 A 
HETATM    7  C2  UNK     1      32.239  -5.675  36.622  1.00  0.00     0.059 A 
HETATM    8  C9  UNK     1      34.769  -5.922  36.446  1.00  0.00     0.137 A 
HETATM    9  C3  UNK     1      31.566  -6.736  37.091  1.00  0.00     0.033 A 
HETATM   10  C6  UNK     1      31.715  -4.294  36.801  1.00  0.00     0.300 A 
HETATM   11  C1  UNK     1      30.303  -6.568  37.792  1.00  0.00     0.000 A 
HETATM   12  C4  UNK     1      29.804  -5.283  37.973  1.00  0.00     0.089 A 
HETATM   13  C7  UNK     1      29.576  -7.651  38.290  1.00  0.00     0.033 A 
HETATM   14  O1  UNK     1      30.508  -4.166  37.485  1.00  0.00    -0.274 OA
HETATM   15  C8  UNK     1      28.601  -5.051  38.638  1.00  0.00     0.039 A 
HETATM   16  C12 UNK     1      27.881  -6.137  39.132  1.00  0.00     0.022 A 
HETATM   17  C11 UNK     1      28.368  -7.435  38.958  1.00  0.00     0.011 A 
HETATM   18 Br1  UNK     1      27.388  -8.905  39.631  1.00  0.00    -0.051 Br
HETATM   19  O2  UNK     1      32.304  -3.308  36.368  1.00  0.00    -0.259 OA
HETATM   20  N1  UNK     1      35.772  -6.137  35.520  1.00  0.00    -0.256 NA
ENDBRANCH   2   4
TORSDOF 1
ENDMDL
MODEL 6
REMARK VINA RESULT:      -7.2     17.420     19.012
REMARK  1 active torsions:
REMARK  status: ('A' for Active; 'I' for Inactive)
REMARK    1  A    between atoms: C10_16  and  C13_19 
ROOT
HETATM    1  N2  UNK     1      28.596 -10.703  40.168  1.00  0.00    -0.197 NA
HETATM    2  C13 UNK     1      26.939  -8.877  39.226  1.00  0.00     0.190 C 
HETATM    3  C14 UNK     1      27.861  -9.903  39.759  1.00  0.00     0.065 C 
ENDROOT
BRANCH   2   4
HETATM    4  C10 UNK     1      27.620  -7.998  38.251  1.00  0.00     0.088 A 
HETATM    5  S1  UNK     1      29.260  -7.570  38.516  1.00  0.00    -0.071 SA
HETATM    6  C5  UNK     1      29.230  -6.647  37.069  1.00  0.00     0.040 A 
HETATM    7  C2  UNK     1      30.394  -5.938  36.632  1.00  0.00     0.059 A 
HETATM    8  C9  UNK     1      27.977  -6.733  36.494  1.00  0.00     0.137 A 
HETATM    9  C3  UNK     1      31.272  -6.553  35.825  1.00  0.00     0.033 A 
HETATM   10  C6  UNK     1      30.609  -4.533  37.073  1.00  0.00     0.300 A 
HETATM   11  C1  UNK     1      32.461  -5.861  35.355  1.00  0.00     0.000 A 
HETATM   12  C4  UNK     1      32.673  -4.546  35.752  1.00  0.00     0.089 A 
HETATM   13  C7  UNK     1      33.396  -6.472  34.516  1.00  0.00     0.033 A 
HETATM   14  O1  UNK     1      31.753  -3.897  36.597  1.00  0.00    -0.274 OA
HETATM   15  C8  UNK     1      33.791  -3.825  35.336  1.00  0.00     0.039 A 
HETATM   16  C12 UNK     1      34.720  -4.442  34.500  1.00  0.00     0.022 A 
HETATM   17  C11 UNK     1      34.523  -5.763  34.091  1.00  0.00     0.011 A 
HETATM   18 Br1  UNK     1      35.786  -6.594  32.956  1.00  0.00    -0.051 Br
HETATM   19  O2  UNK     1      29.829  -3.955  37.822  1.00  0.00    -0.259 OA
HETATM   20  N1  UNK     1      27.053  -7.508  37.170  1.00  0.00    -0.256 NA
ENDBRANCH   2   4
TORSDOF 1
ENDMDL
MODEL 7
REMARK VINA RESULT:      -7.1     23.359     24.916
REMARK  1 active torsions:
REMARK  status: ('A' for Active; 'I' for Inactive)
REMARK    1  A    between atoms: C10_16  and  C13_19 
ROOT
HETATM    1  N2  UNK     1       5.586   4.064  14.467  1.00  0.00    -0.197 NA
HETATM    2  C13 UNK     1       4.676   4.691  12.071  1.00  0.00     0.190 C 
HETATM    3  C14 UNK     1       5.178   4.342  13.417  1.00  0.00     0.065 C 
ENDROOT
BRANCH   2   4
HETATM    4  C10 UNK     1       5.746   4.588  11.055  1.00  0.00     0.088 A 
HETATM    5  S1  UNK     1       6.924   5.832  10.955  1.00  0.00    -0.071 SA
HETATM    6  C5  UNK     1       7.676   4.986   9.664  1.00  0.00     0.040 A 
HETATM    7  C2  UNK     1       8.846   5.513   9.031  1.00  0.00     0.059 A 
HETATM    8  C9  UNK     1       6.975   3.824   9.406  1.00  0.00     0.137 A 
HETATM    9  C3  UNK     1      10.055   5.180   9.507  1.00  0.00     0.033 A 
HETATM   10  C6  UNK     1       8.706   6.413   7.854  1.00  0.00     0.300 A 
HETATM   11  C1  UNK     1      11.266   5.689   8.885  1.00  0.00     0.000 A 
HETATM   12  C4  UNK     1      11.152   6.526   7.781  1.00  0.00     0.089 A 
HETATM   13  C7  UNK     1      12.540   5.366   9.357  1.00  0.00     0.033 A 
HETATM   14  O1  UNK     1       9.885   6.875   7.276  1.00  0.00    -0.274 OA
HETATM   15  C8  UNK     1      12.273   7.048   7.136  1.00  0.00     0.039 A 
HETATM   16  C12 UNK     1      13.540   6.720   7.613  1.00  0.00     0.022 A 
HETATM   17  C11 UNK     1      13.673   5.880   8.722  1.00  0.00     0.011 A 
HETATM   18 Br1  UNK     1      15.396   5.439   9.365  1.00  0.00    -0.051 Br
HETATM   19  O2  UNK     1       7.611   6.744   7.410  1.00  0.00    -0.259 OA
HETATM   20  N1  UNK     1       5.870   3.594  10.203  1.00  0.00    -0.256 NA
ENDBRANCH   2   4
TORSDOF 1
ENDMDL
MODEL 8
REMARK VINA RESULT:      -7.1      4.332      7.433
REMARK  1 active torsions:
REMARK  status: ('A' for Active; 'I' for Inactive)
REMARK    1  A    between atoms: C10_16  and  C13_19 
ROOT
HETATM    1  N2  UNK     1      20.777   9.766  34.573  1.00  0.00    -0.197 NA
HETATM    2  C13 UNK     1      18.168   9.627  34.201  1.00  0.00     0.190 C 
HETATM    3  C14 UNK     1      19.629   9.712  34.414  1.00  0.00     0.065 C 
ENDROOT
BRANCH   2   4
HETATM    4  C10 UNK     1      17.807   8.412  33.438  1.00  0.00     0.088 A 
HETATM    5  S1  UNK     1      19.035   7.283  33.036  1.00  0.00    -0.071 SA
HETATM    6  C5  UNK     1      17.856   6.313  32.252  1.00  0.00     0.040 A 
HETATM    7  C2  UNK     1      18.226   5.082  31.623  1.00  0.00     0.059 A 
HETATM    8  C9  UNK     1      16.619   6.919  32.355  1.00  0.00     0.137 A 
HETATM    9  C3  UNK     1      18.200   3.947  32.336  1.00  0.00     0.033 A 
HETATM   10  C6  UNK     1      18.627   5.079  30.190  1.00  0.00     0.300 A 
HETATM   11  C1  UNK     1      18.561   2.677  31.728  1.00  0.00     0.000 A 
HETATM   12  C4  UNK     1      18.932   2.657  30.388  1.00  0.00     0.089 A 
HETATM   13  C7  UNK     1      18.548   1.477  32.442  1.00  0.00     0.033 A 
HETATM   14  O1  UNK     1      18.958   3.846  29.636  1.00  0.00    -0.274 OA
HETATM   15  C8  UNK     1      19.288   1.473  29.743  1.00  0.00     0.039 A 
HETATM   16  C12 UNK     1      19.272   0.280  30.463  1.00  0.00     0.022 A 
HETATM   17  C11 UNK     1      18.903   0.282  31.810  1.00  0.00     0.011 A 
HETATM   18 Br1  UNK     1      18.882  -1.340  32.782  1.00  0.00    -0.051 Br
HETATM   19  O2  UNK     1      18.674   6.107  29.521  1.00  0.00    -0.259 OA
HETATM   20  N1  UNK     1      16.589   8.122  33.035  1.00  0.00    -0.256 NA
ENDBRANCH   2   4
TORSDOF 1
ENDMDL
MODEL 9
REMARK VINA RESULT:      -6.9     17.535     20.257
REMARK  1 active torsions:
REMARK  status: ('A' for Active; 'I' for Inactive)
REMARK    1  A    between atoms: C10_16  and  C13_19 
ROOT
HETATM    1  N2  UNK     1      26.222  -5.074  38.671  1.00  0.00    -0.197 NA
HETATM    2  C13 UNK     1      28.372  -6.552  39.064  1.00  0.00     0.190 C 
HETATM    3  C14 UNK     1      27.163  -5.729  38.850  1.00  0.00     0.065 C 
ENDROOT
BRANCH   2   4
HETATM    4  C10 UNK     1      29.500  -6.076  38.235  1.00  0.00     0.088 A 
HETATM    5  S1  UNK     1      30.677  -7.204  37.700  1.00  0.00    -0.071 SA
HETATM    6  C5  UNK     1      31.505  -5.930  36.902  1.00  0.00     0.040 A 
HETATM    7  C2  UNK     1      32.709  -6.186  36.173  1.00  0.00     0.059 A 
HETATM    8  C9  UNK     1      30.825  -4.744  37.102  1.00  0.00     0.137 A 
HETATM    9  C3  UNK     1      32.633  -6.501  34.871  1.00  0.00     0.033 A 
HETATM   10  C6  UNK     1      34.023  -6.094  36.865  1.00  0.00     0.300 A 
HETATM   11  C1  UNK     1      33.836  -6.761  34.097  1.00  0.00     0.000 A 
HETATM   12  C4  UNK     1      35.072  -6.672  34.728  1.00  0.00     0.089 A 
HETATM   13  C7  UNK     1      33.793  -7.094  32.741  1.00  0.00     0.033 A 
HETATM   14  O1  UNK     1      35.155  -6.339  36.093  1.00  0.00    -0.274 OA
HETATM   15  C8  UNK     1      36.263  -6.906  34.044  1.00  0.00     0.039 A 
HETATM   16  C12 UNK     1      36.212  -7.238  32.691  1.00  0.00     0.022 A 
HETATM   17  C11 UNK     1      34.979  -7.332  32.042  1.00  0.00     0.011 A 
HETATM   18 Br1  UNK     1      34.915  -7.783  30.206  1.00  0.00    -0.051 Br
HETATM   19  O2  UNK     1      34.117  -5.823  38.058  1.00  0.00    -0.259 OA
HETATM   20  N1  UNK     1      29.676  -4.826  37.866  1.00  0.00    -0.256 NA
ENDBRANCH   2   4
TORSDOF 1
ENDMDL
MODEL 10
REMARK VINA RESULT:      -6.9     23.298     24.493
REMARK  1 active torsions:
REMARK  status: ('A' for Active; 'I' for Inactive)
REMARK    1  A    between atoms: C10_16  and  C13_19 
ROOT
HETATM    1  N2  UNK     1      15.134   5.550  10.449  1.00  0.00    -0.197 NA
HETATM    2  C13 UNK     1      14.304   5.625   7.946  1.00  0.00     0.190 C 
HETATM    3  C14 UNK     1      14.776   5.579   9.345  1.00  0.00     0.065 C 
ENDROOT
BRANCH   2   4
HETATM    4  C10 UNK     1      12.946   6.205   7.856  1.00  0.00     0.088 A 
HETATM    5  S1  UNK     1      11.844   5.954   9.148  1.00  0.00    -0.071 SA
HETATM    6  C5  UNK     1      10.669   6.868   8.294  1.00  0.00     0.040 A 
HETATM    7  C2  UNK     1       9.368   7.083   8.850  1.00  0.00     0.059 A 
HETATM    8  C9  UNK     1      11.202   7.295   7.093  1.00  0.00     0.137 A 
HETATM    9  C3  UNK     1       9.155   8.159   9.623  1.00  0.00     0.033 A 
HETATM   10  C6  UNK     1       8.274   6.118   8.559  1.00  0.00     0.300 A 
HETATM   11  C1  UNK     1       7.844   8.414  10.198  1.00  0.00     0.000 A 
HETATM   12  C4  UNK     1       6.809   7.525   9.929  1.00  0.00     0.089 A 
HETATM   13  C7  UNK     1       7.588   9.522  11.009  1.00  0.00     0.033 A 
HETATM   14  O1  UNK     1       7.029   6.396   9.117  1.00  0.00    -0.274 OA
HETATM   15  C8  UNK     1       5.529   7.711  10.448  1.00  0.00     0.039 A 
HETATM   16  C12 UNK     1       5.282   8.819  11.256  1.00  0.00     0.022 A 
HETATM   17  C11 UNK     1       6.310   9.723  11.536  1.00  0.00     0.011 A 
HETATM   18 Br1  UNK     1       5.969  11.224  12.633  1.00  0.00    -0.051 Br
HETATM   19  O2  UNK     1       8.448   5.119   7.868  1.00  0.00    -0.259 OA
HETATM   20  N1  UNK     1      12.506   6.916   6.841  1.00  0.00    -0.256 NA
ENDBRANCH   2   4
TORSDOF 1
ENDMDL
