MODEL 1
REMARK VINA RESULT:      -9.8      0.000      0.000
REMARK  3 active torsions:
REMARK  status: ('A' for Active; 'I' for Inactive)
REMARK    1  A    between atoms: C1_7  and  N1_6 
REMARK       I    between atoms: C7_13  and  N1_6 
REMARK    2  A    between atoms: C1_7  and  C4_10 
REMARK    3  A    between atoms: C3_9  and  C7_13 
ROOT
HETATM    1  O2  UNK     1      18.057   3.344  28.707  1.00  0.00    -0.267 OA
HETATM    2  N1  UNK     1      19.220   4.338  30.467  1.00  0.00    -0.352 N 
HETATM    3  C7  UNK     1      18.694   3.274  29.756  1.00  0.00     0.258 C 
HETATM    4  H4  UNK     1      19.747   4.174  31.318  1.00  0.00     0.163 HD
ENDROOT
BRANCH   3   5
HETATM    5  C3  UNK     1      18.972   1.976  30.383  1.00  0.00     0.108 A 
HETATM    6  C6  UNK     1      19.605   1.075  29.622  1.00  0.00     0.037 A 
HETATM    7  C2  UNK     1      19.923  -0.240  30.155  1.00  0.00    -0.001 A 
HETATM    8  C5  UNK     1      19.560  -0.543  31.464  1.00  0.00     0.089 A 
HETATM    9  C9  UNK     1      20.582  -1.211  29.398  1.00  0.00     0.014 A 
HETATM   10  C12 UNK     1      19.836  -1.783  32.035  1.00  0.00     0.038 A 
HETATM   11  O1  UNK     1      18.895   0.411  32.260  1.00  0.00    -0.274 OA
HETATM   12  C14 UNK     1      20.494  -2.747  31.272  1.00  0.00     0.003 A 
HETATM   13  C13 UNK     1      20.866  -2.461  29.956  1.00  0.00     0.001 A 
HETATM   14  C8  UNK     1      18.577   1.676  31.777  1.00  0.00     0.304 A 
HETATM   15  O3  UNK     1      17.996   2.499  32.478  1.00  0.00    -0.259 OA
ENDBRANCH   3   5
BRANCH   2  16
HETATM   16  C1  UNK     1      19.078   5.713  30.045  1.00  0.00     0.161 C 
BRANCH  16  17
HETATM   17  C4  UNK     1      18.472   6.570  31.119  1.00  0.00    -0.039 A 
HETATM   18  C10 UNK     1      19.143   6.740  32.324  1.00  0.00     0.034 A 
HETATM   19  C15 UNK     1      18.580   7.537  33.321  1.00  0.00     0.056 A 
HETATM   20 Cl1  UNK     1      19.457   7.718  34.800  1.00  0.00    -0.083 Cl
HETATM   21  C17 UNK     1      17.348   8.156  33.106  1.00  0.00     0.055 A 
HETATM   22  C16 UNK     1      16.680   7.979  31.895  1.00  0.00     0.026 A 
HETATM   23 Cl2  UNK     1      16.598   9.152  34.303  1.00  0.00    -0.083 Cl
HETATM   24  C11 UNK     1      17.244   7.183  30.898  1.00  0.00     0.010 A 
ENDBRANCH  16  17
ENDBRANCH   2  16
TORSDOF 3
ENDMDL
MODEL 2
REMARK VINA RESULT:      -9.3      1.300      2.045
REMARK  3 active torsions:
REMARK  status: ('A' for Active; 'I' for Inactive)
REMARK    1  A    between atoms: C1_7  and  N1_6 
REMARK       I    between atoms: C7_13  and  N1_6 
REMARK    2  A    between atoms: C1_7  and  C4_10 
REMARK    3  A    between atoms: C3_9  and  C7_13 
ROOT
HETATM    1  O2  UNK     1      18.621   4.541  29.927  1.00  0.00    -0.267 OA
HETATM    2  N1  UNK     1      17.484   4.494  31.961  1.00  0.00    -0.352 N 
HETATM    3  C7  UNK     1      18.254   3.958  30.944  1.00  0.00     0.258 C 
HETATM    4  H4  UNK     1      17.245   3.933  32.772  1.00  0.00     0.163 HD
ENDROOT
BRANCH   3   5
HETATM    5  C3  UNK     1      18.624   2.558  31.187  1.00  0.00     0.108 A 
HETATM    6  C6  UNK     1      19.152   1.898  30.149  1.00  0.00     0.037 A 
HETATM    7  C2  UNK     1      19.550   0.506  30.292  1.00  0.00    -0.001 A 
HETATM    8  C5  UNK     1      19.373  -0.122  31.520  1.00  0.00     0.089 A 
HETATM    9  C9  UNK     1      20.105  -0.221  29.236  1.00  0.00     0.014 A 
HETATM   10  C12 UNK     1      19.733  -1.453  31.722  1.00  0.00     0.038 A 
HETATM   11  O1  UNK     1      18.817   0.578  32.609  1.00  0.00    -0.274 OA
HETATM   12  C14 UNK     1      20.286  -2.172  30.664  1.00  0.00     0.003 A 
HETATM   13  C13 UNK     1      20.471  -1.557  29.424  1.00  0.00     0.001 A 
HETATM   14  C8  UNK     1      18.427   1.910  32.502  1.00  0.00     0.304 A 
HETATM   15  O3  UNK     1      17.943   2.511  33.455  1.00  0.00    -0.259 OA
ENDBRANCH   3   5
BRANCH   2  16
HETATM   16  C1  UNK     1      17.000   5.856  31.948  1.00  0.00     0.161 C 
BRANCH  16  17
HETATM   17  C4  UNK     1      17.945   6.794  32.642  1.00  0.00    -0.039 A 
HETATM   18  C10 UNK     1      17.518   8.072  32.986  1.00  0.00     0.034 A 
HETATM   19  C15 UNK     1      18.396   8.942  33.631  1.00  0.00     0.056 A 
HETATM   20 Cl1  UNK     1      17.815  10.519  34.038  1.00  0.00    -0.083 Cl
HETATM   21  C17 UNK     1      19.695   8.529  33.928  1.00  0.00     0.055 A 
HETATM   22  C16 UNK     1      20.116   7.246  33.579  1.00  0.00     0.026 A 
HETATM   23 Cl2  UNK     1      20.830   9.562  34.724  1.00  0.00    -0.083 Cl
HETATM   24  C11 UNK     1      19.238   6.376  32.935  1.00  0.00     0.010 A 
ENDBRANCH  16  17
ENDBRANCH   2  16
TORSDOF 3
ENDMDL
MODEL 3
REMARK VINA RESULT:      -9.1      3.586      7.909
REMARK  3 active torsions:
REMARK  status: ('A' for Active; 'I' for Inactive)
REMARK    1  A    between atoms: C1_7  and  N1_6 
REMARK       I    between atoms: C7_13  and  N1_6 
REMARK    2  A    between atoms: C1_7  and  C4_10 
REMARK    3  A    between atoms: C3_9  and  C7_13 
ROOT
HETATM    1  O2  UNK     1      18.655   4.844  28.915  1.00  0.00    -0.267 OA
HETATM    2  N1  UNK     1      19.008   3.050  30.362  1.00  0.00    -0.352 N 
HETATM    3  C7  UNK     1      18.877   4.388  30.034  1.00  0.00     0.258 C 
HETATM    4  H4  UNK     1      19.176   2.772  31.323  1.00  0.00     0.163 HD
ENDROOT
BRANCH   3   5
HETATM    5  C3  UNK     1      19.029   5.276  31.194  1.00  0.00     0.108 A 
HETATM    6  C6  UNK     1      17.926   5.498  31.918  1.00  0.00     0.037 A 
HETATM    7  C2  UNK     1      17.977   6.364  33.085  1.00  0.00    -0.001 A 
HETATM    8  C5  UNK     1      19.188   6.954  33.433  1.00  0.00     0.089 A 
HETATM    9  C9  UNK     1      16.851   6.624  33.869  1.00  0.00     0.014 A 
HETATM   10  C12 UNK     1      19.305   7.794  34.538  1.00  0.00     0.038 A 
HETATM   11  O1  UNK     1      20.346   6.716  32.667  1.00  0.00    -0.274 OA
HETATM   12  C14 UNK     1      18.176   8.049  35.316  1.00  0.00     0.003 A 
HETATM   13  C13 UNK     1      16.952   7.464  34.982  1.00  0.00     0.001 A 
HETATM   14  C8  UNK     1      20.328   5.893  31.546  1.00  0.00     0.304 A 
HETATM   15  O3  UNK     1      21.341   5.692  30.884  1.00  0.00    -0.259 OA
ENDBRANCH   3   5
BRANCH   2  16
HETATM   16  C1  UNK     1      18.895   1.987  29.388  1.00  0.00     0.161 C 
BRANCH  16  17
HETATM   17  C4  UNK     1      19.404   0.680  29.923  1.00  0.00    -0.039 A 
HETATM   18  C10 UNK     1      19.091   0.299  31.223  1.00  0.00     0.034 A 
HETATM   19  C15 UNK     1      19.564  -0.916  31.720  1.00  0.00     0.056 A 
HETATM   20 Cl1  UNK     1      19.145  -1.342  33.342  1.00  0.00    -0.083 Cl
HETATM   21  C17 UNK     1      20.348  -1.741  30.913  1.00  0.00     0.055 A 
HETATM   22  C16 UNK     1      20.658  -1.352  29.610  1.00  0.00     0.026 A 
HETATM   23 Cl2  UNK     1      20.965  -3.256  31.471  1.00  0.00    -0.083 Cl
HETATM   24  C11 UNK     1      20.185  -0.138  29.114  1.00  0.00     0.010 A 
ENDBRANCH  16  17
ENDBRANCH   2  16
TORSDOF 3
ENDMDL
MODEL 4
REMARK VINA RESULT:      -8.9      6.467      9.644
REMARK  3 active torsions:
REMARK  status: ('A' for Active; 'I' for Inactive)
REMARK    1  A    between atoms: C1_7  and  N1_6 
REMARK       I    between atoms: C7_13  and  N1_6 
REMARK    2  A    between atoms: C1_7  and  C4_10 
REMARK    3  A    between atoms: C3_9  and  C7_13 
ROOT
HETATM    1  O2  UNK     1      17.483  -1.308  35.797  1.00  0.00    -0.267 OA
HETATM    2  N1  UNK     1      19.700  -2.028  35.748  1.00  0.00    -0.352 N 
HETATM    3  C7  UNK     1      18.574  -1.404  35.240  1.00  0.00     0.258 C 
HETATM    4  H4  UNK     1      20.563  -2.040  35.215  1.00  0.00     0.163 HD
ENDROOT
BRANCH   3   5
HETATM    5  C3  UNK     1      18.794  -0.829  33.907  1.00  0.00     0.108 A 
HETATM    6  C6  UNK     1      19.359  -1.636  33.001  1.00  0.00     0.037 A 
HETATM    7  C2  UNK     1      19.617  -1.156  31.652  1.00  0.00    -0.001 A 
HETATM    8  C5  UNK     1      19.266   0.150  31.323  1.00  0.00     0.089 A 
HETATM    9  C9  UNK     1      20.205  -1.963  30.675  1.00  0.00     0.014 A 
HETATM   10  C12 UNK     1      19.486   0.670  30.050  1.00  0.00     0.038 A 
HETATM   11  O1  UNK     1      18.671   0.993  32.281  1.00  0.00    -0.274 OA
HETATM   12  C14 UNK     1      20.074  -0.141  29.080  1.00  0.00     0.003 A 
HETATM   13  C13 UNK     1      20.432  -1.455  29.392  1.00  0.00     0.001 A 
HETATM   14  C8  UNK     1      18.412   0.562  33.579  1.00  0.00     0.304 A 
HETATM   15  O3  UNK     1      17.894   1.305  34.407  1.00  0.00    -0.259 OA
ENDBRANCH   3   5
BRANCH   2  16
HETATM   16  C1  UNK     1      19.729  -2.665  37.046  1.00  0.00     0.161 C 
BRANCH  16  17
HETATM   17  C4  UNK     1      20.169  -4.097  36.957  1.00  0.00    -0.039 A 
HETATM   18  C10 UNK     1      21.029  -4.613  37.920  1.00  0.00     0.034 A 
HETATM   19  C15 UNK     1      21.437  -5.945  37.838  1.00  0.00     0.056 A 
HETATM   20 Cl1  UNK     1      22.507  -6.538  39.060  1.00  0.00    -0.083 Cl
HETATM   21  C17 UNK     1      20.983  -6.751  36.793  1.00  0.00     0.055 A 
HETATM   22  C16 UNK     1      20.121  -6.225  35.831  1.00  0.00     0.026 A 
HETATM   23 Cl2  UNK     1      21.455  -8.406  36.636  1.00  0.00    -0.083 Cl
HETATM   24  C11 UNK     1      19.712  -4.894  35.914  1.00  0.00     0.010 A 
ENDBRANCH  16  17
ENDBRANCH   2  16
TORSDOF 3
ENDMDL
MODEL 5
REMARK VINA RESULT:      -8.7      1.625      2.699
REMARK  3 active torsions:
REMARK  status: ('A' for Active; 'I' for Inactive)
REMARK    1  A    between atoms: C1_7  and  N1_6 
REMARK       I    between atoms: C7_13  and  N1_6 
REMARK    2  A    between atoms: C1_7  and  C4_10 
REMARK    3  A    between atoms: C3_9  and  C7_13 
ROOT
HETATM    1  O2  UNK     1      17.466   2.012  29.401  1.00  0.00    -0.267 OA
HETATM    2  N1  UNK     1      19.309   3.096  30.331  1.00  0.00    -0.352 N 
HETATM    3  C7  UNK     1      18.547   1.994  29.986  1.00  0.00     0.258 C 
HETATM    4  H4  UNK     1      20.200   2.975  30.801  1.00  0.00     0.163 HD
ENDROOT
BRANCH   3   5
HETATM    5  C3  UNK     1      19.163   0.725  30.393  1.00  0.00     0.108 A 
HETATM    6  C6  UNK     1      19.029   0.389  31.681  1.00  0.00     0.037 A 
HETATM    7  C2  UNK     1      19.606  -0.849  32.180  1.00  0.00    -0.001 A 
HETATM    8  C5  UNK     1      20.295  -1.675  31.296  1.00  0.00     0.089 A 
HETATM    9  C9  UNK     1      19.490  -1.240  33.516  1.00  0.00     0.014 A 
HETATM   10  C12 UNK     1      20.870  -2.874  31.710  1.00  0.00     0.038 A 
HETATM   11  O1  UNK     1      20.432  -1.316  29.941  1.00  0.00    -0.274 OA
HETATM   12  C14 UNK     1      20.751  -3.256  33.045  1.00  0.00     0.003 A 
HETATM   13  C13 UNK     1      20.063  -2.441  33.946  1.00  0.00     0.001 A 
HETATM   14  C8  UNK     1      19.891  -0.137  29.436  1.00  0.00     0.304 A 
HETATM   15  O3  UNK     1      20.016   0.167  28.254  1.00  0.00    -0.259 OA
ENDBRANCH   3   5
BRANCH   2  16
HETATM   16  C1  UNK     1      18.910   4.453  30.032  1.00  0.00     0.161 C 
BRANCH  16  17
HETATM   17  C4  UNK     1      19.008   5.345  31.236  1.00  0.00    -0.039 A 
HETATM   18  C10 UNK     1      17.859   5.668  31.949  1.00  0.00     0.034 A 
HETATM   19  C15 UNK     1      17.951   6.495  33.068  1.00  0.00     0.056 A 
HETATM   20 Cl1  UNK     1      16.492   6.865  33.920  1.00  0.00    -0.083 Cl
HETATM   21  C17 UNK     1      19.191   6.995  33.466  1.00  0.00     0.055 A 
HETATM   22  C16 UNK     1      20.339   6.667  32.745  1.00  0.00     0.026 A 
HETATM   23 Cl2  UNK     1      19.369   8.027  34.842  1.00  0.00    -0.083 Cl
HETATM   24  C11 UNK     1      20.247   5.839  31.627  1.00  0.00     0.010 A 
ENDBRANCH  16  17
ENDBRANCH   2  16
TORSDOF 3
ENDMDL
MODEL 6
REMARK VINA RESULT:      -8.7      7.037     10.631
REMARK  3 active torsions:
REMARK  status: ('A' for Active; 'I' for Inactive)
REMARK    1  A    between atoms: C1_7  and  N1_6 
REMARK       I    between atoms: C7_13  and  N1_6 
REMARK    2  A    between atoms: C1_7  and  C4_10 
REMARK    3  A    between atoms: C3_9  and  C7_13 
ROOT
HETATM    1  O2  UNK     1      20.145  -1.354  35.463  1.00  0.00    -0.267 OA
HETATM    2  N1  UNK     1      19.863  -3.617  34.979  1.00  0.00    -0.352 N 
HETATM    3  C7  UNK     1      20.049  -2.283  34.664  1.00  0.00     0.258 C 
HETATM    4  H4  UNK     1      19.812  -4.314  34.243  1.00  0.00     0.163 HD
ENDROOT
BRANCH   3   5
HETATM    5  C3  UNK     1      20.130  -2.044  33.218  1.00  0.00     0.108 A 
HETATM    6  C6  UNK     1      19.580  -0.907  32.775  1.00  0.00     0.037 A 
HETATM    7  C2  UNK     1      19.609  -0.583  31.357  1.00  0.00    -0.001 A 
HETATM    8  C5  UNK     1      20.218  -1.471  30.475  1.00  0.00     0.089 A 
HETATM    9  C9  UNK     1      19.049   0.592  30.850  1.00  0.00     0.014 A 
HETATM   10  C12 UNK     1      20.280  -1.220  29.107  1.00  0.00     0.038 A 
HETATM   11  O1  UNK     1      20.795  -2.666  30.949  1.00  0.00    -0.274 OA
HETATM   12  C14 UNK     1      19.717  -0.045  28.609  1.00  0.00     0.003 A 
HETATM   13  C13 UNK     1      19.103   0.858  29.479  1.00  0.00     0.001 A 
HETATM   14  C8  UNK     1      20.782  -3.003  32.298  1.00  0.00     0.304 A 
HETATM   15  O3  UNK     1      21.286  -4.046  32.701  1.00  0.00    -0.259 OA
ENDBRANCH   3   5
BRANCH   2  16
HETATM   16  C1  UNK     1      19.756  -4.098  36.338  1.00  0.00     0.161 C 
BRANCH  16  17
HETATM   17  C4  UNK     1      19.893  -5.591  36.418  1.00  0.00    -0.039 A 
HETATM   18  C10 UNK     1      19.823  -6.223  37.654  1.00  0.00     0.034 A 
HETATM   19  C15 UNK     1      19.950  -7.610  37.727  1.00  0.00     0.056 A 
HETATM   20 Cl1  UNK     1      19.854  -8.348  39.288  1.00  0.00    -0.083 Cl
HETATM   21  C17 UNK     1      20.147  -8.355  36.564  1.00  0.00     0.055 A 
HETATM   22  C16 UNK     1      20.218  -7.713  35.328  1.00  0.00     0.026 A 
HETATM   23 Cl2  UNK     1      20.314 -10.076  36.591  1.00  0.00    -0.083 Cl
HETATM   24  C11 UNK     1      20.089  -6.326  35.255  1.00  0.00     0.010 A 
ENDBRANCH  16  17
ENDBRANCH   2  16
TORSDOF 3
ENDMDL
MODEL 7
REMARK VINA RESULT:      -8.5      3.367      7.959
REMARK  3 active torsions:
REMARK  status: ('A' for Active; 'I' for Inactive)
REMARK    1  A    between atoms: C1_7  and  N1_6 
REMARK       I    between atoms: C7_13  and  N1_6 
REMARK    2  A    between atoms: C1_7  and  C4_10 
REMARK    3  A    between atoms: C3_9  and  C7_13 
ROOT
HETATM    1  O2  UNK     1      19.887   4.782  30.220  1.00  0.00    -0.267 OA
HETATM    2  N1  UNK     1      18.254   3.160  30.590  1.00  0.00    -0.352 N 
HETATM    3  C7  UNK     1      18.907   4.356  30.827  1.00  0.00     0.258 C 
HETATM    4  H4  UNK     1      17.440   2.904  31.139  1.00  0.00     0.163 HD
ENDROOT
BRANCH   3   5
HETATM    5  C3  UNK     1      18.304   5.128  31.921  1.00  0.00     0.108 A 
HETATM    6  C6  UNK     1      17.839   6.342  31.602  1.00  0.00     0.037 A 
HETATM    7  C2  UNK     1      17.225   7.182  32.618  1.00  0.00    -0.001 A 
HETATM    8  C5  UNK     1      17.129   6.702  33.921  1.00  0.00     0.089 A 
HETATM    9  C9  UNK     1      16.726   8.455  32.330  1.00  0.00     0.014 A 
HETATM   10  C12 UNK     1      16.553   7.457  34.940  1.00  0.00     0.038 A 
HETATM   11  O1  UNK     1      17.620   5.423  34.250  1.00  0.00    -0.274 OA
HETATM   12  C14 UNK     1      16.058   8.726  34.645  1.00  0.00     0.003 A 
HETATM   13  C13 UNK     1      16.144   9.223  33.343  1.00  0.00     0.001 A 
HETATM   14  C8  UNK     1      18.213   4.598  33.299  1.00  0.00     0.304 A 
HETATM   15  O3  UNK     1      18.638   3.486  33.596  1.00  0.00    -0.259 OA
ENDBRANCH   3   5
BRANCH   2  16
HETATM   16  C1  UNK     1      18.663   2.230  29.561  1.00  0.00     0.161 C 
BRANCH  16  17
HETATM   17  C4  UNK     1      19.208   0.956  30.139  1.00  0.00    -0.039 A 
HETATM   18  C10 UNK     1      18.808   0.550  31.407  1.00  0.00     0.034 A 
HETATM   19  C15 UNK     1      19.314  -0.634  31.944  1.00  0.00     0.056 A 
HETATM   20 Cl1  UNK     1      18.784  -1.095  33.524  1.00  0.00    -0.083 Cl
HETATM   21  C17 UNK     1      20.217  -1.403  31.209  1.00  0.00     0.055 A 
HETATM   22  C16 UNK     1      20.614  -0.987  29.938  1.00  0.00     0.026 A 
HETATM   23 Cl2  UNK     1      20.881  -2.877  31.820  1.00  0.00    -0.083 Cl
HETATM   24  C11 UNK     1      20.107   0.195  29.401  1.00  0.00     0.010 A 
ENDBRANCH  16  17
ENDBRANCH   2  16
TORSDOF 3
ENDMDL
MODEL 8
REMARK VINA RESULT:      -8.4      2.903      4.001
REMARK  3 active torsions:
REMARK  status: ('A' for Active; 'I' for Inactive)
REMARK    1  A    between atoms: C1_7  and  N1_6 
REMARK       I    between atoms: C7_13  and  N1_6 
REMARK    2  A    between atoms: C1_7  and  C4_10 
REMARK    3  A    between atoms: C3_9  and  C7_13 
ROOT
HETATM    1  O2  UNK     1      18.017   2.259  30.899  1.00  0.00    -0.267 OA
HETATM    2  N1  UNK     1      18.421   3.970  32.431  1.00  0.00    -0.352 N 
HETATM    3  C7  UNK     1      18.216   2.658  32.045  1.00  0.00     0.258 C 
HETATM    4  H4  UNK     1      18.593   4.196  33.405  1.00  0.00     0.163 HD
ENDROOT
BRANCH   3   5
HETATM    5  C3  UNK     1      18.257   1.718  33.173  1.00  0.00     0.108 A 
HETATM    6  C6  UNK     1      17.913   2.213  34.367  1.00  0.00     0.037 A 
HETATM    7  C2  UNK     1      17.924   1.360  35.545  1.00  0.00    -0.001 A 
HETATM    8  C5  UNK     1      18.296   0.026  35.407  1.00  0.00     0.089 A 
HETATM    9  C9  UNK     1      17.573   1.833  36.811  1.00  0.00     0.014 A 
HETATM   10  C12 UNK     1      18.327  -0.844  36.495  1.00  0.00     0.038 A 
HETATM   11  O1  UNK     1      18.656  -0.489  34.146  1.00  0.00    -0.274 OA
HETATM   12  C14 UNK     1      17.976  -0.363  37.755  1.00  0.00     0.003 A 
HETATM   13  C13 UNK     1      17.599   0.972  37.912  1.00  0.00     0.001 A 
HETATM   14  C8  UNK     1      18.656   0.303  33.002  1.00  0.00     0.304 A 
HETATM   15  O3  UNK     1      18.972  -0.154  31.909  1.00  0.00    -0.259 OA
ENDBRANCH   3   5
BRANCH   2  16
HETATM   16  C1  UNK     1      18.428   5.074  31.497  1.00  0.00     0.161 C 
BRANCH  16  17
HETATM   17  C4  UNK     1      18.135   6.382  32.172  1.00  0.00    -0.039 A 
HETATM   18  C10 UNK     1      19.108   6.981  32.964  1.00  0.00     0.034 A 
HETATM   19  C15 UNK     1      18.835   8.197  33.590  1.00  0.00     0.056 A 
HETATM   20 Cl1  UNK     1      20.080   8.900  34.563  1.00  0.00    -0.083 Cl
HETATM   21  C17 UNK     1      17.591   8.805  33.422  1.00  0.00     0.055 A 
HETATM   22  C16 UNK     1      16.620   8.197  32.626  1.00  0.00     0.026 A 
HETATM   23 Cl2  UNK     1      17.193  10.310  34.173  1.00  0.00    -0.083 Cl
HETATM   24  C11 UNK     1      16.893   6.982  31.999  1.00  0.00     0.010 A 
ENDBRANCH  16  17
ENDBRANCH   2  16
TORSDOF 3
ENDMDL
MODEL 9
REMARK VINA RESULT:      -8.4     12.609     15.202
REMARK  3 active torsions:
REMARK  status: ('A' for Active; 'I' for Inactive)
REMARK    1  A    between atoms: C1_7  and  N1_6 
REMARK       I    between atoms: C7_13  and  N1_6 
REMARK    2  A    between atoms: C1_7  and  C4_10 
REMARK    3  A    between atoms: C3_9  and  C7_13 
ROOT
HETATM    1  O2  UNK     1      25.900  -9.027  38.090  1.00  0.00    -0.267 OA
HETATM    2  N1  UNK     1      24.685  -7.369  39.189  1.00  0.00    -0.352 N 
HETATM    3  C7  UNK     1      25.809  -7.908  38.589  1.00  0.00     0.258 C 
HETATM    4  H4  UNK     1      24.705  -6.425  39.560  1.00  0.00     0.163 HD
ENDROOT
BRANCH   3   5
HETATM    5  C3  UNK     1      26.953  -6.988  38.592  1.00  0.00     0.108 A 
HETATM    6  C6  UNK     1      28.162  -7.547  38.464  1.00  0.00     0.037 A 
HETATM    7  C2  UNK     1      29.357  -6.718  38.457  1.00  0.00    -0.001 A 
HETATM    8  C5  UNK     1      29.220  -5.339  38.584  1.00  0.00     0.089 A 
HETATM    9  C9  UNK     1      30.638  -7.259  38.325  1.00  0.00     0.014 A 
HETATM   10  C12 UNK     1      30.324  -4.489  38.584  1.00  0.00     0.038 A 
HETATM   11  O1  UNK     1      27.944  -4.756  38.718  1.00  0.00    -0.274 OA
HETATM   12  C14 UNK     1      31.599  -5.036  38.453  1.00  0.00     0.003 A 
HETATM   13  C13 UNK     1      31.755  -6.418  38.324  1.00  0.00     0.001 A 
HETATM   14  C8  UNK     1      26.784  -5.524  38.728  1.00  0.00     0.304 A 
HETATM   15  O3  UNK     1      25.678  -5.007  38.847  1.00  0.00    -0.259 OA
ENDBRANCH   3   5
BRANCH   2  16
HETATM   16  C1  UNK     1      23.434  -8.085  39.304  1.00  0.00     0.161 C 
BRANCH  16  17
HETATM   17  C4  UNK     1      22.534  -7.835  38.128  1.00  0.00    -0.039 A 
HETATM   18  C10 UNK     1      22.478  -8.764  37.096  1.00  0.00     0.034 A 
HETATM   19  C15 UNK     1      21.641  -8.532  36.004  1.00  0.00     0.056 A 
HETATM   20 Cl1  UNK     1      21.607  -9.719  34.747  1.00  0.00    -0.083 Cl
HETATM   21  C17 UNK     1      20.868  -7.372  35.952  1.00  0.00     0.055 A 
HETATM   22  C16 UNK     1      20.931  -6.445  36.992  1.00  0.00     0.026 A 
HETATM   23 Cl2  UNK     1      19.814  -7.028  34.625  1.00  0.00    -0.083 Cl
HETATM   24  C11 UNK     1      21.766  -6.677  38.083  1.00  0.00     0.010 A 
ENDBRANCH  16  17
ENDBRANCH   2  16
TORSDOF 3
ENDMDL
MODEL 10
REMARK VINA RESULT:      -8.3      7.391     10.193
REMARK  3 active torsions:
REMARK  status: ('A' for Active; 'I' for Inactive)
REMARK    1  A    between atoms: C1_7  and  N1_6 
REMARK       I    between atoms: C7_13  and  N1_6 
REMARK    2  A    between atoms: C1_7  and  C4_10 
REMARK    3  A    between atoms: C3_9  and  C7_13 
ROOT
HETATM    1  O2  UNK     1      21.080  -3.942  37.878  1.00  0.00    -0.267 OA
HETATM    2  N1  UNK     1      19.251  -3.755  36.445  1.00  0.00    -0.352 N 
HETATM    3  C7  UNK     1      20.214  -4.441  37.164  1.00  0.00     0.258 C 
HETATM    4  H4  UNK     1      18.566  -4.262  35.894  1.00  0.00     0.163 HD
ENDROOT
BRANCH   3   5
HETATM    5  C3  UNK     1      20.117  -5.897  37.001  1.00  0.00     0.108 A 
HETATM    6  C6  UNK     1      19.967  -6.609  38.124  1.00  0.00     0.037 A 
HETATM    7  C2  UNK     1      19.864  -8.058  38.066  1.00  0.00    -0.001 A 
HETATM    8  C5  UNK     1      19.922  -8.688  36.826  1.00  0.00     0.089 A 
HETATM    9  C9  UNK     1      19.706  -8.841  39.212  1.00  0.00     0.014 A 
HETATM   10  C12 UNK     1      19.829 -10.072  36.701  1.00  0.00     0.038 A 
HETATM   11  O1  UNK     1      20.080  -7.933  35.647  1.00  0.00    -0.274 OA
HETATM   12  C14 UNK     1      19.672 -10.846  37.850  1.00  0.00     0.003 A 
HETATM   13  C13 UNK     1      19.611 -10.231  39.102  1.00  0.00     0.001 A 
HETATM   14  C8  UNK     1      20.182  -6.545  35.672  1.00  0.00     0.304 A 
HETATM   15  O3  UNK     1      20.320  -5.897  34.640  1.00  0.00    -0.259 OA
ENDBRANCH   3   5
BRANCH   2  16
HETATM   16  C1  UNK     1      19.143  -2.314  36.449  1.00  0.00     0.161 C 
BRANCH  16  17
HETATM   17  C4  UNK     1      19.161  -1.746  35.060  1.00  0.00    -0.039 A 
HETATM   18  C10 UNK     1      19.909  -2.372  34.070  1.00  0.00     0.034 A 
HETATM   19  C15 UNK     1      19.926  -1.844  32.779  1.00  0.00     0.056 A 
HETATM   20 Cl1  UNK     1      20.871  -2.663  31.584  1.00  0.00    -0.083 Cl
HETATM   21  C17 UNK     1      19.194  -0.693  32.487  1.00  0.00     0.055 A 
HETATM   22  C16 UNK     1      18.447  -0.069  33.486  1.00  0.00     0.026 A 
HETATM   23 Cl2  UNK     1      19.176   0.010  30.908  1.00  0.00    -0.083 Cl
HETATM   24  C11 UNK     1      18.430  -0.597  34.776  1.00  0.00     0.010 A 
ENDBRANCH  16  17
ENDBRANCH   2  16
TORSDOF 3
ENDMDL
