MODEL 1
REMARK VINA RESULT:      -9.0      0.000      0.000
REMARK  2 active torsions:
REMARK  status: ('A' for Active; 'I' for Inactive)
REMARK    1  A    between atoms: C1_5  and  C4_8 
REMARK    2  A    between atoms: C6_10  and  C7_11 
ROOT
HETATM    1  O1  UNK     1      17.202   4.578  32.218  1.00  0.00    -0.356 OA
HETATM    2  O2  UNK     1      18.632   5.149  30.429  1.00  0.00    -0.356 OA
HETATM    3  C1  UNK     1      17.404   6.968  31.584  1.00  0.00     0.026 C 
HETATM    4  C2  UNK     1      16.539   5.842  32.210  1.00  0.00     0.187 C 
HETATM    5  C3  UNK     1      18.077   6.456  30.284  1.00  0.00     0.187 C 
HETATM    6  C5  UNK     1      16.435   8.105  31.172  1.00  0.00     0.025 C 
HETATM    7  C6  UNK     1      17.656   4.229  30.913  1.00  0.00     0.300 C 
ENDROOT
BRANCH   7   8
HETATM    8  C7  UNK     1      18.288   2.881  30.989  1.00  0.00     0.070 A 
HETATM    9  C10 UNK     1      18.615   2.180  29.722  1.00  0.00     0.198 A 
HETATM   10  O4  UNK     1      18.385   2.674  28.625  1.00  0.00    -0.287 OA
HETATM   11  C14 UNK     1      19.238   0.850  29.852  1.00  0.00     0.049 A 
HETATM   12  C16 UNK     1      19.478   0.336  31.127  1.00  0.00     0.089 A 
HETATM   13  C17 UNK     1      19.585   0.110  28.719  1.00  0.00     0.018 A 
HETATM   14  O3  UNK     1      19.159   1.019  32.273  1.00  0.00    -0.321 OA
HETATM   15  C18 UNK     1      20.067  -0.920  31.275  1.00  0.00     0.038 A 
HETATM   16  C13 UNK     1      18.580   2.257  32.136  1.00  0.00     0.158 A 
HETATM   17  C20 UNK     1      20.413  -1.660  30.145  1.00  0.00     0.003 A 
HETATM   18  C19 UNK     1      20.173  -1.147  28.870  1.00  0.00     0.001 A 
ENDBRANCH   7   8
BRANCH   3  19
HETATM   19  C4  UNK     1      18.476   7.447  32.593  1.00  0.00    -0.046 A 
HETATM   20  C8  UNK     1      19.700   6.791  32.660  1.00  0.00     0.008 A 
HETATM   21  C11 UNK     1      20.666   7.223  33.568  1.00  0.00     0.001 A 
HETATM   22  C15 UNK     1      20.402   8.308  34.404  1.00  0.00     0.000 A 
HETATM   23  C12 UNK     1      19.171   8.961  34.332  1.00  0.00     0.001 A 
HETATM   24  C9  UNK     1      18.206   8.529  33.424  1.00  0.00     0.008 A 
ENDBRANCH   3  19
TORSDOF 2
ENDMDL
MODEL 2
REMARK VINA RESULT:      -8.8     11.874     15.223
REMARK  2 active torsions:
REMARK  status: ('A' for Active; 'I' for Inactive)
REMARK    1  A    between atoms: C1_5  and  C4_8 
REMARK    2  A    between atoms: C6_10  and  C7_11 
ROOT
HETATM    1  O1  UNK     1      23.453  -7.141  39.453  1.00  0.00    -0.356 OA
HETATM    2  O2  UNK     1      24.126  -8.149  37.427  1.00  0.00    -0.356 OA
HETATM    3  C1  UNK     1      21.782  -8.456  38.177  1.00  0.00     0.026 C 
HETATM    4  C2  UNK     1      22.263  -7.923  39.552  1.00  0.00     0.187 C 
HETATM    5  C3  UNK     1      22.988  -9.008  37.372  1.00  0.00     0.187 C 
HETATM    6  C5  UNK     1      20.844  -9.656  38.462  1.00  0.00     0.025 C 
HETATM    7  C6  UNK     1      24.484  -7.857  38.777  1.00  0.00     0.300 C 
ENDROOT
BRANCH   7   8
HETATM    8  C7  UNK     1      25.705  -7.004  38.758  1.00  0.00     0.070 A 
HETATM    9  C10 UNK     1      27.026  -7.661  38.599  1.00  0.00     0.198 A 
HETATM   10  O4  UNK     1      27.141  -8.874  38.482  1.00  0.00    -0.287 OA
HETATM   11  C14 UNK     1      28.202  -6.771  38.588  1.00  0.00     0.049 A 
HETATM   12  C16 UNK     1      28.013  -5.396  38.725  1.00  0.00     0.089 A 
HETATM   13  C17 UNK     1      29.490  -7.293  38.443  1.00  0.00     0.018 A 
HETATM   14  O3  UNK     1      26.772  -4.830  38.870  1.00  0.00    -0.321 OA
HETATM   15  C18 UNK     1      29.111  -4.534  38.717  1.00  0.00     0.038 A 
HETATM   16  C13 UNK     1      25.686  -5.670  38.878  1.00  0.00     0.158 A 
HETATM   17  C20 UNK     1      30.397  -5.054  38.572  1.00  0.00     0.003 A 
HETATM   18  C19 UNK     1      30.587  -6.430  38.436  1.00  0.00     0.001 A 
ENDBRANCH   7   8
BRANCH   3  19
HETATM   19  C4  UNK     1      21.073  -7.333  37.382  1.00  0.00    -0.046 A 
HETATM   20  C8  UNK     1      20.753  -7.533  36.044  1.00  0.00     0.008 A 
HETATM   21  C11 UNK     1      20.114  -6.521  35.327  1.00  0.00     0.001 A 
HETATM   22  C15 UNK     1      19.799  -5.315  35.953  1.00  0.00     0.000 A 
HETATM   23  C12 UNK     1      20.124  -5.121  37.297  1.00  0.00     0.001 A 
HETATM   24  C9  UNK     1      20.763  -6.133  38.012  1.00  0.00     0.008 A 
ENDBRANCH   3  19
TORSDOF 2
ENDMDL
MODEL 3
REMARK VINA RESULT:      -8.7      7.412     12.432
REMARK  2 active torsions:
REMARK  status: ('A' for Active; 'I' for Inactive)
REMARK    1  A    between atoms: C1_5  and  C4_8 
REMARK    2  A    between atoms: C6_10  and  C7_11 
ROOT
HETATM    1  O1  UNK     1      19.550  -5.343  37.633  1.00  0.00    -0.356 OA
HETATM    2  O2  UNK     1      21.765  -4.617  37.261  1.00  0.00    -0.356 OA
HETATM    3  C1  UNK     1      21.411  -6.800  38.384  1.00  0.00     0.026 C 
HETATM    4  C2  UNK     1      19.940  -6.346  38.571  1.00  0.00     0.187 C 
HETATM    5  C3  UNK     1      22.324  -5.563  38.171  1.00  0.00     0.187 C 
HETATM    6  C5  UNK     1      21.852  -7.461  39.714  1.00  0.00     0.025 C 
HETATM    7  C6  UNK     1      20.449  -4.237  37.660  1.00  0.00     0.300 C 
ENDROOT
BRANCH   7   8
HETATM    8  C7  UNK     1      19.952  -3.214  36.698  1.00  0.00     0.070 A 
HETATM    9  C10 UNK     1      19.144  -2.083  37.222  1.00  0.00     0.198 A 
HETATM   10  O4  UNK     1      18.879  -1.968  38.411  1.00  0.00    -0.287 OA
HETATM   11  C14 UNK     1      18.675  -1.099  36.229  1.00  0.00     0.049 A 
HETATM   12  C16 UNK     1      19.007  -1.280  34.886  1.00  0.00     0.089 A 
HETATM   13  C17 UNK     1      17.909   0.001  36.622  1.00  0.00     0.018 A 
HETATM   14  O3  UNK     1      19.757  -2.341  34.444  1.00  0.00    -0.321 OA
HETATM   15  C18 UNK     1      18.575  -0.362  33.928  1.00  0.00     0.038 A 
HETATM   16  C13 UNK     1      20.187  -3.249  35.380  1.00  0.00     0.158 A 
HETATM   17  C20 UNK     1      17.809   0.737  34.319  1.00  0.00     0.003 A 
HETATM   18  C19 UNK     1      17.477   0.918  35.662  1.00  0.00     0.001 A 
ENDBRANCH   7   8
BRANCH   3  19
HETATM   19  C4  UNK     1      21.527  -7.768  37.181  1.00  0.00    -0.046 A 
HETATM   20  C8  UNK     1      22.354  -8.881  37.271  1.00  0.00     0.008 A 
HETATM   21  C11 UNK     1      22.458  -9.754  36.187  1.00  0.00     0.001 A 
HETATM   22  C15 UNK     1      21.736  -9.506  35.021  1.00  0.00     0.000 A 
HETATM   23  C12 UNK     1      20.908  -8.385  34.937  1.00  0.00     0.001 A 
HETATM   24  C9  UNK     1      20.805  -7.514  36.021  1.00  0.00     0.008 A 
ENDBRANCH   3  19
TORSDOF 2
ENDMDL
MODEL 4
REMARK VINA RESULT:      -8.6     14.840     16.911
REMARK  2 active torsions:
REMARK  status: ('A' for Active; 'I' for Inactive)
REMARK    1  A    between atoms: C1_5  and  C4_8 
REMARK    2  A    between atoms: C6_10  and  C7_11 
ROOT
HETATM    1  O1  UNK     1      27.993  -8.867  36.438  1.00  0.00    -0.356 OA
HETATM    2  O2  UNK     1      27.641  -9.344  38.723  1.00  0.00    -0.356 OA
HETATM    3  C1  UNK     1      29.945  -8.817  37.969  1.00  0.00     0.026 C 
HETATM    4  C2  UNK     1      29.408  -9.032  36.529  1.00  0.00     0.187 C 
HETATM    5  C3  UNK     1      29.029  -9.545  38.988  1.00  0.00     0.187 C 
HETATM    6  C5  UNK     1      31.332  -9.502  38.041  1.00  0.00     0.025 C 
HETATM    7  C6  UNK     1      27.319  -9.699  37.380  1.00  0.00     0.300 C 
ENDROOT
BRANCH   7   8
HETATM    8  C7  UNK     1      25.852  -9.514  37.192  1.00  0.00     0.070 A 
HETATM    9  C10 UNK     1      25.094 -10.562  36.463  1.00  0.00     0.198 A 
HETATM   10  O4  UNK     1      25.635 -11.567  36.018  1.00  0.00    -0.287 OA
HETATM   11  C14 UNK     1      23.647 -10.331  36.303  1.00  0.00     0.049 A 
HETATM   12  C16 UNK     1      23.084  -9.168  36.831  1.00  0.00     0.089 A 
HETATM   13  C17 UNK     1      22.845 -11.259  35.634  1.00  0.00     0.018 A 
HETATM   14  O3  UNK     1      23.822  -8.224  37.498  1.00  0.00    -0.321 OA
HETATM   15  C18 UNK     1      21.716  -8.928  36.692  1.00  0.00     0.038 A 
HETATM   16  C13 UNK     1      25.169  -8.453  37.640  1.00  0.00     0.158 A 
HETATM   17  C20 UNK     1      20.915  -9.854  36.024  1.00  0.00     0.003 A 
HETATM   18  C19 UNK     1      21.478 -11.016  35.496  1.00  0.00     0.001 A 
ENDBRANCH   7   8
BRANCH   3  19
HETATM   19  C4  UNK     1      30.019  -7.305  38.297  1.00  0.00    -0.046 A 
HETATM   20  C8  UNK     1      31.205  -6.612  38.084  1.00  0.00     0.008 A 
HETATM   21  C11 UNK     1      31.272  -5.250  38.378  1.00  0.00     0.001 A 
HETATM   22  C15 UNK     1      30.152  -4.591  38.884  1.00  0.00     0.000 A 
HETATM   23  C12 UNK     1      28.965  -5.293  39.096  1.00  0.00     0.001 A 
HETATM   24  C9  UNK     1      28.899  -6.654  38.801  1.00  0.00     0.008 A 
ENDBRANCH   3  19
TORSDOF 2
ENDMDL
MODEL 5
REMARK VINA RESULT:      -8.4     12.130     15.081
REMARK  2 active torsions:
REMARK  status: ('A' for Active; 'I' for Inactive)
REMARK    1  A    between atoms: C1_5  and  C4_8 
REMARK    2  A    between atoms: C6_10  and  C7_11 
ROOT
HETATM    1  O1  UNK     1      23.538  -5.988  38.452  1.00  0.00    -0.356 OA
HETATM    2  O2  UNK     1      23.338  -8.319  38.771  1.00  0.00    -0.356 OA
HETATM    3  C1  UNK     1      21.266  -6.981  38.509  1.00  0.00     0.026 C 
HETATM    4  C2  UNK     1      22.164  -5.739  38.747  1.00  0.00     0.187 C 
HETATM    5  C3  UNK     1      21.950  -8.247  39.090  1.00  0.00     0.187 C 
HETATM    6  C5  UNK     1      19.965  -6.760  39.321  1.00  0.00     0.025 C 
HETATM    7  C6  UNK     1      24.017  -7.127  39.162  1.00  0.00     0.300 C 
ENDROOT
BRANCH   7   8
HETATM    8  C7  UNK     1      25.464  -7.294  38.847  1.00  0.00     0.070 A 
HETATM    9  C10 UNK     1      26.341  -6.097  38.891  1.00  0.00     0.198 A 
HETATM   10  O4  UNK     1      25.914  -4.986  39.179  1.00  0.00    -0.287 OA
HETATM   11  C14 UNK     1      27.763  -6.316  38.570  1.00  0.00     0.049 A 
HETATM   12  C16 UNK     1      28.195  -7.603  38.249  1.00  0.00     0.089 A 
HETATM   13  C17 UNK     1      28.670  -5.253  38.585  1.00  0.00     0.018 A 
HETATM   14  O3  UNK     1      27.350  -8.683  38.219  1.00  0.00    -0.321 OA
HETATM   15  C18 UNK     1      29.537  -7.834  37.941  1.00  0.00     0.038 A 
HETATM   16  C13 UNK     1      26.028  -8.464  38.521  1.00  0.00     0.158 A 
HETATM   17  C20 UNK     1      30.443  -6.774  37.956  1.00  0.00     0.003 A 
HETATM   18  C19 UNK     1      30.011  -5.487  38.276  1.00  0.00     0.001 A 
ENDBRANCH   7   8
BRANCH   3  19
HETATM   19  C4  UNK     1      20.990  -7.165  36.997  1.00  0.00    -0.046 A 
HETATM   20  C8  UNK     1      21.450  -8.305  36.347  1.00  0.00     0.008 A 
HETATM   21  C11 UNK     1      21.201  -8.471  34.984  1.00  0.00     0.001 A 
HETATM   22  C15 UNK     1      20.495  -7.496  34.281  1.00  0.00     0.000 A 
HETATM   23  C12 UNK     1      20.037  -6.354  34.939  1.00  0.00     0.001 A 
HETATM   24  C9  UNK     1      20.286  -6.189  36.302  1.00  0.00     0.008 A 
ENDBRANCH   3  19
TORSDOF 2
ENDMDL
MODEL 6
REMARK VINA RESULT:      -8.4     13.443     15.808
REMARK  2 active torsions:
REMARK  status: ('A' for Active; 'I' for Inactive)
REMARK    1  A    between atoms: C1_5  and  C4_8 
REMARK    2  A    between atoms: C6_10  and  C7_11 
ROOT
HETATM    1  O1  UNK     1      26.232  -8.140  37.041  1.00  0.00    -0.356 OA
HETATM    2  O2  UNK     1      26.353  -8.147  39.398  1.00  0.00    -0.356 OA
HETATM    3  C1  UNK     1      28.458  -8.387  38.107  1.00  0.00     0.026 C 
HETATM    4  C2  UNK     1      27.549  -8.667  36.881  1.00  0.00     0.187 C 
HETATM    5  C3  UNK     1      27.679  -8.674  39.419  1.00  0.00     0.187 C 
HETATM    6  C5  UNK     1      29.625  -9.405  38.045  1.00  0.00     0.025 C 
HETATM    7  C6  UNK     1      25.638  -8.602  38.252  1.00  0.00     0.300 C 
ENDROOT
BRANCH   7   8
HETATM    8  C7  UNK     1      24.253  -8.057  38.324  1.00  0.00     0.070 A 
HETATM    9  C10 UNK     1      23.218  -8.632  37.428  1.00  0.00     0.198 A 
HETATM   10  O4  UNK     1      23.467  -9.534  36.640  1.00  0.00    -0.287 OA
HETATM   11  C14 UNK     1      21.865  -8.056  37.538  1.00  0.00     0.049 A 
HETATM   12  C16 UNK     1      21.638  -7.028  38.454  1.00  0.00     0.089 A 
HETATM   13  C17 UNK     1      20.821  -8.530  36.739  1.00  0.00     0.018 A 
HETATM   14  O3  UNK     1      22.624  -6.526  39.264  1.00  0.00    -0.321 OA
HETATM   15  C18 UNK     1      20.365  -6.469  38.576  1.00  0.00     0.038 A 
HETATM   16  C13 UNK     1      23.879  -7.072  39.150  1.00  0.00     0.158 A 
HETATM   17  C20 UNK     1      19.322  -6.940  37.779  1.00  0.00     0.003 A 
HETATM   18  C19 UNK     1      19.549  -7.968  36.863  1.00  0.00     0.001 A 
ENDBRANCH   7   8
BRANCH   3  19
HETATM   19  C4  UNK     1      28.955  -6.921  38.087  1.00  0.00    -0.046 A 
HETATM   20  C8  UNK     1      28.721  -6.099  39.183  1.00  0.00     0.008 A 
HETATM   21  C11 UNK     1      29.169  -4.778  39.165  1.00  0.00     0.001 A 
HETATM   22  C15 UNK     1      29.848  -4.288  38.050  1.00  0.00     0.000 A 
HETATM   23  C12 UNK     1      30.080  -5.119  36.952  1.00  0.00     0.001 A 
HETATM   24  C9  UNK     1      29.631  -6.439  36.972  1.00  0.00     0.008 A 
ENDBRANCH   3  19
TORSDOF 2
ENDMDL
MODEL 7
REMARK VINA RESULT:      -8.4     14.242     17.499
REMARK  2 active torsions:
REMARK  status: ('A' for Active; 'I' for Inactive)
REMARK    1  A    between atoms: C1_5  and  C4_8 
REMARK    2  A    between atoms: C6_10  and  C7_11 
ROOT
HETATM    1  O1  UNK     1      29.961  -5.855  31.524  1.00  0.00    -0.356 OA
HETATM    2  O2  UNK     1      29.196  -7.694  32.791  1.00  0.00    -0.356 OA
HETATM    3  C1  UNK     1      28.003  -7.129  30.691  1.00  0.00     0.026 C 
HETATM    4  C2  UNK     1      28.769  -5.781  30.743  1.00  0.00     0.187 C 
HETATM    5  C3  UNK     1      27.945  -7.760  32.108  1.00  0.00     0.187 C 
HETATM    6  C5  UNK     1      26.544  -6.804  30.283  1.00  0.00     0.025 C 
HETATM    7  C6  UNK     1      29.689  -6.357  32.831  1.00  0.00     0.300 C 
ENDROOT
BRANCH   7   8
HETATM    8  C7  UNK     1      30.965  -6.356  33.601  1.00  0.00     0.070 A 
HETATM    9  C10 UNK     1      30.914  -6.064  35.055  1.00  0.00     0.198 A 
HETATM   10  O4  UNK     1      29.862  -5.828  35.636  1.00  0.00    -0.287 OA
HETATM   11  C14 UNK     1      32.204  -6.075  35.770  1.00  0.00     0.049 A 
HETATM   12  C16 UNK     1      33.371  -6.351  35.058  1.00  0.00     0.089 A 
HETATM   13  C17 UNK     1      32.262  -5.814  37.142  1.00  0.00     0.018 A 
HETATM   14  O3  UNK     1      33.373  -6.616  33.712  1.00  0.00    -0.321 OA
HETATM   15  C18 UNK     1      34.603  -6.367  35.714  1.00  0.00     0.038 A 
HETATM   16  C13 UNK     1      32.165  -6.603  33.060  1.00  0.00     0.158 A 
HETATM   17  C20 UNK     1      34.662  -6.106  37.083  1.00  0.00     0.003 A 
HETATM   18  C19 UNK     1      33.495  -5.830  37.795  1.00  0.00     0.001 A 
ENDBRANCH   7   8
BRANCH   3  19
HETATM   19  C4  UNK     1      28.688  -8.100  29.698  1.00  0.00    -0.046 A 
HETATM   20  C8  UNK     1      28.021  -9.247  29.286  1.00  0.00     0.008 A 
HETATM   21  C11 UNK     1      28.637 -10.121  28.390  1.00  0.00     0.001 A 
HETATM   22  C15 UNK     1      29.918  -9.842  27.914  1.00  0.00     0.000 A 
HETATM   23  C12 UNK     1      30.582  -8.689  28.332  1.00  0.00     0.001 A 
HETATM   24  C9  UNK     1      29.965  -7.815  29.227  1.00  0.00     0.008 A 
ENDBRANCH   3  19
TORSDOF 2
ENDMDL
MODEL 8
REMARK VINA RESULT:      -8.3     15.081     16.889
REMARK  2 active torsions:
REMARK  status: ('A' for Active; 'I' for Inactive)
REMARK    1  A    between atoms: C1_5  and  C4_8 
REMARK    2  A    between atoms: C6_10  and  C7_11 
ROOT
HETATM    1  O1  UNK     1      30.865  -7.368  32.526  1.00  0.00    -0.356 OA
HETATM    2  O2  UNK     1      29.255  -5.760  31.896  1.00  0.00    -0.356 OA
HETATM    3  C1  UNK     1      30.717  -6.720  30.136  1.00  0.00     0.026 C 
HETATM    4  C2  UNK     1      31.590  -7.254  31.302  1.00  0.00     0.187 C 
HETATM    5  C3  UNK     1      29.858  -5.523  30.624  1.00  0.00     0.187 C 
HETATM    6  C5  UNK     1      31.687  -6.169  29.061  1.00  0.00     0.025 C 
HETATM    7  C6  UNK     1      30.232  -6.136  32.865  1.00  0.00     0.300 C 
ENDROOT
BRANCH   7   8
HETATM    8  C7  UNK     1      29.542  -6.316  34.173  1.00  0.00     0.070 A 
HETATM    9  C10 UNK     1      30.249  -5.900  35.410  1.00  0.00     0.198 A 
HETATM   10  O4  UNK     1      31.374  -5.417  35.386  1.00  0.00    -0.287 OA
HETATM   11  C14 UNK     1      29.523  -6.100  36.677  1.00  0.00     0.049 A 
HETATM   12  C16 UNK     1      28.243  -6.655  36.645  1.00  0.00     0.089 A 
HETATM   13  C17 UNK     1      30.103  -5.740  37.897  1.00  0.00     0.018 A 
HETATM   14  O3  UNK     1      27.626  -7.026  35.478  1.00  0.00    -0.321 OA
HETATM   15  C18 UNK     1      27.537  -6.853  37.832  1.00  0.00     0.038 A 
HETATM   16  C13 UNK     1      28.314  -6.833  34.305  1.00  0.00     0.158 A 
HETATM   17  C20 UNK     1      28.115  -6.495  39.050  1.00  0.00     0.003 A 
HETATM   18  C19 UNK     1      29.395  -5.940  39.082  1.00  0.00     0.001 A 
ENDBRANCH   7   8
BRANCH   3  19
HETATM   19  C4  UNK     1      29.807  -7.845  29.585  1.00  0.00    -0.046 A 
HETATM   20  C8  UNK     1      30.307  -8.733  28.640  1.00  0.00     0.008 A 
HETATM   21  C11 UNK     1      29.488  -9.748  28.144  1.00  0.00     0.001 A 
HETATM   22  C15 UNK     1      28.174  -9.867  28.595  1.00  0.00     0.000 A 
HETATM   23  C12 UNK     1      27.678  -8.971  29.543  1.00  0.00     0.001 A 
HETATM   24  C9  UNK     1      28.498  -7.957  30.039  1.00  0.00     0.008 A 
ENDBRANCH   3  19
TORSDOF 2
ENDMDL
MODEL 9
REMARK VINA RESULT:      -8.2     15.883     17.679
REMARK  2 active torsions:
REMARK  status: ('A' for Active; 'I' for Inactive)
REMARK    1  A    between atoms: C1_5  and  C4_8 
REMARK    2  A    between atoms: C6_10  and  C7_11 
ROOT
HETATM    1  O1  UNK     1      30.257  -7.191  35.274  1.00  0.00    -0.356 OA
HETATM    2  O2  UNK     1      30.578  -9.528  35.355  1.00  0.00    -0.356 OA
HETATM    3  C1  UNK     1      31.102  -8.194  37.379  1.00  0.00     0.026 C 
HETATM    4  C2  UNK     1      31.029  -6.953  36.451  1.00  0.00     0.187 C 
HETATM    5  C3  UNK     1      31.374  -9.469  36.537  1.00  0.00     0.187 C 
HETATM    6  C5  UNK     1      32.329  -7.994  38.303  1.00  0.00     0.025 C 
HETATM    7  C6  UNK     1      30.726  -8.342  34.576  1.00  0.00     0.300 C 
ENDROOT
BRANCH   7   8
HETATM    8  C7  UNK     1      29.911  -8.496  33.338  1.00  0.00     0.070 A 
HETATM    9  C10 UNK     1      30.458  -9.316  32.228  1.00  0.00     0.198 A 
HETATM   10  O4  UNK     1      31.549  -9.866  32.301  1.00  0.00    -0.287 OA
HETATM   11  C14 UNK     1      29.613  -9.435  31.025  1.00  0.00     0.049 A 
HETATM   12  C16 UNK     1      28.378  -8.787  30.998  1.00  0.00     0.089 A 
HETATM   13  C17 UNK     1      30.038 -10.187  29.926  1.00  0.00     0.018 A 
HETATM   14  O3  UNK     1      27.911  -8.038  32.047  1.00  0.00    -0.321 OA
HETATM   15  C18 UNK     1      27.561  -8.886  29.870  1.00  0.00     0.038 A 
HETATM   16  C13 UNK     1      28.708  -7.936  33.161  1.00  0.00     0.158 A 
HETATM   17  C20 UNK     1      27.985  -9.635  28.772  1.00  0.00     0.003 A 
HETATM   18  C19 UNK     1      29.220 -10.284  28.800  1.00  0.00     0.001 A 
ENDBRANCH   7   8
BRANCH   3  19
HETATM   19  C4  UNK     1      29.784  -8.348  38.178  1.00  0.00    -0.046 A 
HETATM   20  C8  UNK     1      29.049  -7.218  38.517  1.00  0.00     0.008 A 
HETATM   21  C11 UNK     1      27.862  -7.356  39.235  1.00  0.00     0.001 A 
HETATM   22  C15 UNK     1      27.418  -8.623  39.611  1.00  0.00     0.000 A 
HETATM   23  C12 UNK     1      28.161  -9.753  39.269  1.00  0.00     0.001 A 
HETATM   24  C9  UNK     1      29.348  -9.614  38.550  1.00  0.00     0.008 A 
ENDBRANCH   3  19
TORSDOF 2
ENDMDL
MODEL 10
REMARK VINA RESULT:      -8.2      3.378      4.748
REMARK  2 active torsions:
REMARK  status: ('A' for Active; 'I' for Inactive)
REMARK    1  A    between atoms: C1_5  and  C4_8 
REMARK    2  A    between atoms: C6_10  and  C7_11 
ROOT
HETATM    1  O1  UNK     1      17.585   3.479  32.782  1.00  0.00    -0.356 OA
HETATM    2  O2  UNK     1      18.979   4.723  34.225  1.00  0.00    -0.356 OA
HETATM    3  C1  UNK     1      18.163   5.807  32.148  1.00  0.00     0.026 C 
HETATM    4  C2  UNK     1      17.759   4.381  31.689  1.00  0.00     0.187 C 
HETATM    5  C3  UNK     1      19.259   5.719  33.242  1.00  0.00     0.187 C 
HETATM    6  C5  UNK     1      18.802   6.510  30.925  1.00  0.00     0.025 C 
HETATM    7  C6  UNK     1      18.740   3.455  33.617  1.00  0.00     0.300 C 
ENDROOT
BRANCH   7   8
HETATM    8  C7  UNK     1      18.507   2.459  34.700  1.00  0.00     0.070 A 
HETATM    9  C10 UNK     1      18.508   1.017  34.348  1.00  0.00     0.198 A 
HETATM   10  O4  UNK     1      18.694   0.626  33.203  1.00  0.00    -0.287 OA
HETATM   11  C14 UNK     1      18.271   0.073  35.456  1.00  0.00     0.049 A 
HETATM   12  C16 UNK     1      18.065   0.575  36.741  1.00  0.00     0.089 A 
HETATM   13  C17 UNK     1      18.253  -1.306  35.227  1.00  0.00     0.018 A 
HETATM   14  O3  UNK     1      18.072   1.917  37.023  1.00  0.00    -0.321 OA
HETATM   15  C18 UNK     1      17.839  -0.300  37.805  1.00  0.00     0.038 A 
HETATM   16  C13 UNK     1      18.294   2.784  35.981  1.00  0.00     0.158 A 
HETATM   17  C20 UNK     1      17.821  -1.676  37.578  1.00  0.00     0.003 A 
HETATM   18  C19 UNK     1      18.027  -2.178  36.293  1.00  0.00     0.001 A 
ENDBRANCH   7   8
BRANCH   3  19
HETATM   19  C4  UNK     1      16.927   6.570  32.685  1.00  0.00    -0.046 A 
HETATM   20  C8  UNK     1      15.779   6.655  31.906  1.00  0.00     0.008 A 
HETATM   21  C11 UNK     1      14.665   7.342  32.389  1.00  0.00     0.001 A 
HETATM   22  C15 UNK     1      14.707   7.940  33.648  1.00  0.00     0.000 A 
HETATM   23  C12 UNK     1      15.864   7.852  34.425  1.00  0.00     0.001 A 
HETATM   24  C9  UNK     1      16.976   7.164  33.940  1.00  0.00     0.008 A 
ENDBRANCH   3  19
TORSDOF 2
ENDMDL
