MODEL 1
REMARK VINA RESULT:      -7.8      0.000      0.000
REMARK  2 active torsions:
REMARK  status: ('A' for Active; 'I' for Inactive)
REMARK    1  A    between atoms: C17_19  and  O2_2 
REMARK    2  A    between atoms: C10_12  and  C7_9 
ROOT
HETATM    1  O1  UNK     1      19.285   0.255  33.045  1.00  0.00    -0.287 OA
HETATM    2  C1  UNK     1      18.075   2.151  29.554  1.00  0.00     0.044 C 
HETATM    3  C2  UNK     1      18.516   3.017  30.728  1.00  0.00     0.047 C 
HETATM    4  C3  UNK     1      18.859   0.866  29.507  1.00  0.00    -0.044 A 
HETATM    5  C4  UNK     1      18.465   2.241  32.009  1.00  0.00    -0.006 C 
HETATM    6  C5  UNK     1      19.311   0.250  30.686  1.00  0.00     0.021 A 
HETATM    7  C6  UNK     1      19.039   0.864  32.011  1.00  0.00     0.189 C 
HETATM    8  C7  UNK     1      17.933   2.718  33.143  1.00  0.00     0.022 C 
HETATM    9  C8  UNK     1      19.097   0.240  28.275  1.00  0.00     0.008 A 
HETATM   10  C9  UNK     1      20.006  -0.963  30.625  1.00  0.00     0.016 A 
HETATM   11  C11 UNK     1      19.794  -0.967  28.219  1.00  0.00     0.001 A 
HETATM   12  C12 UNK     1      20.250  -1.566  29.391  1.00  0.00     0.001 A 
ENDROOT
BRANCH   8  13
HETATM   13  C10 UNK     1      17.873   1.995  34.376  1.00  0.00    -0.035 A 
HETATM   14  C13 UNK     1      16.925   0.975  34.567  1.00  0.00     0.014 A 
HETATM   15  C15 UNK     1      16.867   0.270  35.770  1.00  0.00     0.037 A 
HETATM   16  C17 UNK     1      17.756   0.575  36.801  1.00  0.00     0.068 A 
HETATM   17  C16 UNK     1      18.702   1.584  36.629  1.00  0.00     0.037 A 
HETATM   18  C14 UNK     1      18.760   2.289  35.427  1.00  0.00     0.014 A 
BRANCH  16  19
HETATM   19  O2  UNK     1      17.699  -0.113  37.974  1.00  0.00    -0.356 OA
HETATM   20  C18 UNK     1      18.167  -1.460  37.961  1.00  0.00     0.210 C 
ENDBRANCH  16  19
ENDBRANCH   8  13
TORSDOF 2
ENDMDL
MODEL 2
REMARK VINA RESULT:      -7.8      5.222      8.438
REMARK  2 active torsions:
REMARK  status: ('A' for Active; 'I' for Inactive)
REMARK    1  A    between atoms: C17_19  and  O2_2 
REMARK    2  A    between atoms: C10_12  and  C7_9 
ROOT
HETATM    1  O1  UNK     1      16.823   6.637  31.759  1.00  0.00    -0.287 OA
HETATM    2  C1  UNK     1      18.063   9.166  34.810  1.00  0.00     0.044 C 
HETATM    3  C2  UNK     1      19.079   8.772  33.744  1.00  0.00     0.047 C 
HETATM    4  C3  UNK     1      16.681   9.279  34.223  1.00  0.00    -0.044 A 
HETATM    5  C4  UNK     1      18.637   7.536  33.021  1.00  0.00    -0.006 C 
HETATM    6  C5  UNK     1      16.278   8.457  33.158  1.00  0.00     0.021 A 
HETATM    7  C6  UNK     1      17.215   7.465  32.573  1.00  0.00     0.189 C 
HETATM    8  C7  UNK     1      19.447   6.502  32.759  1.00  0.00     0.022 C 
HETATM    9  C8  UNK     1      15.760  10.178  34.779  1.00  0.00     0.008 A 
HETATM   10  C9  UNK     1      14.977   8.551  32.649  1.00  0.00     0.016 A 
HETATM   11  C11 UNK     1      14.465  10.271  34.266  1.00  0.00     0.001 A 
HETATM   12  C12 UNK     1      14.076   9.461  33.202  1.00  0.00     0.001 A 
ENDROOT
BRANCH   8  13
HETATM   13  C10 UNK     1      19.046   5.313  32.071  1.00  0.00    -0.035 A 
HETATM   14  C13 UNK     1      18.399   4.268  32.755  1.00  0.00     0.014 A 
HETATM   15  C15 UNK     1      18.007   3.109  32.083  1.00  0.00     0.037 A 
HETATM   16  C17 UNK     1      18.258   2.977  30.717  1.00  0.00     0.068 A 
HETATM   17  C16 UNK     1      18.899   4.001  30.023  1.00  0.00     0.037 A 
HETATM   18  C14 UNK     1      19.291   5.160  30.694  1.00  0.00     0.014 A 
BRANCH  16  19
HETATM   19  O2  UNK     1      17.877   1.846  30.063  1.00  0.00    -0.356 OA
HETATM   20  C18 UNK     1      17.927   1.872  28.637  1.00  0.00     0.210 C 
ENDBRANCH  16  19
ENDBRANCH   8  13
TORSDOF 2
ENDMDL
MODEL 3
REMARK VINA RESULT:      -7.6     14.412     16.630
REMARK  2 active torsions:
REMARK  status: ('A' for Active; 'I' for Inactive)
REMARK    1  A    between atoms: C17_19  and  O2_2 
REMARK    2  A    between atoms: C10_12  and  C7_9 
ROOT
HETATM    1  O1  UNK     1      31.690  -6.844  36.317  1.00  0.00    -0.287 OA
HETATM    2  C1  UNK     1      29.481  -4.678  39.088  1.00  0.00     0.044 C 
HETATM    3  C2  UNK     1      29.965  -3.960  37.834  1.00  0.00     0.047 C 
HETATM    4  C3  UNK     1      29.157  -6.119  38.794  1.00  0.00    -0.044 A 
HETATM    5  C4  UNK     1      31.099  -4.707  37.199  1.00  0.00    -0.006 C 
HETATM    6  C5  UNK     1      29.872  -6.837  37.821  1.00  0.00     0.021 A 
HETATM    7  C6  UNK     1      30.958  -6.185  37.046  1.00  0.00     0.189 C 
HETATM    8  C7  UNK     1      32.222  -4.119  36.765  1.00  0.00     0.022 C 
HETATM    9  C8  UNK     1      28.166  -6.775  39.536  1.00  0.00     0.008 A 
HETATM   10  C9  UNK     1      29.582  -8.187  37.587  1.00  0.00     0.016 A 
HETATM   11  C11 UNK     1      27.876  -8.119  39.297  1.00  0.00     0.001 A 
HETATM   12  C12 UNK     1      28.581  -8.822  38.322  1.00  0.00     0.001 A 
ENDROOT
BRANCH   8  13
HETATM   13  C10 UNK     1      33.316  -4.813  36.157  1.00  0.00    -0.035 A 
HETATM   14  C13 UNK     1      34.269  -5.486  36.942  1.00  0.00     0.014 A 
HETATM   15  C15 UNK     1      35.335  -6.162  36.349  1.00  0.00     0.037 A 
HETATM   16  C17 UNK     1      35.466  -6.176  34.960  1.00  0.00     0.068 A 
HETATM   17  C16 UNK     1      34.531  -5.513  34.165  1.00  0.00     0.037 A 
HETATM   18  C14 UNK     1      33.465  -4.837  34.759  1.00  0.00     0.014 A 
BRANCH  16  19
HETATM   19  O2  UNK     1      36.506  -6.835  34.382  1.00  0.00    -0.356 OA
HETATM   20  C18 UNK     1      36.390  -7.140  32.992  1.00  0.00     0.210 C 
ENDBRANCH  16  19
ENDBRANCH   8  13
TORSDOF 2
ENDMDL
MODEL 4
REMARK VINA RESULT:      -7.6     23.260     25.667
REMARK  2 active torsions:
REMARK  status: ('A' for Active; 'I' for Inactive)
REMARK    1  A    between atoms: C17_19  and  O2_2 
REMARK    2  A    between atoms: C10_12  and  C7_9 
ROOT
HETATM    1  O1  UNK     1      11.459   7.633   9.595  1.00  0.00    -0.287 OA
HETATM    2  C1  UNK     1      15.047   5.606   9.077  1.00  0.00     0.044 C 
HETATM    3  C2  UNK     1      14.119   5.747   7.875  1.00  0.00     0.047 C 
HETATM    4  C3  UNK     1      14.962   6.816   9.969  1.00  0.00    -0.044 A 
HETATM    5  C4  UNK     1      12.723   6.063   8.317  1.00  0.00    -0.006 C 
HETATM    6  C5  UNK     1      13.761   7.531  10.106  1.00  0.00     0.021 A 
HETATM    7  C6  UNK     1      12.546   7.118   9.358  1.00  0.00     0.189 C 
HETATM    8  C7  UNK     1      11.635   5.453   7.828  1.00  0.00     0.022 C 
HETATM    9  C8  UNK     1      16.079   7.208  10.719  1.00  0.00     0.008 A 
HETATM   10  C9  UNK     1      13.690   8.632  10.968  1.00  0.00     0.016 A 
HETATM   11  C11 UNK     1      16.006   8.308  11.574  1.00  0.00     0.001 A 
HETATM   12  C12 UNK     1      14.815   9.020  11.696  1.00  0.00     0.001 A 
ENDROOT
BRANCH   8  13
HETATM   13  C10 UNK     1      10.294   5.738   8.236  1.00  0.00    -0.035 A 
HETATM   14  C13 UNK     1       9.744   5.136   9.381  1.00  0.00     0.014 A 
HETATM   15  C15 UNK     1       8.436   5.415   9.779  1.00  0.00     0.037 A 
HETATM   16  C17 UNK     1       7.657   6.302   9.036  1.00  0.00     0.068 A 
HETATM   17  C16 UNK     1       8.184   6.909   7.897  1.00  0.00     0.037 A 
HETATM   18  C14 UNK     1       9.492   6.629   7.500  1.00  0.00     0.014 A 
BRANCH  16  19
HETATM   19  O2  UNK     1       6.381   6.574   9.423  1.00  0.00    -0.356 OA
HETATM   20  C18 UNK     1       6.173   7.759  10.191  1.00  0.00     0.210 C 
ENDBRANCH  16  19
ENDBRANCH   8  13
TORSDOF 2
ENDMDL
MODEL 5
REMARK VINA RESULT:      -7.5     24.198     26.144
REMARK  2 active torsions:
REMARK  status: ('A' for Active; 'I' for Inactive)
REMARK    1  A    between atoms: C17_19  and  O2_2 
REMARK    2  A    between atoms: C10_12  and  C7_9 
ROOT
HETATM    1  O1  UNK     1      12.680   7.871   8.227  1.00  0.00    -0.287 OA
HETATM    2  C1  UNK     1      16.061   6.166   9.934  1.00  0.00     0.044 C 
HETATM    3  C2  UNK     1      15.441   5.479   8.723  1.00  0.00     0.047 C 
HETATM    4  C3  UNK     1      15.909   7.662   9.842  1.00  0.00    -0.044 A 
HETATM    5  C4  UNK     1      14.023   5.922   8.530  1.00  0.00    -0.006 C 
HETATM    6  C5  UNK     1      14.789   8.238   9.220  1.00  0.00     0.021 A 
HETATM    7  C6  UNK     1      13.732   7.383   8.623  1.00  0.00     0.189 C 
HETATM    8  C7  UNK     1      13.011   5.079   8.278  1.00  0.00     0.022 C 
HETATM    9  C8  UNK     1      16.868   8.497  10.431  1.00  0.00     0.008 A 
HETATM   10  C9  UNK     1      14.646   9.630   9.176  1.00  0.00     0.016 A 
HETATM   11  C11 UNK     1      16.724   9.884  10.382  1.00  0.00     0.001 A 
HETATM   12  C12 UNK     1      15.616  10.449   9.753  1.00  0.00     0.001 A 
ENDROOT
BRANCH   8  13
HETATM   13  C10 UNK     1      11.651   5.480   8.091  1.00  0.00    -0.035 A 
HETATM   14  C13 UNK     1      11.163   5.803   6.813  1.00  0.00     0.014 A 
HETATM   15  C15 UNK     1       9.836   6.193   6.631  1.00  0.00     0.037 A 
HETATM   16  C17 UNK     1       8.975   6.267   7.726  1.00  0.00     0.068 A 
HETATM   17  C16 UNK     1       9.440   5.951   9.002  1.00  0.00     0.037 A 
HETATM   18  C14 UNK     1      10.767   5.561   9.183  1.00  0.00     0.014 A 
BRANCH  16  19
HETATM   19  O2  UNK     1       7.681   6.648   7.548  1.00  0.00    -0.356 OA
HETATM   20  C18 UNK     1       7.052   7.338   8.628  1.00  0.00     0.210 C 
ENDBRANCH  16  19
ENDBRANCH   8  13
TORSDOF 2
ENDMDL
MODEL 6
REMARK VINA RESULT:      -7.4      4.852      6.489
REMARK  2 active torsions:
REMARK  status: ('A' for Active; 'I' for Inactive)
REMARK    1  A    between atoms: C17_19  and  O2_2 
REMARK    2  A    between atoms: C10_12  and  C7_9 
ROOT
HETATM    1  O1  UNK     1      17.521   5.438  33.453  1.00  0.00    -0.287 OA
HETATM    2  C1  UNK     1      18.785   3.583  29.959  1.00  0.00     0.044 C 
HETATM    3  C2  UNK     1      19.258   5.006  30.230  1.00  0.00     0.047 C 
HETATM    4  C3  UNK     1      18.646   2.807  31.242  1.00  0.00    -0.044 A 
HETATM    5  C4  UNK     1      18.373   5.676  31.237  1.00  0.00    -0.006 C 
HETATM    6  C5  UNK     1      18.266   3.444  32.435  1.00  0.00     0.021 A 
HETATM    7  C6  UNK     1      18.007   4.906  32.462  1.00  0.00     0.189 C 
HETATM    8  C7  UNK     1      17.899   6.921  31.095  1.00  0.00     0.022 C 
HETATM    9  C8  UNK     1      18.843   1.419  31.242  1.00  0.00     0.008 A 
HETATM   10  C9  UNK     1      18.106   2.700  33.611  1.00  0.00     0.016 A 
HETATM   11  C11 UNK     1      18.687   0.682  32.417  1.00  0.00     0.001 A 
HETATM   12  C12 UNK     1      18.322   1.323  33.599  1.00  0.00     0.001 A 
ENDROOT
BRANCH   8  13
HETATM   13  C10 UNK     1      17.054   7.580  32.042  1.00  0.00    -0.035 A 
HETATM   14  C13 UNK     1      15.657   7.421  31.996  1.00  0.00     0.014 A 
HETATM   15  C15 UNK     1      14.834   8.063  32.921  1.00  0.00     0.037 A 
HETATM   16  C17 UNK     1      15.394   8.874  33.907  1.00  0.00     0.068 A 
HETATM   17  C16 UNK     1      16.776   9.045  33.969  1.00  0.00     0.037 A 
HETATM   18  C14 UNK     1      17.600   8.403  33.044  1.00  0.00     0.014 A 
BRANCH  16  19
HETATM   19  O2  UNK     1      14.589   9.501  34.809  1.00  0.00    -0.356 OA
HETATM   20  C18 UNK     1      13.881  10.654  34.357  1.00  0.00     0.210 C 
ENDBRANCH  16  19
ENDBRANCH   8  13
TORSDOF 2
ENDMDL
MODEL 7
REMARK VINA RESULT:      -7.3     13.554     14.695
REMARK  2 active torsions:
REMARK  status: ('A' for Active; 'I' for Inactive)
REMARK    1  A    between atoms: C17_19  and  O2_2 
REMARK    2  A    between atoms: C10_12  and  C7_9 
ROOT
HETATM    1  O1  UNK     1      29.961  -7.745  37.540  1.00  0.00    -0.287 OA
HETATM    2  C1  UNK     1      30.232  -3.622  37.962  1.00  0.00     0.044 C 
HETATM    3  C2  UNK     1      29.746  -4.438  39.155  1.00  0.00     0.047 C 
HETATM    4  C3  UNK     1      31.255  -4.389  37.166  1.00  0.00    -0.044 A 
HETATM    5  C4  UNK     1      29.266  -5.787  38.714  1.00  0.00    -0.006 C 
HETATM    6  C5  UNK     1      31.191  -5.789  37.063  1.00  0.00     0.021 A 
HETATM    7  C6  UNK     1      30.119  -6.549  37.755  1.00  0.00     0.189 C 
HETATM    8  C7  UNK     1      28.120  -6.340  39.135  1.00  0.00     0.022 C 
HETATM    9  C8  UNK     1      32.255  -3.699  36.467  1.00  0.00     0.008 A 
HETATM   10  C9  UNK     1      32.128  -6.482  36.288  1.00  0.00     0.016 A 
HETATM   11  C11 UNK     1      33.189  -4.393  35.699  1.00  0.00     0.001 A 
HETATM   12  C12 UNK     1      33.127  -5.782  35.612  1.00  0.00     0.001 A 
ENDROOT
BRANCH   8  13
HETATM   13  C10 UNK     1      27.643  -7.626  38.727  1.00  0.00    -0.035 A 
HETATM   14  C13 UNK     1      27.004  -7.798  37.487  1.00  0.00     0.014 A 
HETATM   15  C15 UNK     1      26.540  -9.052  37.090  1.00  0.00     0.037 A 
HETATM   16  C17 UNK     1      26.707 -10.155  37.928  1.00  0.00     0.068 A 
HETATM   17  C16 UNK     1      27.337 -10.004  39.162  1.00  0.00     0.037 A 
HETATM   18  C14 UNK     1      27.802  -8.749  39.559  1.00  0.00     0.014 A 
BRANCH  16  19
HETATM   19  O2  UNK     1      26.253 -11.378  37.540  1.00  0.00    -0.356 OA
HETATM   20  C18 UNK     1      25.477 -11.434  36.344  1.00  0.00     0.210 C 
ENDBRANCH  16  19
ENDBRANCH   8  13
TORSDOF 2
ENDMDL
MODEL 8
REMARK VINA RESULT:      -7.2     13.961     15.810
REMARK  2 active torsions:
REMARK  status: ('A' for Active; 'I' for Inactive)
REMARK    1  A    between atoms: C17_19  and  O2_2 
REMARK    2  A    between atoms: C10_12  and  C7_9 
ROOT
HETATM    1  O1  UNK     1      30.428  -6.871  36.257  1.00  0.00    -0.287 OA
HETATM    2  C1  UNK     1      27.894  -7.399  39.505  1.00  0.00     0.044 C 
HETATM    3  C2  UNK     1      28.369  -5.986  39.185  1.00  0.00     0.047 C 
HETATM    4  C3  UNK     1      27.721  -8.208  38.247  1.00  0.00    -0.044 A 
HETATM    5  C4  UNK     1      29.597  -6.022  38.326  1.00  0.00    -0.006 C 
HETATM    6  C5  UNK     1      28.546  -7.996  37.131  1.00  0.00     0.021 A 
HETATM    7  C6  UNK     1      29.603  -6.952  37.159  1.00  0.00     0.189 C 
HETATM    8  C7  UNK     1      30.680  -5.265  38.551  1.00  0.00     0.022 C 
HETATM    9  C8  UNK     1      26.761  -9.229  38.202  1.00  0.00     0.008 A 
HETATM   10  C9  UNK     1      28.395  -8.783  35.983  1.00  0.00     0.016 A 
HETATM   11  C11 UNK     1      26.611 -10.008  37.055  1.00  0.00     0.001 A 
HETATM   12  C12 UNK     1      27.425  -9.784  35.947  1.00  0.00     0.001 A 
ENDROOT
BRANCH   8  13
HETATM   13  C10 UNK     1      31.862  -5.283  37.746  1.00  0.00    -0.035 A 
HETATM   14  C13 UNK     1      32.898  -6.199  38.005  1.00  0.00     0.014 A 
HETATM   15  C15 UNK     1      34.050  -6.216  37.219  1.00  0.00     0.037 A 
HETATM   16  C17 UNK     1      34.185  -5.317  36.160  1.00  0.00     0.068 A 
HETATM   17  C16 UNK     1      33.169  -4.402  35.888  1.00  0.00     0.037 A 
HETATM   18  C14 UNK     1      32.017  -4.385  36.675  1.00  0.00     0.014 A 
BRANCH  16  19
HETATM   19  O2  UNK     1      35.310  -5.334  35.394  1.00  0.00    -0.356 OA
HETATM   20  C18 UNK     1      35.899  -6.608  35.133  1.00  0.00     0.210 C 
ENDBRANCH  16  19
ENDBRANCH   8  13
TORSDOF 2
ENDMDL
MODEL 9
REMARK VINA RESULT:      -7.2      4.126      5.936
REMARK  2 active torsions:
REMARK  status: ('A' for Active; 'I' for Inactive)
REMARK    1  A    between atoms: C17_19  and  O2_2 
REMARK    2  A    between atoms: C10_12  and  C7_9 
ROOT
HETATM    1  O1  UNK     1      20.712  -3.560  34.583  1.00  0.00    -0.287 OA
HETATM    2  C1  UNK     1      18.124  -0.335  34.192  1.00  0.00     0.044 C 
HETATM    3  C2  UNK     1      18.816  -0.544  35.534  1.00  0.00     0.047 C 
HETATM    4  C3  UNK     1      19.016  -0.756  33.054  1.00  0.00    -0.044 A 
HETATM    5  C4  UNK     1      19.316  -1.951  35.659  1.00  0.00    -0.006 C 
HETATM    6  C5  UNK     1      19.926  -1.815  33.202  1.00  0.00     0.021 A 
HETATM    7  C6  UNK     1      20.043  -2.537  34.495  1.00  0.00     0.189 C 
HETATM    8  C7  UNK     1      19.146  -2.703  36.755  1.00  0.00     0.022 C 
HETATM    9  C8  UNK     1      18.901  -0.122  31.809  1.00  0.00     0.008 A 
HETATM   10  C9  UNK     1      20.721  -2.217  32.122  1.00  0.00     0.016 A 
HETATM   11  C11 UNK     1      19.698  -0.523  30.736  1.00  0.00     0.001 A 
HETATM   12  C12 UNK     1      20.608  -1.566  30.893  1.00  0.00     0.001 A 
ENDROOT
BRANCH   8  13
HETATM   13  C10 UNK     1      19.614  -4.048  36.896  1.00  0.00    -0.035 A 
HETATM   14  C13 UNK     1      20.855  -4.320  37.498  1.00  0.00     0.014 A 
HETATM   15  C15 UNK     1      21.311  -5.632  37.636  1.00  0.00     0.037 A 
HETATM   16  C17 UNK     1      20.532  -6.692  37.172  1.00  0.00     0.068 A 
HETATM   17  C16 UNK     1      19.299  -6.442  36.571  1.00  0.00     0.037 A 
HETATM   18  C14 UNK     1      18.843  -5.130  36.434  1.00  0.00     0.014 A 
BRANCH  16  19
HETATM   19  O2  UNK     1      20.977  -7.971  37.306  1.00  0.00    -0.356 OA
HETATM   20  C18 UNK     1      21.798  -8.486  36.259  1.00  0.00     0.210 C 
ENDBRANCH  16  19
ENDBRANCH   8  13
TORSDOF 2
ENDMDL
MODEL 10
REMARK VINA RESULT:      -7.2     24.311     26.057
REMARK  2 active torsions:
REMARK  status: ('A' for Active; 'I' for Inactive)
REMARK    1  A    between atoms: C17_19  and  O2_2 
REMARK    2  A    between atoms: C10_12  and  C7_9 
ROOT
HETATM    1  O1  UNK     1       9.857   5.619   9.951  1.00  0.00    -0.287 OA
HETATM    2  C1  UNK     1      11.635   6.089   6.227  1.00  0.00     0.044 C 
HETATM    3  C2  UNK     1      10.362   6.875   6.522  1.00  0.00     0.047 C 
HETATM    4  C3  UNK     1      12.470   5.928   7.470  1.00  0.00    -0.044 A 
HETATM    5  C4  UNK     1       9.614   6.262   7.666  1.00  0.00    -0.006 C 
HETATM    6  C5  UNK     1      11.870   5.818   8.735  1.00  0.00     0.021 A 
HETATM    7  C6  UNK     1      10.393   5.876   8.879  1.00  0.00     0.189 C 
HETATM    8  C7  UNK     1       8.291   6.047   7.655  1.00  0.00     0.022 C 
HETATM    9  C8  UNK     1      13.864   5.829   7.365  1.00  0.00     0.008 A 
HETATM   10  C9  UNK     1      12.660   5.632   9.876  1.00  0.00     0.016 A 
HETATM   11  C11 UNK     1      14.648   5.648   8.504  1.00  0.00     0.001 A 
HETATM   12  C12 UNK     1      14.047   5.552   9.757  1.00  0.00     0.001 A 
ENDROOT
BRANCH   8  13
HETATM   13  C10 UNK     1       7.557   5.463   8.735  1.00  0.00    -0.035 A 
HETATM   14  C13 UNK     1       7.365   4.072   8.808  1.00  0.00     0.014 A 
HETATM   15  C15 UNK     1       6.649   3.504   9.862  1.00  0.00     0.037 A 
HETATM   16  C17 UNK     1       6.113   4.318  10.860  1.00  0.00     0.068 A 
HETATM   17  C16 UNK     1       6.292   5.699  10.804  1.00  0.00     0.037 A 
HETATM   18  C14 UNK     1       7.008   6.268   9.750  1.00  0.00     0.014 A 
BRANCH  16  19
HETATM   19  O2  UNK     1       5.414   3.763  11.887  1.00  0.00    -0.356 OA
HETATM   20  C18 UNK     1       5.275   2.342  11.887  1.00  0.00     0.210 C 
ENDBRANCH  16  19
ENDBRANCH   8  13
TORSDOF 2
ENDMDL
