MODEL 1
REMARK VINA RESULT:      -7.7      0.000      0.000
REMARK  4 active torsions:
REMARK  status: ('A' for Active; 'I' for Inactive)
REMARK    1  A    between atoms: C11_15  and  O2_2 
REMARK    2  A    between atoms: C13_17  and  O2_2 
REMARK    3  A    between atoms: C14_18  and  O4_4 
REMARK    4  A    between atoms: C13_17  and  C14_18 
ROOT
HETATM    1  O1  UNK     1      18.585   0.584  33.060  1.00  0.00    -0.274 OA
HETATM    2  O3  UNK     1      19.137  -1.614  33.434  1.00  0.00    -0.259 OA
HETATM    3  C1  UNK     1      20.197  -0.007  29.148  1.00  0.00     0.040 C 
HETATM    4  C2  UNK     1      19.609   0.328  30.475  1.00  0.00    -0.033 A 
HETATM    5  C3  UNK     1      20.279  -1.537  29.206  1.00  0.00     0.009 C 
HETATM    6  C4  UNK     1      20.237  -1.923  30.688  1.00  0.00     0.046 C 
HETATM    7  C5  UNK     1      19.629  -0.715  31.309  1.00  0.00     0.025 A 
HETATM    8  C6  UNK     1      19.070   1.607  30.890  1.00  0.00     0.005 A 
HETATM    9  C7  UNK     1      18.564   1.701  32.189  1.00  0.00     0.092 A 
HETATM   10  C8  UNK     1      19.111  -0.651  32.677  1.00  0.00     0.295 A 
HETATM   11  C9  UNK     1      19.031   2.739  30.074  1.00  0.00     0.017 A 
HETATM   12  C10 UNK     1      18.023   2.886  32.685  1.00  0.00     0.075 A 
HETATM   13  C11 UNK     1      17.988   4.008  31.860  1.00  0.00     0.071 A 
HETATM   14  C12 UNK     1      18.492   3.935  30.559  1.00  0.00     0.038 A 
ENDROOT
BRANCH  13  15
HETATM   15  O2  UNK     1      17.465   5.177  32.322  1.00  0.00    -0.349 OA
BRANCH  15  16
HETATM   16  C13 UNK     1      17.819   6.367  31.620  1.00  0.00     0.201 C 
BRANCH  16  17
HETATM   17  C14 UNK     1      16.678   7.361  31.727  1.00  0.00     0.190 C 
BRANCH  17  18
HETATM   18  O4  UNK     1      16.636   8.150  30.544  1.00  0.00    -0.399 OA
HETATM   19  H14 UNK     1      16.862   9.063  30.792  1.00  0.00     0.209 HD
ENDBRANCH  17  18
ENDBRANCH  16  17
ENDBRANCH  15  16
ENDBRANCH  13  15
TORSDOF 4
ENDMDL
MODEL 2
REMARK VINA RESULT:      -7.5     14.796     17.051
REMARK  4 active torsions:
REMARK  status: ('A' for Active; 'I' for Inactive)
REMARK    1  A    between atoms: C11_15  and  O2_2 
REMARK    2  A    between atoms: C13_17  and  O2_2 
REMARK    3  A    between atoms: C14_18  and  O4_4 
REMARK    4  A    between atoms: C13_17  and  C14_18 
ROOT
HETATM    1  O1  UNK     1      19.338   1.371  15.194  1.00  0.00    -0.274 OA
HETATM    2  O3  UNK     1      19.478   3.456  16.146  1.00  0.00    -0.259 OA
HETATM    3  C1  UNK     1      18.803  -0.066  19.182  1.00  0.00     0.040 C 
HETATM    4  C2  UNK     1      18.980   0.305  17.750  1.00  0.00    -0.033 A 
HETATM    5  C3  UNK     1      18.548   1.295  19.841  1.00  0.00     0.009 C 
HETATM    6  C4  UNK     1      19.099   2.356  18.884  1.00  0.00     0.046 C 
HETATM    7  C5  UNK     1      19.138   1.621  17.590  1.00  0.00     0.025 A 
HETATM    8  C6  UNK     1      19.000  -0.594  16.614  1.00  0.00     0.005 A 
HETATM    9  C7  UNK     1      19.179  -0.028  15.349  1.00  0.00     0.092 A 
HETATM   10  C8  UNK     1      19.331   2.247  16.280  1.00  0.00     0.295 A 
HETATM   11  C9  UNK     1      18.855  -1.979  16.713  1.00  0.00     0.017 A 
HETATM   12  C10 UNK     1      19.213  -0.806  14.193  1.00  0.00     0.075 A 
HETATM   13  C11 UNK     1      19.064  -2.186  14.304  1.00  0.00     0.071 A 
HETATM   14  C12 UNK     1      18.887  -2.771  15.561  1.00  0.00     0.038 A 
ENDROOT
BRANCH  13  15
HETATM   15  O2  UNK     1      19.094  -2.967  13.189  1.00  0.00    -0.349 OA
BRANCH  15  16
HETATM   16  C13 UNK     1      20.059  -2.637  12.192  1.00  0.00     0.201 C 
BRANCH  16  17
HETATM   17  C14 UNK     1      19.367  -2.545  10.846  1.00  0.00     0.190 C 
BRANCH  17  18
HETATM   18  O4  UNK     1      18.665  -1.310  10.767  1.00  0.00    -0.399 OA
HETATM   19  H14 UNK     1      18.022  -1.384  10.041  1.00  0.00     0.209 HD
ENDBRANCH  17  18
ENDBRANCH  16  17
ENDBRANCH  15  16
ENDBRANCH  13  15
TORSDOF 4
ENDMDL
MODEL 3
REMARK VINA RESULT:      -7.3     22.836     24.259
REMARK  4 active torsions:
REMARK  status: ('A' for Active; 'I' for Inactive)
REMARK    1  A    between atoms: C11_15  and  O2_2 
REMARK    2  A    between atoms: C13_17  and  O2_2 
REMARK    3  A    between atoms: C14_18  and  O4_4 
REMARK    4  A    between atoms: C13_17  and  C14_18 
ROOT
HETATM    1  O1  UNK     1      14.026   4.695   8.797  1.00  0.00    -0.274 OA
HETATM    2  O3  UNK     1      16.043   4.171   9.763  1.00  0.00    -0.259 OA
HETATM    3  C1  UNK     1      15.055   8.761   9.604  1.00  0.00     0.040 C 
HETATM    4  C2  UNK     1      14.580   7.390   9.269  1.00  0.00    -0.033 A 
HETATM    5  C3  UNK     1      16.532   8.520   9.942  1.00  0.00     0.009 C 
HETATM    6  C4  UNK     1      16.666   7.033  10.282  1.00  0.00     0.046 C 
HETATM    7  C5  UNK     1      15.457   6.453   9.635  1.00  0.00     0.025 A 
HETATM    8  C6  UNK     1      13.328   7.035   8.632  1.00  0.00     0.005 A 
HETATM    9  C7  UNK     1      13.083   5.677   8.409  1.00  0.00     0.092 A 
HETATM   10  C8  UNK     1      15.231   5.022   9.420  1.00  0.00     0.295 A 
HETATM   11  C9  UNK     1      12.363   7.963   8.238  1.00  0.00     0.017 A 
HETATM   12  C10 UNK     1      11.909   5.231   7.804  1.00  0.00     0.075 A 
HETATM   13  C11 UNK     1      10.955   6.167   7.412  1.00  0.00     0.071 A 
HETATM   14  C12 UNK     1      11.180   7.528   7.629  1.00  0.00     0.038 A 
ENDROOT
BRANCH  13  15
HETATM   15  O2  UNK     1       9.801   5.755   6.818  1.00  0.00    -0.349 OA
BRANCH  15  16
HETATM   16  C13 UNK     1       8.593   6.385   7.243  1.00  0.00     0.201 C 
BRANCH  16  17
HETATM   17  C14 UNK     1       8.085   5.689   8.491  1.00  0.00     0.190 C 
BRANCH  17  18
HETATM   18  O4  UNK     1       7.415   4.493   8.116  1.00  0.00    -0.399 OA
HETATM   19  H14 UNK     1       7.840   3.757   8.589  1.00  0.00     0.209 HD
ENDBRANCH  17  18
ENDBRANCH  16  17
ENDBRANCH  15  16
ENDBRANCH  13  15
TORSDOF 4
ENDMDL
MODEL 4
REMARK VINA RESULT:      -7.3      2.785      5.083
REMARK  4 active torsions:
REMARK  status: ('A' for Active; 'I' for Inactive)
REMARK    1  A    between atoms: C11_15  and  O2_2 
REMARK    2  A    between atoms: C13_17  and  O2_2 
REMARK    3  A    between atoms: C14_18  and  O4_4 
REMARK    4  A    between atoms: C13_17  and  C14_18 
ROOT
HETATM    1  O1  UNK     1      18.351   1.659  32.241  1.00  0.00    -0.274 OA
HETATM    2  O3  UNK     1      18.468   2.709  30.201  1.00  0.00    -0.259 OA
HETATM    3  C1  UNK     1      20.315  -1.610  30.316  1.00  0.00     0.040 C 
HETATM    4  C2  UNK     1      19.630  -0.546  31.101  1.00  0.00    -0.033 A 
HETATM    5  C3  UNK     1      20.728  -0.860  29.043  1.00  0.00     0.009 C 
HETATM    6  C4  UNK     1      19.832   0.378  28.953  1.00  0.00     0.046 C 
HETATM    7  C5  UNK     1      19.371   0.534  30.360  1.00  0.00     0.025 A 
HETATM    8  C6  UNK     1      19.249  -0.603  32.497  1.00  0.00     0.005 A 
HETATM    9  C7  UNK     1      18.613   0.518  33.037  1.00  0.00     0.092 A 
HETATM   10  C8  UNK     1      18.703   1.725  30.892  1.00  0.00     0.295 A 
HETATM   11  C9  UNK     1      19.477  -1.705  33.323  1.00  0.00     0.017 A 
HETATM   12  C10 UNK     1      18.206   0.563  34.370  1.00  0.00     0.075 A 
HETATM   13  C11 UNK     1      18.442  -0.541  35.184  1.00  0.00     0.071 A 
HETATM   14  C12 UNK     1      19.075  -1.673  34.663  1.00  0.00     0.038 A 
ENDROOT
BRANCH  13  15
HETATM   15  O2  UNK     1      18.055  -0.521  36.489  1.00  0.00    -0.349 OA
BRANCH  15  16
HETATM   16  C13 UNK     1      17.024   0.398  36.845  1.00  0.00     0.201 C 
BRANCH  16  17
HETATM   17  C14 UNK     1      17.516   1.276  37.980  1.00  0.00     0.190 C 
BRANCH  17  18
HETATM   18  O4  UNK     1      18.549   2.126  37.497  1.00  0.00    -0.399 OA
HETATM   19  H14 UNK     1      19.362   1.905  37.983  1.00  0.00     0.209 HD
ENDBRANCH  17  18
ENDBRANCH  16  17
ENDBRANCH  15  16
ENDBRANCH  13  15
TORSDOF 4
ENDMDL
MODEL 5
REMARK VINA RESULT:      -7.3      1.943      2.719
REMARK  4 active torsions:
REMARK  status: ('A' for Active; 'I' for Inactive)
REMARK    1  A    between atoms: C11_15  and  O2_2 
REMARK    2  A    between atoms: C13_17  and  O2_2 
REMARK    3  A    between atoms: C14_18  and  O4_4 
REMARK    4  A    between atoms: C13_17  and  C14_18 
ROOT
HETATM    1  O1  UNK     1      19.532   1.064  29.332  1.00  0.00    -0.274 OA
HETATM    2  O3  UNK     1      20.442  -0.634  28.082  1.00  0.00    -0.259 OA
HETATM    3  C1  UNK     1      19.738  -1.666  32.611  1.00  0.00     0.040 C 
HETATM    4  C2  UNK     1      19.612  -0.623  31.555  1.00  0.00    -0.033 A 
HETATM    5  C3  UNK     1      20.642  -2.704  31.937  1.00  0.00     0.009 C 
HETATM    6  C4  UNK     1      20.543  -2.460  30.429  1.00  0.00     0.046 C 
HETATM    7  C5  UNK     1      20.052  -1.056  30.371  1.00  0.00     0.025 A 
HETATM    8  C6  UNK     1      19.079   0.715  31.712  1.00  0.00     0.005 A 
HETATM    9  C7  UNK     1      19.055   1.534  30.580  1.00  0.00     0.092 A 
HETATM   10  C8  UNK     1      20.038  -0.225  29.164  1.00  0.00     0.295 A 
HETATM   11  C9  UNK     1      18.590   1.223  32.917  1.00  0.00     0.017 A 
HETATM   12  C10 UNK     1      18.562   2.837  30.626  1.00  0.00     0.075 A 
HETATM   13  C11 UNK     1      18.081   3.334  31.834  1.00  0.00     0.071 A 
HETATM   14  C12 UNK     1      18.093   2.530  32.976  1.00  0.00     0.038 A 
ENDROOT
BRANCH  13  15
HETATM   15  O2  UNK     1      17.594   4.604  31.903  1.00  0.00    -0.349 OA
BRANCH  15  16
HETATM   16  C13 UNK     1      18.546   5.666  31.861  1.00  0.00     0.201 C 
BRANCH  16  17
HETATM   17  C14 UNK     1      18.299   6.501  30.618  1.00  0.00     0.190 C 
BRANCH  17  18
HETATM   18  O4  UNK     1      19.309   6.216  29.659  1.00  0.00    -0.399 OA
HETATM   19  H14 UNK     1      19.543   7.052  29.221  1.00  0.00     0.209 HD
ENDBRANCH  17  18
ENDBRANCH  16  17
ENDBRANCH  15  16
ENDBRANCH  13  15
TORSDOF 4
ENDMDL
MODEL 6
REMARK VINA RESULT:      -7.1      4.405      6.487
REMARK  4 active torsions:
REMARK  status: ('A' for Active; 'I' for Inactive)
REMARK    1  A    between atoms: C11_15  and  O2_2 
REMARK    2  A    between atoms: C13_17  and  O2_2 
REMARK    3  A    between atoms: C14_18  and  O4_4 
REMARK    4  A    between atoms: C13_17  and  C14_18 
ROOT
HETATM    1  O1  UNK     1      20.549  -3.000  35.129  1.00  0.00    -0.274 OA
HETATM    2  O3  UNK     1      20.543  -3.590  37.349  1.00  0.00    -0.259 OA
HETATM    3  C1  UNK     1      17.474  -0.228  36.184  1.00  0.00     0.040 C 
HETATM    4  C2  UNK     1      18.534  -1.150  35.687  1.00  0.00    -0.033 A 
HETATM    5  C3  UNK     1      17.647  -0.322  37.704  1.00  0.00     0.009 C 
HETATM    6  C4  UNK     1      18.397  -1.629  37.981  1.00  0.00     0.046 C 
HETATM    7  C5  UNK     1      19.036  -1.907  36.666  1.00  0.00     0.025 A 
HETATM    8  C6  UNK     1      19.011  -1.274  34.325  1.00  0.00     0.005 A 
HETATM    9  C7  UNK     1      20.021  -2.208  34.080  1.00  0.00     0.092 A 
HETATM   10  C8  UNK     1      20.092  -2.898  36.444  1.00  0.00     0.295 A 
HETATM   11  C9  UNK     1      18.520  -0.523  33.256  1.00  0.00     0.017 A 
HETATM   12  C10 UNK     1      20.548  -2.405  32.805  1.00  0.00     0.075 A 
HETATM   13  C11 UNK     1      20.053  -1.648  31.747  1.00  0.00     0.071 A 
HETATM   14  C12 UNK     1      19.041  -0.711  31.970  1.00  0.00     0.038 A 
ENDROOT
BRANCH  13  15
HETATM   15  O2  UNK     1      20.552  -1.822  30.492  1.00  0.00    -0.349 OA
BRANCH  15  16
HETATM   16  C13 UNK     1      20.686  -0.656  29.680  1.00  0.00     0.201 C 
BRANCH  16  17
HETATM   17  C14 UNK     1      19.828  -0.817  28.440  1.00  0.00     0.190 C 
BRANCH  17  18
HETATM   18  O4  UNK     1      18.834   0.200  28.427  1.00  0.00    -0.399 OA
HETATM   19  H14 UNK     1      18.221   0.002  27.699  1.00  0.00     0.209 HD
ENDBRANCH  17  18
ENDBRANCH  16  17
ENDBRANCH  15  16
ENDBRANCH  13  15
TORSDOF 4
ENDMDL
MODEL 7
REMARK VINA RESULT:      -7.1      4.282      6.405
REMARK  4 active torsions:
REMARK  status: ('A' for Active; 'I' for Inactive)
REMARK    1  A    between atoms: C11_15  and  O2_2 
REMARK    2  A    between atoms: C13_17  and  O2_2 
REMARK    3  A    between atoms: C14_18  and  O4_4 
REMARK    4  A    between atoms: C13_17  and  C14_18 
ROOT
HETATM    1  O1  UNK     1      17.554  -0.220  33.546  1.00  0.00    -0.274 OA
HETATM    2  O3  UNK     1      16.133   0.614  35.146  1.00  0.00    -0.259 OA
HETATM    3  C1  UNK     1      19.526  -2.196  36.779  1.00  0.00     0.040 C 
HETATM    4  C2  UNK     1      18.931  -1.564  35.569  1.00  0.00    -0.033 A 
HETATM    5  C3  UNK     1      18.439  -1.962  37.836  1.00  0.00     0.009 C 
HETATM    6  C4  UNK     1      17.575  -0.804  37.327  1.00  0.00     0.046 C 
HETATM    7  C5  UNK     1      17.870  -0.810  35.868  1.00  0.00     0.025 A 
HETATM    8  C6  UNK     1      19.394  -1.694  34.202  1.00  0.00     0.005 A 
HETATM    9  C7  UNK     1      18.682  -1.010  33.214  1.00  0.00     0.092 A 
HETATM   10  C8  UNK     1      17.103  -0.077  34.858  1.00  0.00     0.295 A 
HETATM   11  C9  UNK     1      20.503  -2.453  33.824  1.00  0.00     0.017 A 
HETATM   12  C10 UNK     1      19.046  -1.070  31.870  1.00  0.00     0.075 A 
HETATM   13  C11 UNK     1      20.152  -1.833  31.504  1.00  0.00     0.071 A 
HETATM   14  C12 UNK     1      20.879  -2.522  32.478  1.00  0.00     0.038 A 
ENDROOT
BRANCH  13  15
HETATM   15  O2  UNK     1      20.527  -1.907  30.197  1.00  0.00    -0.349 OA
BRANCH  15  16
HETATM   16  C13 UNK     1      20.632  -0.677  29.482  1.00  0.00     0.201 C 
BRANCH  16  17
HETATM   17  C14 UNK     1      19.666  -0.702  28.312  1.00  0.00     0.190 C 
BRANCH  17  18
HETATM   18  O4  UNK     1      18.679   0.303  28.502  1.00  0.00    -0.399 OA
HETATM   19  H14 UNK     1      18.536   0.398  29.459  1.00  0.00     0.209 HD
ENDBRANCH  17  18
ENDBRANCH  16  17
ENDBRANCH  15  16
ENDBRANCH  13  15
TORSDOF 4
ENDMDL
MODEL 8
REMARK VINA RESULT:      -7.0     22.892     24.391
REMARK  4 active torsions:
REMARK  status: ('A' for Active; 'I' for Inactive)
REMARK    1  A    between atoms: C11_15  and  O2_2 
REMARK    2  A    between atoms: C13_17  and  O2_2 
REMARK    3  A    between atoms: C14_18  and  O4_4 
REMARK    4  A    between atoms: C13_17  and  C14_18 
ROOT
HETATM    1  O1  UNK     1      11.079   5.042  10.094  1.00  0.00    -0.274 OA
HETATM    2  O3  UNK     1       8.846   4.727  10.526  1.00  0.00    -0.259 OA
HETATM    3  C1  UNK     1       9.809   6.554   6.306  1.00  0.00     0.040 C 
HETATM    4  C2  UNK     1      10.380   6.051   7.586  1.00  0.00    -0.033 A 
HETATM    5  C3  UNK     1       8.320   6.691   6.646  1.00  0.00     0.009 C 
HETATM    6  C4  UNK     1       8.064   5.796   7.862  1.00  0.00     0.046 C 
HETATM    7  C5  UNK     1       9.431   5.642   8.431  1.00  0.00     0.025 A 
HETATM    8  C6  UNK     1      11.782   5.973   7.942  1.00  0.00     0.005 A 
HETATM    9  C7  UNK     1      12.098   5.465   9.205  1.00  0.00     0.092 A 
HETATM   10  C8  UNK     1       9.725   5.101   9.760  1.00  0.00     0.295 A 
HETATM   11  C9  UNK     1      12.824   6.369   7.101  1.00  0.00     0.017 A 
HETATM   12  C10 UNK     1      13.416   5.348   9.643  1.00  0.00     0.075 A 
HETATM   13  C11 UNK     1      14.446   5.750   8.797  1.00  0.00     0.071 A 
HETATM   14  C12 UNK     1      14.151   6.258   7.529  1.00  0.00     0.038 A 
ENDROOT
BRANCH  13  15
HETATM   15  O2  UNK     1      15.741   5.646   9.203  1.00  0.00    -0.349 OA
BRANCH  15  16
HETATM   16  C13 UNK     1      16.146   6.469  10.295  1.00  0.00     0.201 C 
BRANCH  16  17
HETATM   17  C14 UNK     1      17.444   7.166   9.934  1.00  0.00     0.190 C 
BRANCH  17  18
HETATM   18  O4  UNK     1      18.253   6.278   9.173  1.00  0.00    -0.399 OA
HETATM   19  H14 UNK     1      18.850   5.822   9.790  1.00  0.00     0.209 HD
ENDBRANCH  17  18
ENDBRANCH  16  17
ENDBRANCH  15  16
ENDBRANCH  13  15
TORSDOF 4
ENDMDL
MODEL 9
REMARK VINA RESULT:      -7.0      2.260      3.520
REMARK  4 active torsions:
REMARK  status: ('A' for Active; 'I' for Inactive)
REMARK    1  A    between atoms: C11_15  and  O2_2 
REMARK    2  A    between atoms: C13_17  and  O2_2 
REMARK    3  A    between atoms: C14_18  and  O4_4 
REMARK    4  A    between atoms: C13_17  and  C14_18 
ROOT
HETATM    1  O1  UNK     1      18.101   3.226  33.564  1.00  0.00    -0.274 OA
HETATM    2  O3  UNK     1      18.195   0.951  33.262  1.00  0.00    -0.259 OA
HETATM    3  C1  UNK     1      18.727   3.492  29.346  1.00  0.00     0.040 C 
HETATM    4  C2  UNK     1      18.506   3.536  30.819  1.00  0.00    -0.033 A 
HETATM    5  C3  UNK     1      18.464   2.016  29.022  1.00  0.00     0.009 C 
HETATM    6  C4  UNK     1      18.627   1.243  30.334  1.00  0.00     0.046 C 
HETATM    7  C5  UNK     1      18.450   2.313  31.353  1.00  0.00     0.025 A 
HETATM    8  C6  UNK     1      18.370   4.719  31.643  1.00  0.00     0.005 A 
HETATM    9  C7  UNK     1      18.166   4.529  33.012  1.00  0.00     0.092 A 
HETATM   10  C8  UNK     1      18.242   2.078  32.783  1.00  0.00     0.295 A 
HETATM   11  C9  UNK     1      18.433   6.024  31.150  1.00  0.00     0.017 A 
HETATM   12  C10 UNK     1      18.022   5.602  33.891  1.00  0.00     0.075 A 
HETATM   13  C11 UNK     1      18.084   6.898  33.387  1.00  0.00     0.071 A 
HETATM   14  C12 UNK     1      18.290   7.109  32.021  1.00  0.00     0.038 A 
ENDROOT
BRANCH  13  15
HETATM   15  O2  UNK     1      17.946   7.963  34.226  1.00  0.00    -0.349 OA
BRANCH  15  16
HETATM   16  C13 UNK     1      16.789   7.985  35.059  1.00  0.00     0.201 C 
BRANCH  16  17
HETATM   17  C14 UNK     1      15.895   9.134  34.632  1.00  0.00     0.190 C 
BRANCH  17  18
HETATM   18  O4  UNK     1      15.220   9.647  35.773  1.00  0.00    -0.399 OA
HETATM   19  H14 UNK     1      15.291  10.617  35.745  1.00  0.00     0.209 HD
ENDBRANCH  17  18
ENDBRANCH  16  17
ENDBRANCH  15  16
ENDBRANCH  13  15
TORSDOF 4
ENDMDL
MODEL 10
REMARK VINA RESULT:      -6.9      3.685      4.945
REMARK  4 active torsions:
REMARK  status: ('A' for Active; 'I' for Inactive)
REMARK    1  A    between atoms: C11_15  and  O2_2 
REMARK    2  A    between atoms: C13_17  and  O2_2 
REMARK    3  A    between atoms: C14_18  and  O4_4 
REMARK    4  A    between atoms: C13_17  and  C14_18 
ROOT
HETATM    1  O1  UNK     1      19.935  -2.186  32.509  1.00  0.00    -0.274 OA
HETATM    2  O3  UNK     1      20.900  -2.998  30.590  1.00  0.00    -0.259 OA
HETATM    3  C1  UNK     1      19.093   1.324  30.225  1.00  0.00     0.040 C 
HETATM    4  C2  UNK     1      19.326   0.162  31.127  1.00  0.00    -0.033 A 
HETATM    5  C3  UNK     1      19.405   0.731  28.845  1.00  0.00     0.009 C 
HETATM    6  C4  UNK     1      20.268  -0.510  29.085  1.00  0.00     0.046 C 
HETATM    7  C5  UNK     1      19.962  -0.834  30.506  1.00  0.00     0.025 A 
HETATM    8  C6  UNK     1      18.948   0.053  32.521  1.00  0.00     0.005 A 
HETATM    9  C7  UNK     1      19.266  -1.136  33.183  1.00  0.00     0.092 A 
HETATM   10  C8  UNK     1      20.314  -2.092  31.169  1.00  0.00     0.295 A 
HETATM   11  C9  UNK     1      18.295   1.061  33.233  1.00  0.00     0.017 A 
HETATM   12  C10 UNK     1      18.946  -1.339  34.524  1.00  0.00     0.075 A 
HETATM   13  C11 UNK     1      18.292  -0.328  35.223  1.00  0.00     0.071 A 
HETATM   14  C12 UNK     1      17.968   0.869  34.580  1.00  0.00     0.038 A 
ENDROOT
BRANCH  13  15
HETATM   15  O2  UNK     1      17.969  -0.504  36.534  1.00  0.00    -0.349 OA
BRANCH  15  16
HETATM   16  C13 UNK     1      16.987   0.373  37.083  1.00  0.00     0.201 C 
BRANCH  16  17
HETATM   17  C14 UNK     1      17.606   1.152  38.227  1.00  0.00     0.190 C 
BRANCH  17  18
HETATM   18  O4  UNK     1      18.493   2.130  37.699  1.00  0.00    -0.399 OA
HETATM   19  H14 UNK     1      19.218   1.659  37.254  1.00  0.00     0.209 HD
ENDBRANCH  17  18
ENDBRANCH  16  17
ENDBRANCH  15  16
ENDBRANCH  13  15
TORSDOF 4
ENDMDL
