MODEL 1
REMARK VINA RESULT:      -8.5      0.000      0.000
REMARK  2 active torsions:
REMARK  status: ('A' for Active; 'I' for Inactive)
REMARK    1  A    between atoms: C8_15  and  N1_6 
REMARK    2  A    between atoms: C1_8  and  C3_10 
ROOT
HETATM    1  O1  UNK     1      27.660  -4.735  38.777  1.00  0.00    -0.269 OA
HETATM    2  O2  UNK     1      25.401  -5.311  39.012  1.00  0.00    -0.286 OA
HETATM    3  O3  UNK     1      26.203  -9.237  38.307  1.00  0.00    -0.287 OA
HETATM    4  N2  UNK     1      31.968  -6.861  38.400  1.00  0.00    -0.191 NA
HETATM    5  C1  UNK     1      28.446  -7.421  38.158  1.00  0.00     0.108 C 
HETATM    6  C2  UNK     1      27.024  -7.009  38.465  1.00  0.00     0.065 A 
HETATM    7  C4  UNK     1      29.438  -6.300  38.436  1.00  0.00     0.086 C 
HETATM    8  C5  UNK     1      26.693  -5.734  38.744  1.00  0.00     0.204 A 
HETATM    9  C6  UNK     1      25.962  -8.051  38.492  1.00  0.00     0.197 A 
HETATM   10  C7  UNK     1      24.595  -7.583  38.756  1.00  0.00     0.049 A 
HETATM   11  C8  UNK     1      29.018  -5.045  38.717  1.00  0.00     0.162 C 
HETATM   12  C9  UNK     1      24.386  -6.230  39.002  1.00  0.00     0.092 A 
HETATM   13  C12 UNK     1      23.521  -8.476  38.766  1.00  0.00     0.018 A 
HETATM   14  C13 UNK     1      23.097  -5.758  39.257  1.00  0.00     0.038 A 
HETATM   15  C16 UNK     1      30.835  -6.610  38.416  1.00  0.00     0.100 C 
HETATM   16  C18 UNK     1      22.233  -8.003  39.020  1.00  0.00     0.001 A 
HETATM   17  C19 UNK     1      22.021  -6.646  39.266  1.00  0.00     0.003 A 
ENDROOT
BRANCH   5  18
HETATM   18  C3  UNK     1      28.566  -7.877  36.732  1.00  0.00    -0.043 A 
HETATM   19  C10 UNK     1      28.263  -6.996  35.700  1.00  0.00     0.030 A 
HETATM   20  C14 UNK     1      28.373  -7.420  34.376  1.00  0.00     0.050 A 
HETATM   21 Br1  UNK     1      27.962  -6.223  32.971  1.00  0.00    -0.048 Br
HETATM   22  C17 UNK     1      28.785  -8.722  34.093  1.00  0.00     0.133 A 
HETATM   23  C15 UNK     1      29.087  -9.600  35.134  1.00  0.00     0.044 A 
HETATM   24  F1  UNK     1      28.898  -9.148  32.826  1.00  0.00    -0.205 F 
HETATM   25  C11 UNK     1      28.976  -9.176  36.458  1.00  0.00     0.011 A 
ENDBRANCH   5  18
BRANCH  11  26
HETATM   26  N1  UNK     1      29.837  -3.978  38.964  1.00  0.00    -0.379 N 
HETATM   27  H10 UNK     1      30.823  -4.060  38.751  1.00  0.00     0.158 HD
HETATM   28  H9  UNK     1      29.470  -3.120  39.357  1.00  0.00     0.158 HD
ENDBRANCH  11  26
TORSDOF 2
ENDMDL
MODEL 2
REMARK VINA RESULT:      -8.4      3.267      4.436
REMARK  2 active torsions:
REMARK  status: ('A' for Active; 'I' for Inactive)
REMARK    1  A    between atoms: C8_15  and  N1_6 
REMARK    2  A    between atoms: C1_8  and  C3_10 
ROOT
HETATM    1  O1  UNK     1      30.475  -4.196  37.303  1.00  0.00    -0.269 OA
HETATM    2  O2  UNK     1      29.228  -5.858  38.387  1.00  0.00    -0.286 OA
HETATM    3  O3  UNK     1      31.380  -8.811  36.596  1.00  0.00    -0.287 OA
HETATM    4  N2  UNK     1      34.455  -3.757  34.623  1.00  0.00    -0.191 NA
HETATM    5  C1  UNK     1      32.053  -6.100  35.853  1.00  0.00     0.108 C 
HETATM    6  C2  UNK     1      30.968  -6.479  36.836  1.00  0.00     0.065 A 
HETATM    7  C4  UNK     1      32.362  -4.609  35.892  1.00  0.00     0.086 C 
HETATM    8  C5  UNK     1      30.243  -5.554  37.493  1.00  0.00     0.204 A 
HETATM    9  C6  UNK     1      30.718  -7.919  37.112  1.00  0.00     0.197 A 
HETATM   10  C7  UNK     1      29.625  -8.225  38.045  1.00  0.00     0.049 A 
HETATM   11  C8  UNK     1      31.583  -3.749  36.586  1.00  0.00     0.162 C 
HETATM   12  C9  UNK     1      28.934  -7.172  38.635  1.00  0.00     0.092 A 
HETATM   13  C12 UNK     1      29.284  -9.547  38.341  1.00  0.00     0.018 A 
HETATM   14  C13 UNK     1      27.892  -7.434  39.526  1.00  0.00     0.038 A 
HETATM   15  C16 UNK     1      33.518  -4.138  35.191  1.00  0.00     0.100 C 
HETATM   16  C18 UNK     1      28.242  -9.808  39.232  1.00  0.00     0.001 A 
HETATM   17  C19 UNK     1      27.547  -8.752  39.824  1.00  0.00     0.003 A 
ENDROOT
BRANCH   5  18
HETATM   18  C3  UNK     1      31.670  -6.513  34.462  1.00  0.00    -0.043 A 
HETATM   19  C10 UNK     1      30.446  -6.114  33.937  1.00  0.00     0.030 A 
HETATM   20  C14 UNK     1      30.090  -6.499  32.645  1.00  0.00     0.050 A 
HETATM   21 Br1  UNK     1      28.425  -5.956  31.930  1.00  0.00    -0.048 Br
HETATM   22  C17 UNK     1      30.960  -7.282  31.886  1.00  0.00     0.133 A 
HETATM   23  C15 UNK     1      32.186  -7.680  32.420  1.00  0.00     0.044 A 
HETATM   24  F1  UNK     1      30.635  -7.662  30.642  1.00  0.00    -0.205 F 
HETATM   25  C11 UNK     1      32.541  -7.294  33.712  1.00  0.00     0.011 A 
ENDBRANCH   5  18
BRANCH  11  26
HETATM   26  N1  UNK     1      31.778  -2.397  36.662  1.00  0.00    -0.379 N 
HETATM   27  H10 UNK     1      31.049  -1.821  37.064  1.00  0.00     0.158 HD
HETATM   28  H9  UNK     1      32.632  -1.974  36.322  1.00  0.00     0.158 HD
ENDBRANCH  11  26
TORSDOF 2
ENDMDL
MODEL 3
REMARK VINA RESULT:      -8.3      5.773      7.512
REMARK  2 active torsions:
REMARK  status: ('A' for Active; 'I' for Inactive)
REMARK    1  A    between atoms: C8_15  and  N1_6 
REMARK    2  A    between atoms: C1_8  and  C3_10 
ROOT
HETATM    1  O1  UNK     1      32.343  -9.083  33.266  1.00  0.00    -0.269 OA
HETATM    2  O2  UNK     1      30.324  -8.882  32.094  1.00  0.00    -0.286 OA
HETATM    3  O3  UNK     1      30.343  -4.835  32.510  1.00  0.00    -0.287 OA
HETATM    4  N2  UNK     1      35.873  -6.296  34.996  1.00  0.00    -0.191 NA
HETATM    5  C1  UNK     1      32.516  -6.266  33.768  1.00  0.00     0.108 C 
HETATM    6  C2  UNK     1      31.393  -6.916  32.991  1.00  0.00     0.065 A 
HETATM    7  C4  UNK     1      33.650  -7.241  34.054  1.00  0.00     0.086 C 
HETATM    8  C5  UNK     1      31.344  -8.245  32.783  1.00  0.00     0.204 A 
HETATM    9  C6  UNK     1      30.327  -6.055  32.411  1.00  0.00     0.197 A 
HETATM   10  C7  UNK     1      29.243  -6.748  31.702  1.00  0.00     0.049 A 
HETATM   11  C8  UNK     1      33.518  -8.564  33.806  1.00  0.00     0.162 C 
HETATM   12  C9  UNK     1      29.299  -8.133  31.581  1.00  0.00     0.092 A 
HETATM   13  C12 UNK     1      28.175  -6.034  31.153  1.00  0.00     0.018 A 
HETATM   14  C13 UNK     1      28.282  -8.817  30.912  1.00  0.00     0.038 A 
HETATM   15  C16 UNK     1      34.878  -6.719  34.574  1.00  0.00     0.100 C 
HETATM   16  C18 UNK     1      27.159  -6.719  30.484  1.00  0.00     0.001 A 
HETATM   17  C19 UNK     1      27.213  -8.108  30.364  1.00  0.00     0.003 A 
ENDROOT
BRANCH   5  18
HETATM   18  C3  UNK     1      32.000  -5.682  35.051  1.00  0.00    -0.043 A 
HETATM   19  C10 UNK     1      31.235  -6.468  35.907  1.00  0.00     0.030 A 
HETATM   20  C14 UNK     1      30.754  -5.924  37.097  1.00  0.00     0.050 A 
HETATM   21 Br1  UNK     1      29.715  -6.991  38.263  1.00  0.00    -0.048 Br
HETATM   22  C17 UNK     1      31.041  -4.599  37.425  1.00  0.00     0.133 A 
HETATM   23  C15 UNK     1      31.807  -3.817  36.561  1.00  0.00     0.044 A 
HETATM   24  F1  UNK     1      30.587  -4.059  38.566  1.00  0.00    -0.205 F 
HETATM   25  C11 UNK     1      32.288  -4.360  35.370  1.00  0.00     0.011 A 
ENDBRANCH   5  18
BRANCH  11  26
HETATM   26  N1  UNK     1      34.477  -9.509  34.046  1.00  0.00    -0.379 N 
HETATM   27  H10 UNK     1      34.774  -9.673  35.000  1.00  0.00     0.158 HD
HETATM   28  H9  UNK     1      34.889 -10.037  33.287  1.00  0.00     0.158 HD
ENDBRANCH  11  26
TORSDOF 2
ENDMDL
MODEL 4
REMARK VINA RESULT:      -8.2      4.206      6.354
REMARK  2 active torsions:
REMARK  status: ('A' for Active; 'I' for Inactive)
REMARK    1  A    between atoms: C8_15  and  N1_6 
REMARK    2  A    between atoms: C1_8  and  C3_10 
ROOT
HETATM    1  O1  UNK     1      31.769  -4.980  34.871  1.00  0.00    -0.269 OA
HETATM    2  O2  UNK     1      31.170  -6.066  32.883  1.00  0.00    -0.286 OA
HETATM    3  O3  UNK     1      28.021  -7.901  34.691  1.00  0.00    -0.287 OA
HETATM    4  N2  UNK     1      30.028  -4.206  39.297  1.00  0.00    -0.191 NA
HETATM    5  C1  UNK     1      29.676  -6.235  36.375  1.00  0.00     0.108 C 
HETATM    6  C2  UNK     1      29.909  -6.469  34.899  1.00  0.00     0.065 A 
HETATM    7  C4  UNK     1      30.529  -5.094  36.914  1.00  0.00     0.086 C 
HETATM    8  C5  UNK     1      30.909  -5.865  34.229  1.00  0.00     0.204 A 
HETATM    9  C6  UNK     1      28.985  -7.368  34.158  1.00  0.00     0.197 A 
HETATM   10  C7  UNK     1      29.288  -7.586  32.737  1.00  0.00     0.049 A 
HETATM   11  C8  UNK     1      31.511  -4.538  36.168  1.00  0.00     0.162 C 
HETATM   12  C9  UNK     1      30.371  -6.921  32.172  1.00  0.00     0.092 A 
HETATM   13  C12 UNK     1      28.503  -8.443  31.960  1.00  0.00     0.018 A 
HETATM   14  C13 UNK     1      30.681  -7.110  30.824  1.00  0.00     0.038 A 
HETATM   15  C16 UNK     1      30.252  -4.604  38.230  1.00  0.00     0.100 C 
HETATM   16  C18 UNK     1      28.813  -8.631  30.613  1.00  0.00     0.001 A 
HETATM   17  C19 UNK     1      29.901  -7.965  30.046  1.00  0.00     0.003 A 
ENDROOT
BRANCH   5  18
HETATM   18  C3  UNK     1      29.938  -7.491  37.155  1.00  0.00    -0.043 A 
HETATM   19  C10 UNK     1      28.920  -8.053  37.917  1.00  0.00     0.030 A 
HETATM   20  C14 UNK     1      29.165  -9.218  38.643  1.00  0.00     0.050 A 
HETATM   21 Br1  UNK     1      27.781  -9.985  39.680  1.00  0.00    -0.048 Br
HETATM   22  C17 UNK     1      30.425  -9.814  38.601  1.00  0.00     0.133 A 
HETATM   23  C15 UNK     1      31.442  -9.244  37.835  1.00  0.00     0.044 A 
HETATM   24  F1  UNK     1      30.679 -10.936  39.291  1.00  0.00    -0.205 F 
HETATM   25  C11 UNK     1      31.197  -8.078  37.110  1.00  0.00     0.011 A 
ENDBRANCH   5  18
BRANCH  11  26
HETATM   26  N1  UNK     1      32.332  -3.524  36.577  1.00  0.00    -0.379 N 
HETATM   27  H10 UNK     1      31.915  -2.677  36.944  1.00  0.00     0.158 HD
HETATM   28  H9  UNK     1      33.338  -3.610  36.513  1.00  0.00     0.158 HD
ENDBRANCH  11  26
TORSDOF 2
ENDMDL
MODEL 5
REMARK VINA RESULT:      -8.2      4.162      6.003
REMARK  2 active torsions:
REMARK  status: ('A' for Active; 'I' for Inactive)
REMARK    1  A    between atoms: C8_15  and  N1_6 
REMARK    2  A    between atoms: C1_8  and  C3_10 
ROOT
HETATM    1  O1  UNK     1      33.285  -5.471  34.828  1.00  0.00    -0.269 OA
HETATM    2  O2  UNK     1      31.886  -4.964  36.639  1.00  0.00    -0.286 OA
HETATM    3  O3  UNK     1      29.069  -7.606  35.359  1.00  0.00    -0.287 OA
HETATM    4  N2  UNK     1      33.633  -8.677  31.247  1.00  0.00    -0.191 NA
HETATM    5  C1  UNK     1      31.406  -7.309  33.685  1.00  0.00     0.108 C 
HETATM    6  C2  UNK     1      31.167  -6.553  34.972  1.00  0.00     0.065 A 
HETATM    7  C4  UNK     1      32.838  -7.157  33.190  1.00  0.00     0.086 C 
HETATM    8  C5  UNK     1      32.073  -5.691  35.473  1.00  0.00     0.204 A 
HETATM    9  C6  UNK     1      29.907  -6.793  35.726  1.00  0.00     0.197 A 
HETATM   10  C7  UNK     1      29.716  -5.999  36.947  1.00  0.00     0.049 A 
HETATM   11  C8  UNK     1      33.686  -6.270  33.758  1.00  0.00     0.162 C 
HETATM   12  C9  UNK     1      30.721  -5.121  37.340  1.00  0.00     0.092 A 
HETATM   13  C12 UNK     1      28.550  -6.121  37.707  1.00  0.00     0.018 A 
HETATM   14  C13 UNK     1      30.566  -4.354  38.496  1.00  0.00     0.038 A 
HETATM   15  C16 UNK     1      33.277  -7.996  32.117  1.00  0.00     0.100 C 
HETATM   16  C18 UNK     1      28.395  -5.355  38.862  1.00  0.00     0.001 A 
HETATM   17  C19 UNK     1      29.402  -4.473  39.257  1.00  0.00     0.003 A 
ENDROOT
BRANCH   5  18
HETATM   18  C3  UNK     1      30.441  -6.861  32.625  1.00  0.00    -0.043 A 
HETATM   19  C10 UNK     1      29.660  -7.802  31.963  1.00  0.00     0.030 A 
HETATM   20  C14 UNK     1      28.765  -7.385  30.978  1.00  0.00     0.050 A 
HETATM   21 Br1  UNK     1      27.701  -8.664  30.077  1.00  0.00    -0.048 Br
HETATM   22  C17 UNK     1      28.658  -6.032  30.660  1.00  0.00     0.133 A 
HETATM   23  C15 UNK     1      29.446  -5.094  31.327  1.00  0.00     0.044 A 
HETATM   24  F1  UNK     1      27.803  -5.612  29.716  1.00  0.00    -0.205 F 
HETATM   25  C11 UNK     1      30.341  -5.511  32.313  1.00  0.00     0.011 A 
ENDBRANCH   5  18
BRANCH  11  26
HETATM   26  N1  UNK     1      34.980  -6.058  33.369  1.00  0.00    -0.379 N 
HETATM   27  H10 UNK     1      35.481  -5.266  33.752  1.00  0.00     0.158 HD
HETATM   28  H9  UNK     1      35.433  -6.676  32.708  1.00  0.00     0.158 HD
ENDBRANCH  11  26
TORSDOF 2
ENDMDL
MODEL 6
REMARK VINA RESULT:      -8.1      3.279      6.256
REMARK  2 active torsions:
REMARK  status: ('A' for Active; 'I' for Inactive)
REMARK    1  A    between atoms: C8_15  and  N1_6 
REMARK    2  A    between atoms: C1_8  and  C3_10 
ROOT
HETATM    1  O1  UNK     1      32.179  -6.410  36.764  1.00  0.00    -0.269 OA
HETATM    2  O2  UNK     1      31.979  -7.491  34.695  1.00  0.00    -0.286 OA
HETATM    3  O3  UNK     1      27.929  -7.098  34.743  1.00  0.00    -0.287 OA
HETATM    4  N2  UNK     1      29.480  -3.899  39.868  1.00  0.00    -0.191 NA
HETATM    5  C1  UNK     1      29.343  -6.109  37.062  1.00  0.00     0.108 C 
HETATM    6  C2  UNK     1      30.001  -6.758  35.864  1.00  0.00     0.065 A 
HETATM    7  C4  UNK     1      30.359  -5.437  37.976  1.00  0.00     0.086 C 
HETATM    8  C5  UNK     1      31.337  -6.887  35.765  1.00  0.00     0.204 A 
HETATM    9  C6  UNK     1      29.146  -7.238  34.745  1.00  0.00     0.197 A 
HETATM   10  C7  UNK     1      29.839  -7.894  33.629  1.00  0.00     0.049 A 
HETATM   11  C8  UNK     1      31.688  -5.615  37.799  1.00  0.00     0.162 C 
HETATM   12  C9  UNK     1      31.226  -7.987  33.664  1.00  0.00     0.092 A 
HETATM   13  C12 UNK     1      29.124  -8.414  32.547  1.00  0.00     0.018 A 
HETATM   14  C13 UNK     1      31.911  -8.606  32.616  1.00  0.00     0.038 A 
HETATM   15  C16 UNK     1      29.873  -4.588  39.021  1.00  0.00     0.100 C 
HETATM   16  C18 UNK     1      29.809  -9.032  31.500  1.00  0.00     0.001 A 
HETATM   17  C19 UNK     1      31.201  -9.127  31.535  1.00  0.00     0.003 A 
ENDROOT
BRANCH   5  18
HETATM   18  C3  UNK     1      28.541  -7.118  37.832  1.00  0.00    -0.043 A 
HETATM   19  C10 UNK     1      27.169  -6.946  37.970  1.00  0.00     0.030 A 
HETATM   20  C14 UNK     1      26.424  -7.882  38.687  1.00  0.00     0.050 A 
HETATM   21 Br1  UNK     1      24.557  -7.650  38.875  1.00  0.00    -0.048 Br
HETATM   22  C17 UNK     1      27.057  -8.984  39.261  1.00  0.00     0.133 A 
HETATM   23  C15 UNK     1      28.435  -9.150  39.120  1.00  0.00     0.044 A 
HETATM   24  F1  UNK     1      26.358  -9.895  39.954  1.00  0.00    -0.205 F 
HETATM   25  C11 UNK     1      29.179  -8.213  38.403  1.00  0.00     0.011 A 
ENDBRANCH   5  18
BRANCH  11  26
HETATM   26  N1  UNK     1      32.667  -5.064  38.579  1.00  0.00    -0.379 N 
HETATM   27  H10 UNK     1      33.172  -4.258  38.232  1.00  0.00     0.158 HD
HETATM   28  H9  UNK     1      32.889  -5.451  39.487  1.00  0.00     0.158 HD
ENDBRANCH  11  26
TORSDOF 2
ENDMDL
MODEL 7
REMARK VINA RESULT:      -8.1     32.859     34.336
REMARK  2 active torsions:
REMARK  status: ('A' for Active; 'I' for Inactive)
REMARK    1  A    between atoms: C8_15  and  N1_6 
REMARK    2  A    between atoms: C1_8  and  C3_10 
ROOT
HETATM    1  O1  UNK     1      16.980   8.422   9.997  1.00  0.00    -0.269 OA
HETATM    2  O2  UNK     1      16.190  10.458  10.847  1.00  0.00    -0.286 OA
HETATM    3  O3  UNK     1      12.583   8.814  11.767  1.00  0.00    -0.287 OA
HETATM    4  N2  UNK     1      15.706   3.778   9.822  1.00  0.00    -0.191 NA
HETATM    5  C1  UNK     1      14.491   7.078  10.464  1.00  0.00     0.108 C 
HETATM    6  C2  UNK     1      14.742   8.529  10.808  1.00  0.00     0.065 A 
HETATM    7  C4  UNK     1      15.770   6.359  10.056  1.00  0.00     0.086 C 
HETATM    8  C5  UNK     1      15.924   9.127  10.566  1.00  0.00     0.204 A 
HETATM    9  C6  UNK     1      13.660   9.311  11.464  1.00  0.00     0.197 A 
HETATM   10  C7  UNK     1      13.951  10.725  11.737  1.00  0.00     0.049 A 
HETATM   11  C8  UNK     1      16.919   7.038   9.840  1.00  0.00     0.162 C 
HETATM   12  C9  UNK     1      15.206  11.226  11.411  1.00  0.00     0.092 A 
HETATM   13  C12 UNK     1      12.988  11.556  12.316  1.00  0.00     0.018 A 
HETATM   14  C13 UNK     1      15.509  12.566  11.659  1.00  0.00     0.038 A 
HETATM   15  C16 UNK     1      15.734   4.933   9.927  1.00  0.00     0.100 C 
HETATM   16  C18 UNK     1      13.291  12.895  12.564  1.00  0.00     0.001 A 
HETATM   17  C19 UNK     1      14.551  13.399  12.236  1.00  0.00     0.003 A 
ENDROOT
BRANCH   5  18
HETATM   18  C3  UNK     1      13.464   6.965   9.375  1.00  0.00    -0.043 A 
HETATM   19  C10 UNK     1      12.220   6.410   9.657  1.00  0.00     0.030 A 
HETATM   20  C14 UNK     1      11.267   6.304   8.645  1.00  0.00     0.050 A 
HETATM   21 Br1  UNK     1       9.575   5.550   9.026  1.00  0.00    -0.048 Br
HETATM   22  C17 UNK     1      11.563   6.753   7.358  1.00  0.00     0.133 A 
HETATM   23  C15 UNK     1      12.813   7.307   7.083  1.00  0.00     0.044 A 
HETATM   24  F1  UNK     1      10.658   6.660   6.372  1.00  0.00    -0.205 F 
HETATM   25  C11 UNK     1      13.766   7.413   8.095  1.00  0.00     0.011 A 
ENDBRANCH   5  18
BRANCH  11  26
HETATM   26  N1  UNK     1      18.106   6.476   9.458  1.00  0.00    -0.379 N 
HETATM   27  H10 UNK     1      18.183   5.467   9.433  1.00  0.00     0.158 HD
HETATM   28  H9  UNK     1      18.899   7.053   9.208  1.00  0.00     0.158 HD
ENDBRANCH  11  26
TORSDOF 2
ENDMDL
MODEL 8
REMARK VINA RESULT:      -8.1      4.616      7.059
REMARK  2 active torsions:
REMARK  status: ('A' for Active; 'I' for Inactive)
REMARK    1  A    between atoms: C8_15  and  N1_6 
REMARK    2  A    between atoms: C1_8  and  C3_10 
ROOT
HETATM    1  O1  UNK     1      32.612  -8.954  33.223  1.00  0.00    -0.269 OA
HETATM    2  O2  UNK     1      30.750  -9.040  31.803  1.00  0.00    -0.286 OA
HETATM    3  O3  UNK     1      29.164  -5.690  33.479  1.00  0.00    -0.287 OA
HETATM    4  N2  UNK     1      34.664  -5.974  36.406  1.00  0.00    -0.191 NA
HETATM    5  C1  UNK     1      31.642  -6.645  34.618  1.00  0.00     0.108 C 
HETATM    6  C2  UNK     1      30.911  -7.305  33.470  1.00  0.00     0.065 A 
HETATM    7  C4  UNK     1      33.047  -7.205  34.796  1.00  0.00     0.086 C 
HETATM    8  C5  UNK     1      31.397  -8.394  32.845  1.00  0.00     0.204 A 
HETATM    9  C6  UNK     1      29.631  -6.713  32.996  1.00  0.00     0.197 A 
HETATM   10  C7  UNK     1      28.949  -7.422  31.906  1.00  0.00     0.049 A 
HETATM   11  C8  UNK     1      33.457  -8.302  34.120  1.00  0.00     0.162 C 
HETATM   12  C9  UNK     1      29.547  -8.555  31.365  1.00  0.00     0.092 A 
HETATM   13  C12 UNK     1      27.722  -6.969  31.414  1.00  0.00     0.018 A 
HETATM   14  C13 UNK     1      28.921  -9.248  30.328  1.00  0.00     0.038 A 
HETATM   15  C16 UNK     1      33.940  -6.525  35.685  1.00  0.00     0.100 C 
HETATM   16  C18 UNK     1      27.096  -7.662  30.377  1.00  0.00     0.001 A 
HETATM   17  C19 UNK     1      27.695  -8.800  29.834  1.00  0.00     0.003 A 
ENDROOT
BRANCH   5  18
HETATM   18  C3  UNK     1      30.862  -6.790  35.892  1.00  0.00    -0.043 A 
HETATM   19  C10 UNK     1      30.592  -5.666  36.665  1.00  0.00     0.030 A 
HETATM   20  C14 UNK     1      29.868  -5.802  37.850  1.00  0.00     0.050 A 
HETATM   21 Br1  UNK     1      29.499  -4.274  38.902  1.00  0.00    -0.048 Br
HETATM   22  C17 UNK     1      29.420  -7.059  38.253  1.00  0.00     0.133 A 
HETATM   23  C15 UNK     1      29.696  -8.182  37.473  1.00  0.00     0.044 A 
HETATM   24  F1  UNK     1      28.722  -7.209  39.389  1.00  0.00    -0.205 F 
HETATM   25  C11 UNK     1      30.420  -8.046  36.289  1.00  0.00     0.011 A 
ENDBRANCH   5  18
BRANCH  11  26
HETATM   26  N1  UNK     1      34.692  -8.879  34.230  1.00  0.00    -0.379 N 
HETATM   27  H10 UNK     1      34.753  -9.859  34.473  1.00  0.00     0.158 HD
HETATM   28  H9  UNK     1      35.534  -8.339  34.075  1.00  0.00     0.158 HD
ENDBRANCH  11  26
TORSDOF 2
ENDMDL
MODEL 9
REMARK VINA RESULT:      -8.0      3.396      4.823
REMARK  2 active torsions:
REMARK  status: ('A' for Active; 'I' for Inactive)
REMARK    1  A    between atoms: C8_15  and  N1_6 
REMARK    2  A    between atoms: C1_8  and  C3_10 
ROOT
HETATM    1  O1  UNK     1      31.121  -6.127  35.788  1.00  0.00    -0.269 OA
HETATM    2  O2  UNK     1      29.662  -6.975  37.415  1.00  0.00    -0.286 OA
HETATM    3  O3  UNK     1      28.417  -9.944  34.927  1.00  0.00    -0.287 OA
HETATM    4  N2  UNK     1      32.915  -7.336  31.483  1.00  0.00    -0.191 NA
HETATM    5  C1  UNK     1      30.324  -8.067  33.834  1.00  0.00     0.108 C 
HETATM    6  C2  UNK     1      29.766  -8.008  35.238  1.00  0.00     0.065 A 
HETATM    7  C4  UNK     1      31.511  -7.130  33.652  1.00  0.00     0.086 C 
HETATM    8  C5  UNK     1      30.161  -7.076  36.126  1.00  0.00     0.204 A 
HETATM    9  C6  UNK     1      28.775  -9.033  35.663  1.00  0.00     0.197 A 
HETATM   10  C7  UNK     1      28.240  -8.899  37.025  1.00  0.00     0.049 A 
HETATM   11  C8  UNK     1      31.843  -6.226  34.601  1.00  0.00     0.162 C 
HETATM   12  C9  UNK     1      28.714  -7.871  37.833  1.00  0.00     0.092 A 
HETATM   13  C12 UNK     1      27.276  -9.788  37.507  1.00  0.00     0.018 A 
HETATM   14  C13 UNK     1      28.224  -7.720  39.131  1.00  0.00     0.038 A 
HETATM   15  C16 UNK     1      32.286  -7.244  32.454  1.00  0.00     0.100 C 
HETATM   16  C18 UNK     1      26.787  -9.637  38.805  1.00  0.00     0.001 A 
HETATM   17  C19 UNK     1      27.260  -8.605  39.616  1.00  0.00     0.003 A 
ENDROOT
BRANCH   5  18
HETATM   18  C3  UNK     1      29.254  -7.749  32.829  1.00  0.00    -0.043 A 
HETATM   19  C10 UNK     1      29.102  -8.557  31.708  1.00  0.00     0.030 A 
HETATM   20  C14 UNK     1      28.109  -8.261  30.774  1.00  0.00     0.050 A 
HETATM   21 Br1  UNK     1      27.899  -9.359  29.248  1.00  0.00    -0.048 Br
HETATM   22  C17 UNK     1      27.276  -7.159  30.968  1.00  0.00     0.133 A 
HETATM   23  C15 UNK     1      27.436  -6.353  32.094  1.00  0.00     0.044 A 
HETATM   24  F1  UNK     1      26.316  -6.859  30.081  1.00  0.00    -0.205 F 
HETATM   25  C11 UNK     1      28.429  -6.649  33.028  1.00  0.00     0.011 A 
ENDBRANCH   5  18
BRANCH  11  26
HETATM   26  N1  UNK     1      32.881  -5.339  34.513  1.00  0.00    -0.379 N 
HETATM   27  H10 UNK     1      33.382  -5.090  35.357  1.00  0.00     0.158 HD
HETATM   28  H9  UNK     1      33.145  -4.933  33.625  1.00  0.00     0.158 HD
ENDBRANCH  11  26
TORSDOF 2
ENDMDL
MODEL 10
REMARK VINA RESULT:      -8.0      7.195      9.297
REMARK  2 active torsions:
REMARK  status: ('A' for Active; 'I' for Inactive)
REMARK    1  A    between atoms: C8_15  and  N1_6 
REMARK    2  A    between atoms: C1_8  and  C3_10 
ROOT
HETATM    1  O1  UNK     1      34.061  -9.349  29.693  1.00  0.00    -0.269 OA
HETATM    2  O2  UNK     1      31.871  -9.803  28.995  1.00  0.00    -0.286 OA
HETATM    3  O3  UNK     1      30.346  -7.063  31.587  1.00  0.00    -0.287 OA
HETATM    4  N2  UNK     1      36.464  -6.161  32.393  1.00  0.00    -0.191 NA
HETATM    5  C1  UNK     1      33.210  -7.446  31.661  1.00  0.00     0.108 C 
HETATM    6  C2  UNK     1      32.264  -8.192  30.746  1.00  0.00     0.065 A 
HETATM    7  C4  UNK     1      34.666  -7.650  31.265  1.00  0.00     0.086 C 
HETATM    8  C5  UNK     1      32.704  -9.084  29.838  1.00  0.00     0.204 A 
HETATM    9  C6  UNK     1      30.807  -7.906  30.828  1.00  0.00     0.197 A 
HETATM   10  C7  UNK     1      29.937  -8.691  29.942  1.00  0.00     0.049 A 
HETATM   11  C8  UNK     1      35.019  -8.566  30.335  1.00  0.00     0.162 C 
HETATM   12  C9  UNK     1      30.518  -9.604  29.069  1.00  0.00     0.092 A 
HETATM   13  C12 UNK     1      28.550  -8.526  29.969  1.00  0.00     0.018 A 
HETATM   14  C13 UNK     1      29.716 -10.363  28.216  1.00  0.00     0.038 A 
HETATM   15  C16 UNK     1      35.659  -6.828  31.888  1.00  0.00     0.100 C 
HETATM   16  C18 UNK     1      27.748  -9.285  29.116  1.00  0.00     0.001 A 
HETATM   17  C19 UNK     1      28.330 -10.202  28.241  1.00  0.00     0.003 A 
ENDROOT
BRANCH   5  18
HETATM   18  C3  UNK     1      32.997  -7.860  33.088  1.00  0.00    -0.043 A 
HETATM   19  C10 UNK     1      32.734  -6.894  34.053  1.00  0.00     0.030 A 
HETATM   20  C14 UNK     1      32.539  -7.280  35.379  1.00  0.00     0.050 A 
HETATM   21 Br1  UNK     1      32.180  -5.967  36.693  1.00  0.00    -0.048 Br
HETATM   22  C17 UNK     1      32.608  -8.627  35.731  1.00  0.00     0.133 A 
HETATM   23  C15 UNK     1      32.873  -9.590  34.757  1.00  0.00     0.044 A 
HETATM   24  F1  UNK     1      32.422  -9.017  37.001  1.00  0.00    -0.205 F 
HETATM   25  C11 UNK     1      33.069  -9.204  33.431  1.00  0.00     0.011 A 
ENDBRANCH   5  18
BRANCH  11  26
HETATM   26  N1  UNK     1      36.300  -8.824  29.932  1.00  0.00    -0.379 N 
HETATM   27  H10 UNK     1      36.537  -9.761  29.630  1.00  0.00     0.158 HD
HETATM   28  H9  UNK     1      37.004  -8.097  29.936  1.00  0.00     0.158 HD
ENDBRANCH  11  26
TORSDOF 2
ENDMDL
