MODEL 1
REMARK VINA RESULT:      -9.1      0.000      0.000
REMARK  4 active torsions:
REMARK  status: ('A' for Active; 'I' for Inactive)
REMARK    1  A    between atoms: C12_17  and  O2_2 
REMARK       I    between atoms: C10_15  and  N1_5 
REMARK    2  A    between atoms: C3_8  and  N1_5 
REMARK    3  A    between atoms: C10_15  and  C5_10 
REMARK    4  A    between atoms: C5_10  and  C8_13 
ROOT
HETATM    1  O3  UNK     1      19.037   4.050  29.507  1.00  0.00    -0.273 OA
HETATM    2  N1  UNK     1      17.931   3.919  31.579  1.00  0.00    -0.327 N 
HETATM    3  C10 UNK     1      18.345   3.448  30.321  1.00  0.00     0.226 C 
HETATM    4  H6  UNK     1      17.360   3.291  32.140  1.00  0.00     0.169 HD
ENDROOT
BRANCH   2   5
HETATM    5  C3  UNK     1      18.210   5.150  32.174  1.00  0.00     0.037 A 
HETATM    6  C6  UNK     1      17.208   6.105  32.302  1.00  0.00     0.067 A 
HETATM    7  C2  UNK     1      17.508   7.330  32.902  1.00  0.00     0.092 A 
HETATM    8  C1  UNK     1      18.783   7.634  33.380  1.00  0.00     0.004 A 
HETATM    9  O1  UNK     1      16.452   8.258  33.004  1.00  0.00    -0.275 OA
HETATM   10  C4  UNK     1      19.010   8.947  33.996  1.00  0.00    -0.043 A 
HETATM   11  C7  UNK     1      19.779   6.657  33.240  1.00  0.00     0.017 A 
HETATM   12  C11 UNK     1      17.987   9.810  34.079  1.00  0.00     0.090 A 
HETATM   13  C13 UNK     1      20.370   9.304  34.519  1.00  0.00     0.049 C 
HETATM   14  C15 UNK     1      16.636   9.505  33.581  1.00  0.00     0.288 A 
HETATM   15  O4  UNK     1      15.724  10.319  33.675  1.00  0.00    -0.260 OA
HETATM   16  C9  UNK     1      19.494   5.424  32.642  1.00  0.00     0.030 A 
ENDBRANCH   2   5
BRANCH   3  17
HETATM   17  C5  UNK     1      17.817   2.046  30.061  1.00  0.00     0.144 C 
BRANCH  17  18
HETATM   18  C8  UNK     1      18.886   0.987  30.101  1.00  0.00    -0.016 A 
HETATM   19  C12 UNK     1      19.287   0.441  31.313  1.00  0.00     0.074 A 
HETATM   20  C16 UNK     1      20.279  -0.538  31.331  1.00  0.00     0.037 A 
HETATM   21  C18 UNK     1      20.863  -0.964  30.138  1.00  0.00     0.003 A 
HETATM   22  C17 UNK     1      20.452  -0.409  28.926  1.00  0.00     0.001 A 
HETATM   23  C14 UNK     1      19.460   0.571  28.907  1.00  0.00     0.010 A 
BRANCH  19  24
HETATM   24  O2  UNK     1      18.727   0.844  32.488  1.00  0.00    -0.355 OA
HETATM   25  C19 UNK     1      18.541  -0.151  33.492  1.00  0.00     0.210 C 
ENDBRANCH  19  24
ENDBRANCH  17  18
ENDBRANCH   3  17
TORSDOF 4
ENDMDL
MODEL 2
REMARK VINA RESULT:      -8.9      7.475     13.176
REMARK  4 active torsions:
REMARK  status: ('A' for Active; 'I' for Inactive)
REMARK    1  A    between atoms: C12_17  and  O2_2 
REMARK       I    between atoms: C10_15  and  N1_5 
REMARK    2  A    between atoms: C3_8  and  N1_5 
REMARK    3  A    between atoms: C10_15  and  C5_10 
REMARK    4  A    between atoms: C5_10  and  C8_13 
ROOT
HETATM    1  O3  UNK     1      21.176  -3.596  36.701  1.00  0.00    -0.273 OA
HETATM    2  N1  UNK     1      19.165  -4.625  36.044  1.00  0.00    -0.327 N 
HETATM    3  C10 UNK     1      20.048  -3.545  36.223  1.00  0.00     0.226 C 
HETATM    4  H6  UNK     1      18.261  -4.415  35.627  1.00  0.00     0.169 HD
ENDROOT
BRANCH   2   5
HETATM    5  C3  UNK     1      19.369  -5.968  36.362  1.00  0.00     0.037 A 
HETATM    6  C6  UNK     1      20.220  -6.747  35.587  1.00  0.00     0.067 A 
HETATM    7  C2  UNK     1      20.410  -8.089  35.924  1.00  0.00     0.092 A 
HETATM    8  C1  UNK     1      19.773  -8.681  37.015  1.00  0.00     0.004 A 
HETATM    9  O1  UNK     1      21.284  -8.828  35.101  1.00  0.00    -0.275 OA
HETATM   10  C4  UNK     1      20.031 -10.100  37.296  1.00  0.00    -0.043 A 
HETATM   11  C7  UNK     1      18.919  -7.878  37.784  1.00  0.00     0.017 A 
HETATM   12  C11 UNK     1      20.867 -10.778  36.497  1.00  0.00     0.090 A 
HETATM   13  C13 UNK     1      19.362 -10.765  38.463  1.00  0.00     0.049 C 
HETATM   14  C15 UNK     1      21.546 -10.168  35.342  1.00  0.00     0.288 A 
HETATM   15  O4  UNK     1      22.305 -10.820  34.633  1.00  0.00    -0.260 OA
HETATM   16  C9  UNK     1      18.719  -6.532  37.459  1.00  0.00     0.030 A 
ENDBRANCH   2   5
BRANCH   3  17
HETATM   17  C5  UNK     1      19.426  -2.245  35.739  1.00  0.00     0.144 C 
BRANCH  17  18
HETATM   18  C8  UNK     1      19.619  -2.001  34.266  1.00  0.00    -0.016 A 
HETATM   19  C12 UNK     1      18.776  -1.136  33.582  1.00  0.00     0.074 A 
HETATM   20  C16 UNK     1      18.969  -0.923  32.217  1.00  0.00     0.037 A 
HETATM   21  C18 UNK     1      20.004  -1.576  31.549  1.00  0.00     0.003 A 
HETATM   22  C17 UNK     1      20.847  -2.442  32.245  1.00  0.00     0.001 A 
HETATM   23  C14 UNK     1      20.653  -2.657  33.610  1.00  0.00     0.010 A 
BRANCH  19  24
HETATM   24  O2  UNK     1      17.761  -0.490  34.219  1.00  0.00    -0.355 OA
HETATM   25  C19 UNK     1      17.909   0.915  34.415  1.00  0.00     0.210 C 
ENDBRANCH  19  24
ENDBRANCH  17  18
ENDBRANCH   3  17
TORSDOF 4
ENDMDL
MODEL 3
REMARK VINA RESULT:      -8.8      7.656     13.576
REMARK  4 active torsions:
REMARK  status: ('A' for Active; 'I' for Inactive)
REMARK    1  A    between atoms: C12_17  and  O2_2 
REMARK       I    between atoms: C10_15  and  N1_5 
REMARK    2  A    between atoms: C3_8  and  N1_5 
REMARK    3  A    between atoms: C10_15  and  C5_10 
REMARK    4  A    between atoms: C5_10  and  C8_13 
ROOT
HETATM    1  O3  UNK     1      21.158  -3.528  36.740  1.00  0.00    -0.273 OA
HETATM    2  N1  UNK     1      19.491  -4.696  35.561  1.00  0.00    -0.327 N 
HETATM    3  C10 UNK     1      20.233  -3.563  35.935  1.00  0.00     0.226 C 
HETATM    4  H6  UNK     1      18.754  -4.557  34.873  1.00  0.00     0.169 HD
ENDROOT
BRANCH   2   5
HETATM    5  C3  UNK     1      19.636  -6.009  36.009  1.00  0.00     0.037 A 
HETATM    6  C6  UNK     1      20.472  -6.890  35.331  1.00  0.00     0.067 A 
HETATM    7  C2  UNK     1      20.603  -8.200  35.797  1.00  0.00     0.092 A 
HETATM    8  C1  UNK     1      19.922  -8.661  36.924  1.00  0.00     0.004 A 
HETATM    9  O1  UNK     1      21.465  -9.044  35.069  1.00  0.00    -0.275 OA
HETATM   10  C4  UNK     1      20.119 -10.055  37.344  1.00  0.00    -0.043 A 
HETATM   11  C7  UNK     1      19.084  -7.758  37.592  1.00  0.00     0.017 A 
HETATM   12  C11 UNK     1      20.945 -10.836  36.632  1.00  0.00     0.090 A 
HETATM   13  C13 UNK     1      19.401 -10.582  38.551  1.00  0.00     0.049 C 
HETATM   14  C15 UNK     1      21.671 -10.364  35.442  1.00  0.00     0.288 A 
HETATM   15  O4  UNK     1      22.418 -11.108  34.816  1.00  0.00    -0.260 OA
HETATM   16  C9  UNK     1      18.943  -6.442  37.138  1.00  0.00     0.030 A 
ENDBRANCH   2   5
BRANCH   3  17
HETATM   17  C5  UNK     1      19.744  -2.322  35.204  1.00  0.00     0.144 C 
BRANCH  17  18
HETATM   18  C8  UNK     1      18.976  -1.372  36.084  1.00  0.00    -0.016 A 
HETATM   19  C12 UNK     1      18.667  -0.096  35.635  1.00  0.00     0.074 A 
HETATM   20  C16 UNK     1      17.955   0.771  36.464  1.00  0.00     0.037 A 
HETATM   21  C18 UNK     1      17.558   0.353  37.734  1.00  0.00     0.003 A 
HETATM   22  C17 UNK     1      17.872  -0.932  38.174  1.00  0.00     0.001 A 
HETATM   23  C14 UNK     1      18.585  -1.799  37.346  1.00  0.00     0.010 A 
BRANCH  19  24
HETATM   24  O2  UNK     1      19.047   0.328  34.397  1.00  0.00    -0.355 OA
HETATM   25  C19 UNK     1      18.262   1.356  33.796  1.00  0.00     0.210 C 
ENDBRANCH  19  24
ENDBRANCH  17  18
ENDBRANCH   3  17
TORSDOF 4
ENDMDL
MODEL 4
REMARK VINA RESULT:      -8.8      6.830     12.500
REMARK  4 active torsions:
REMARK  status: ('A' for Active; 'I' for Inactive)
REMARK    1  A    between atoms: C12_17  and  O2_2 
REMARK       I    between atoms: C10_15  and  N1_5 
REMARK    2  A    between atoms: C3_8  and  N1_5 
REMARK    3  A    between atoms: C10_15  and  C5_10 
REMARK    4  A    between atoms: C5_10  and  C8_13 
ROOT
HETATM    1  O3  UNK     1      20.143  -2.071  36.114  1.00  0.00    -0.273 OA
HETATM    2  N1  UNK     1      18.754  -3.911  36.581  1.00  0.00    -0.327 N 
HETATM    3  C10 UNK     1      19.033  -2.569  36.271  1.00  0.00     0.226 C 
HETATM    4  H6  UNK     1      17.774  -4.168  36.673  1.00  0.00     0.169 HD
ENDROOT
BRANCH   2   5
HETATM    5  C3  UNK     1      19.656  -4.958  36.776  1.00  0.00     0.037 A 
HETATM    6  C6  UNK     1      19.743  -5.988  35.846  1.00  0.00     0.067 A 
HETATM    7  C2  UNK     1      20.652  -7.025  36.061  1.00  0.00     0.092 A 
HETATM    8  C1  UNK     1      21.483  -7.067  37.181  1.00  0.00     0.004 A 
HETATM    9  O1  UNK     1      20.694  -8.039  35.083  1.00  0.00    -0.275 OA
HETATM   10  C4  UNK     1      22.411  -8.197  37.327  1.00  0.00    -0.043 A 
HETATM   11  C7  UNK     1      21.380  -6.020  38.106  1.00  0.00     0.017 A 
HETATM   12  C11 UNK     1      22.429  -9.147  36.382  1.00  0.00     0.090 A 
HETATM   13  C13 UNK     1      23.317  -8.271  38.520  1.00  0.00     0.049 C 
HETATM   14  C15 UNK     1      21.560  -9.117  35.194  1.00  0.00     0.288 A 
HETATM   15  O4  UNK     1      21.605 -10.005  34.350  1.00  0.00    -0.260 OA
HETATM   16  C9  UNK     1      20.473  -4.973  37.905  1.00  0.00     0.030 A 
ENDBRANCH   2   5
BRANCH   3  17
HETATM   17  C5  UNK     1      17.753  -1.759  36.144  1.00  0.00     0.144 C 
BRANCH  17  18
HETATM   18  C8  UNK     1      17.987  -0.331  35.726  1.00  0.00    -0.016 A 
HETATM   19  C12 UNK     1      17.973   0.018  34.383  1.00  0.00     0.074 A 
HETATM   20  C16 UNK     1      18.192   1.344  34.015  1.00  0.00     0.037 A 
HETATM   21  C18 UNK     1      18.423   2.311  34.993  1.00  0.00     0.003 A 
HETATM   22  C17 UNK     1      18.434   1.950  36.341  1.00  0.00     0.001 A 
HETATM   23  C14 UNK     1      18.216   0.623  36.709  1.00  0.00     0.010 A 
BRANCH  19  24
HETATM   24  O2  UNK     1      17.748  -0.914  33.414  1.00  0.00    -0.355 OA
HETATM   25  C19 UNK     1      18.850  -1.258  32.578  1.00  0.00     0.210 C 
ENDBRANCH  19  24
ENDBRANCH  17  18
ENDBRANCH   3  17
TORSDOF 4
ENDMDL
MODEL 5
REMARK VINA RESULT:      -8.7      1.312      8.510
REMARK  4 active torsions:
REMARK  status: ('A' for Active; 'I' for Inactive)
REMARK    1  A    between atoms: C12_17  and  O2_2 
REMARK       I    between atoms: C10_15  and  N1_5 
REMARK    2  A    between atoms: C3_8  and  N1_5 
REMARK    3  A    between atoms: C10_15  and  C5_10 
REMARK    4  A    between atoms: C5_10  and  C8_13 
ROOT
HETATM    1  O3  UNK     1      18.781   5.760  30.818  1.00  0.00    -0.273 OA
HETATM    2  N1  UNK     1      17.663   4.068  32.010  1.00  0.00    -0.327 N 
HETATM    3  C10 UNK     1      17.955   5.394  31.648  1.00  0.00     0.226 C 
HETATM    4  H6  UNK     1      16.944   3.932  32.717  1.00  0.00     0.169 HD
ENDROOT
BRANCH   2   5
HETATM    5  C3  UNK     1      18.234   2.893  31.519  1.00  0.00     0.037 A 
HETATM    6  C6  UNK     1      18.505   1.836  32.379  1.00  0.00     0.067 A 
HETATM    7  C2  UNK     1      19.076   0.669  31.867  1.00  0.00     0.092 A 
HETATM    8  C1  UNK     1      19.387   0.524  30.514  1.00  0.00     0.004 A 
HETATM    9  O1  UNK     1      19.326  -0.368  32.788  1.00  0.00    -0.275 OA
HETATM   10  C4  UNK     1      19.986  -0.739  30.061  1.00  0.00    -0.043 A 
HETATM   11  C7  UNK     1      19.107   1.602  29.664  1.00  0.00     0.017 A 
HETATM   12  C11 UNK     1      20.214  -1.708  30.959  1.00  0.00     0.090 A 
HETATM   13  C13 UNK     1      20.333  -0.926  28.613  1.00  0.00     0.049 C 
HETATM   14  C15 UNK     1      19.890  -1.570  32.389  1.00  0.00     0.288 A 
HETATM   15  O4  UNK     1      20.113  -2.479  33.181  1.00  0.00    -0.260 OA
HETATM   16  C9  UNK     1      18.535   2.778  30.163  1.00  0.00     0.030 A 
ENDBRANCH   2   5
BRANCH   3  17
HETATM   17  C5  UNK     1      17.098   6.376  32.431  1.00  0.00     0.144 C 
BRANCH  17  18
HETATM   18  C8  UNK     1      17.899   7.435  33.142  1.00  0.00    -0.016 A 
HETATM   19  C12 UNK     1      17.484   8.759  33.123  1.00  0.00     0.074 A 
HETATM   20  C16 UNK     1      18.239   9.726  33.786  1.00  0.00     0.037 A 
HETATM   21  C18 UNK     1      19.402   9.360  34.463  1.00  0.00     0.003 A 
HETATM   22  C17 UNK     1      19.810   8.026  34.477  1.00  0.00     0.001 A 
HETATM   23  C14 UNK     1      19.056   7.059  33.813  1.00  0.00     0.010 A 
BRANCH  19  24
HETATM   24  O2  UNK     1      16.351   9.134  32.467  1.00  0.00    -0.355 OA
HETATM   25  C19 UNK     1      15.267   9.604  33.264  1.00  0.00     0.210 C 
ENDBRANCH  19  24
ENDBRANCH  17  18
ENDBRANCH   3  17
TORSDOF 4
ENDMDL
MODEL 6
REMARK VINA RESULT:      -8.7      5.214      8.959
REMARK  4 active torsions:
REMARK  status: ('A' for Active; 'I' for Inactive)
REMARK    1  A    between atoms: C12_17  and  O2_2 
REMARK       I    between atoms: C10_15  and  N1_5 
REMARK    2  A    between atoms: C3_8  and  N1_5 
REMARK    3  A    between atoms: C10_15  and  C5_10 
REMARK    4  A    between atoms: C5_10  and  C8_13 
ROOT
HETATM    1  O3  UNK     1      21.647  -2.403  35.939  1.00  0.00    -0.273 OA
HETATM    2  N1  UNK     1      19.532  -2.683  34.947  1.00  0.00    -0.327 N 
HETATM    3  C10 UNK     1      20.493  -2.817  35.964  1.00  0.00     0.226 C 
HETATM    4  H6  UNK     1      18.613  -3.082  35.126  1.00  0.00     0.169 HD
ENDROOT
BRANCH   2   5
HETATM    5  C3  UNK     1      19.671  -2.062  33.705  1.00  0.00     0.037 A 
HETATM    6  C6  UNK     1      18.986  -0.883  33.434  1.00  0.00     0.067 A 
HETATM    7  C2  UNK     1      19.139  -0.278  32.185  1.00  0.00     0.092 A 
HETATM    8  C1  UNK     1      19.961  -0.814  31.193  1.00  0.00     0.004 A 
HETATM    9  O1  UNK     1      18.419   0.915  31.970  1.00  0.00    -0.275 OA
HETATM   10  C4  UNK     1      20.064  -0.110  29.908  1.00  0.00    -0.043 A 
HETATM   11  C7  UNK     1      20.643  -2.003  31.487  1.00  0.00     0.017 A 
HETATM   12  C11 UNK     1      19.367   1.021  29.730  1.00  0.00     0.090 A 
HETATM   13  C13 UNK     1      20.938  -0.662  28.820  1.00  0.00     0.049 C 
HETATM   14  C15 UNK     1      18.497   1.600  30.767  1.00  0.00     0.288 A 
HETATM   15  O4  UNK     1      17.875   2.638  30.568  1.00  0.00    -0.260 OA
HETATM   16  C9  UNK     1      20.499  -2.621  32.734  1.00  0.00     0.030 A 
ENDBRANCH   2   5
BRANCH   3  17
HETATM   17  C5  UNK     1      19.923  -3.567  37.158  1.00  0.00     0.144 C 
BRANCH  17  18
HETATM   18  C8  UNK     1      19.938  -5.063  36.988  1.00  0.00    -0.016 A 
HETATM   19  C12 UNK     1      21.074  -5.794  37.308  1.00  0.00     0.074 A 
HETATM   20  C16 UNK     1      21.071  -7.178  37.143  1.00  0.00     0.037 A 
HETATM   21  C18 UNK     1      19.931  -7.821  36.659  1.00  0.00     0.003 A 
HETATM   22  C17 UNK     1      18.794  -7.078  36.342  1.00  0.00     0.001 A 
HETATM   23  C14 UNK     1      18.798  -5.692  36.506  1.00  0.00     0.010 A 
BRANCH  19  24
HETATM   24  O2  UNK     1      22.196  -5.183  37.782  1.00  0.00    -0.355 OA
HETATM   25  C19 UNK     1      22.902  -5.846  38.828  1.00  0.00     0.210 C 
ENDBRANCH  19  24
ENDBRANCH  17  18
ENDBRANCH   3  17
TORSDOF 4
ENDMDL
MODEL 7
REMARK VINA RESULT:      -8.7      5.253      8.988
REMARK  4 active torsions:
REMARK  status: ('A' for Active; 'I' for Inactive)
REMARK    1  A    between atoms: C12_17  and  O2_2 
REMARK       I    between atoms: C10_15  and  N1_5 
REMARK    2  A    between atoms: C3_8  and  N1_5 
REMARK    3  A    between atoms: C10_15  and  C5_10 
REMARK    4  A    between atoms: C5_10  and  C8_13 
ROOT
HETATM    1  O3  UNK     1      21.731  -2.313  35.987  1.00  0.00    -0.273 OA
HETATM    2  N1  UNK     1      19.613  -2.664  35.026  1.00  0.00    -0.327 N 
HETATM    3  C10 UNK     1      20.588  -2.754  36.035  1.00  0.00     0.226 C 
HETATM    4  H6  UNK     1      18.706  -3.080  35.224  1.00  0.00     0.169 HD
ENDROOT
BRANCH   2   5
HETATM    5  C3  UNK     1      19.724  -2.066  33.770  1.00  0.00     0.037 A 
HETATM    6  C6  UNK     1      19.027  -0.896  33.490  1.00  0.00     0.067 A 
HETATM    7  C2  UNK     1      19.152  -0.314  32.227  1.00  0.00     0.092 A 
HETATM    8  C1  UNK     1      19.956  -0.866  31.229  1.00  0.00     0.004 A 
HETATM    9  O1  UNK     1      18.423   0.871  32.004  1.00  0.00    -0.275 OA
HETATM   10  C4  UNK     1      20.029  -0.187  29.928  1.00  0.00    -0.043 A 
HETATM   11  C7  UNK     1      20.649  -2.046  31.531  1.00  0.00     0.017 A 
HETATM   12  C11 UNK     1      19.323   0.938  29.744  1.00  0.00     0.090 A 
HETATM   13  C13 UNK     1      20.883  -0.756  28.834  1.00  0.00     0.049 C 
HETATM   14  C15 UNK     1      18.473   1.534  30.787  1.00  0.00     0.288 A 
HETATM   15  O4  UNK     1      17.842   2.565  30.581  1.00  0.00    -0.260 OA
HETATM   16  C9  UNK     1      20.534  -2.641  32.792  1.00  0.00     0.030 A 
ENDBRANCH   2   5
BRANCH   3  17
HETATM   17  C5  UNK     1      20.049  -3.492  37.251  1.00  0.00     0.144 C 
BRANCH  17  18
HETATM   18  C8  UNK     1      20.564  -4.901  37.372  1.00  0.00    -0.016 A 
HETATM   19  C12 UNK     1      19.883  -5.951  36.771  1.00  0.00     0.074 A 
HETATM   20  C16 UNK     1      20.374  -7.250  36.894  1.00  0.00     0.037 A 
HETATM   21  C18 UNK     1      21.542  -7.489  37.617  1.00  0.00     0.003 A 
HETATM   22  C17 UNK     1      22.221  -6.427  38.216  1.00  0.00     0.001 A 
HETATM   23  C14 UNK     1      21.729  -5.128  38.094  1.00  0.00     0.010 A 
BRANCH  19  24
HETATM   24  O2  UNK     1      18.740  -5.735  36.061  1.00  0.00    -0.355 OA
HETATM   25  C19 UNK     1      17.552  -6.361  36.540  1.00  0.00     0.210 C 
ENDBRANCH  19  24
ENDBRANCH  17  18
ENDBRANCH   3  17
TORSDOF 4
ENDMDL
MODEL 8
REMARK VINA RESULT:      -8.4      7.116     12.674
REMARK  4 active torsions:
REMARK  status: ('A' for Active; 'I' for Inactive)
REMARK    1  A    between atoms: C12_17  and  O2_2 
REMARK       I    between atoms: C10_15  and  N1_5 
REMARK    2  A    between atoms: C3_8  and  N1_5 
REMARK    3  A    between atoms: C10_15  and  C5_10 
REMARK    4  A    between atoms: C5_10  and  C8_13 
ROOT
HETATM    1  O3  UNK     1      21.278  -2.313  35.429  1.00  0.00    -0.273 OA
HETATM    2  N1  UNK     1      19.389  -3.547  36.093  1.00  0.00    -0.327 N 
HETATM    3  C10 UNK     1      20.063  -2.466  35.500  1.00  0.00     0.226 C 
HETATM    4  H6  UNK     1      18.372  -3.526  36.064  1.00  0.00     0.169 HD
ENDROOT
BRANCH   2   5
HETATM    5  C3  UNK     1      19.936  -4.667  36.721  1.00  0.00     0.037 A 
HETATM    6  C6  UNK     1      19.424  -5.933  36.460  1.00  0.00     0.067 A 
HETATM    7  C2  UNK     1      19.987  -7.040  37.099  1.00  0.00     0.092 A 
HETATM    8  C1  UNK     1      21.051  -6.922  37.994  1.00  0.00     0.004 A 
HETATM    9  O1  UNK     1      19.426  -8.296  36.794  1.00  0.00    -0.275 OA
HETATM   10  C4  UNK     1      21.581  -8.140  38.621  1.00  0.00    -0.043 A 
HETATM   11  C7  UNK     1      21.551  -5.637  38.243  1.00  0.00     0.017 A 
HETATM   12  C11 UNK     1      21.028  -9.322  38.313  1.00  0.00     0.090 A 
HETATM   13  C13 UNK     1      22.724  -8.047  39.589  1.00  0.00     0.049 C 
HETATM   14  C15 UNK     1      19.906  -9.463  37.370  1.00  0.00     0.288 A 
HETATM   15  O4  UNK     1      19.426 -10.561  37.113  1.00  0.00    -0.260 OA
HETATM   16  C9  UNK     1      20.998  -4.518  37.611  1.00  0.00     0.030 A 
ENDBRANCH   2   5
BRANCH   3  17
HETATM   17  C5  UNK     1      19.081  -1.456  34.928  1.00  0.00     0.144 C 
BRANCH  17  18
HETATM   18  C8  UNK     1      18.561  -0.482  35.952  1.00  0.00    -0.016 A 
HETATM   19  C12 UNK     1      18.553   0.880  35.683  1.00  0.00     0.074 A 
HETATM   20  C16 UNK     1      18.068   1.768  36.642  1.00  0.00     0.037 A 
HETATM   21  C18 UNK     1      17.596   1.286  37.863  1.00  0.00     0.003 A 
HETATM   22  C17 UNK     1      17.607  -0.084  38.123  1.00  0.00     0.001 A 
HETATM   23  C14 UNK     1      18.093  -0.972  37.164  1.00  0.00     0.010 A 
BRANCH  19  24
HETATM   24  O2  UNK     1      19.010   1.368  34.495  1.00  0.00    -0.355 OA
HETATM   25  C19 UNK     1      18.044   1.936  33.614  1.00  0.00     0.210 C 
ENDBRANCH  19  24
ENDBRANCH  17  18
ENDBRANCH   3  17
TORSDOF 4
ENDMDL
MODEL 9
REMARK VINA RESULT:      -8.3     14.457     19.131
REMARK  4 active torsions:
REMARK  status: ('A' for Active; 'I' for Inactive)
REMARK    1  A    between atoms: C12_17  and  O2_2 
REMARK       I    between atoms: C10_15  and  N1_5 
REMARK    2  A    between atoms: C3_8  and  N1_5 
REMARK    3  A    between atoms: C10_15  and  C5_10 
REMARK    4  A    between atoms: C5_10  and  C8_13 
ROOT
HETATM    1  O3  UNK     1      20.226  -1.591  17.583  1.00  0.00    -0.273 OA
HETATM    2  N1  UNK     1      18.186  -1.504  16.414  1.00  0.00    -0.327 N 
HETATM    3  C10 UNK     1      19.080  -1.175  17.448  1.00  0.00     0.226 C 
HETATM    4  H6  UNK     1      17.267  -1.067  16.444  1.00  0.00     0.169 HD
ENDROOT
BRANCH   2   5
HETATM    5  C3  UNK     1      18.395  -2.359  15.331  1.00  0.00     0.037 A 
HETATM    6  C6  UNK     1      18.811  -1.846  14.108  1.00  0.00     0.067 A 
HETATM    7  C2  UNK     1      19.015  -2.719  13.037  1.00  0.00     0.092 A 
HETATM    8  C1  UNK     1      18.816  -4.095  13.150  1.00  0.00     0.004 A 
HETATM    9  O1  UNK     1      19.437  -2.140  11.823  1.00  0.00    -0.275 OA
HETATM   10  C4  UNK     1      19.054  -4.940  11.972  1.00  0.00    -0.043 A 
HETATM   11  C7  UNK     1      18.397  -4.592  14.392  1.00  0.00     0.017 A 
HETATM   12  C11 UNK     1      19.454  -4.363  10.830  1.00  0.00     0.090 A 
HETATM   13  C13 UNK     1      18.849  -6.424  12.061  1.00  0.00     0.049 C 
HETATM   14  C15 UNK     1      19.670  -2.913  10.695  1.00  0.00     0.288 A 
HETATM   15  O4  UNK     1      20.036  -2.420   9.634  1.00  0.00    -0.260 OA
HETATM   16  C9  UNK     1      18.188  -3.729  15.474  1.00  0.00     0.030 A 
ENDBRANCH   2   5
BRANCH   3  17
HETATM   17  C5  UNK     1      18.447  -0.203  18.430  1.00  0.00     0.144 C 
BRANCH  17  18
HETATM   18  C8  UNK     1      18.996   1.196  18.326  1.00  0.00    -0.016 A 
HETATM   19  C12 UNK     1      19.438   1.861  19.461  1.00  0.00     0.074 A 
HETATM   20  C16 UNK     1      19.943   3.156  19.346  1.00  0.00     0.037 A 
HETATM   21  C18 UNK     1      20.001   3.774  18.097  1.00  0.00     0.003 A 
HETATM   22  C17 UNK     1      19.555   3.096  16.962  1.00  0.00     0.001 A 
HETATM   23  C14 UNK     1      19.049   1.801  17.077  1.00  0.00     0.010 A 
BRANCH  19  24
HETATM   24  O2  UNK     1      19.389   1.272  20.688  1.00  0.00    -0.355 OA
HETATM   25  C19 UNK     1      19.812   2.058  21.801  1.00  0.00     0.210 C 
ENDBRANCH  19  24
ENDBRANCH  17  18
ENDBRANCH   3  17
TORSDOF 4
ENDMDL
MODEL 10
REMARK VINA RESULT:      -8.3      7.093     10.299
REMARK  4 active torsions:
REMARK  status: ('A' for Active; 'I' for Inactive)
REMARK    1  A    between atoms: C12_17  and  O2_2 
REMARK       I    between atoms: C10_15  and  N1_5 
REMARK    2  A    between atoms: C3_8  and  N1_5 
REMARK    3  A    between atoms: C10_15  and  C5_10 
REMARK    4  A    between atoms: C5_10  and  C8_13 
ROOT
HETATM    1  O3  UNK     1      18.453  -5.759  36.523  1.00  0.00    -0.273 OA
HETATM    2  N1  UNK     1      20.224  -4.212  36.587  1.00  0.00    -0.327 N 
HETATM    3  C10 UNK     1      19.649  -5.495  36.585  1.00  0.00     0.226 C 
HETATM    4  H6  UNK     1      21.240  -4.164  36.639  1.00  0.00     0.169 HD
ENDROOT
BRANCH   2   5
HETATM    5  C3  UNK     1      19.580  -2.977  36.520  1.00  0.00     0.037 A 
HETATM    6  C6  UNK     1      19.551  -2.269  35.324  1.00  0.00     0.067 A 
HETATM    7  C2  UNK     1      18.899  -1.034  35.279  1.00  0.00     0.092 A 
HETATM    8  C1  UNK     1      18.272  -0.482  36.396  1.00  0.00     0.004 A 
HETATM    9  O1  UNK     1      18.903  -0.364  34.039  1.00  0.00    -0.275 OA
HETATM   10  C4  UNK     1      17.610   0.823  36.259  1.00  0.00    -0.043 A 
HETATM   11  C7  UNK     1      18.313  -1.212  37.592  1.00  0.00     0.017 A 
HETATM   12  C11 UNK     1      17.630   1.438  35.067  1.00  0.00     0.090 A 
HETATM   13  C13 UNK     1      16.928   1.444  37.441  1.00  0.00     0.049 C 
HETATM   14  C15 UNK     1      18.286   0.867  33.879  1.00  0.00     0.288 A 
HETATM   15  O4  UNK     1      18.284   1.460  32.806  1.00  0.00    -0.260 OA
HETATM   16  C9  UNK     1      18.962  -2.450  37.653  1.00  0.00     0.030 A 
ENDBRANCH   2   5
BRANCH   3  17
HETATM   17  C5  UNK     1      20.717  -6.574  36.672  1.00  0.00     0.144 C 
BRANCH  17  18
HETATM   18  C8  UNK     1      20.254  -7.818  37.382  1.00  0.00    -0.016 A 
HETATM   19  C12 UNK     1      20.480  -7.975  38.742  1.00  0.00     0.074 A 
HETATM   20  C16 UNK     1      20.045  -9.135  39.383  1.00  0.00     0.037 A 
HETATM   21  C18 UNK     1      19.387 -10.128  38.658  1.00  0.00     0.003 A 
HETATM   22  C17 UNK     1      19.163  -9.960  37.291  1.00  0.00     0.001 A 
HETATM   23  C14 UNK     1      19.600  -8.800  36.650  1.00  0.00     0.010 A 
BRANCH  19  24
HETATM   24  O2  UNK     1      21.121  -7.015  39.466  1.00  0.00    -0.355 OA
HETATM   25  C19 UNK     1      22.483  -7.261  39.806  1.00  0.00     0.210 C 
ENDBRANCH  19  24
ENDBRANCH  17  18
ENDBRANCH   3  17
TORSDOF 4
ENDMDL
