MODEL 1
REMARK VINA RESULT:      -9.7      0.000      0.000
REMARK  7 active torsions:
REMARK  status: ('A' for Active; 'I' for Inactive)
REMARK    1  A    between atoms: C20_27  and  O4_4 
REMARK    2  A    between atoms: C5_12  and  N1_5 
REMARK    3  A    between atoms: C6_13  and  N2_6 
REMARK    4  A    between atoms: C18_25  and  N3_7 
REMARK       I    between atoms: C9_16  and  N3_7 
REMARK    5  A    between atoms: C5_12  and  C7_14 
REMARK    6  A    between atoms: C6_13  and  C9_16 
REMARK    7  A    between atoms: C13_20  and  C17_24 
ROOT
HETATM    1  N1  UNK     1      18.130   6.270  32.819  1.00  0.00     0.096 N 
HETATM    2  N2  UNK     1      18.166   4.561  30.487  1.00  0.00     0.100 N 
HETATM    3  C1  UNK     1      17.769   4.850  32.909  1.00  0.00     0.303 C 
HETATM    4  C2  UNK     1      17.818   6.795  31.483  1.00  0.00     0.303 C 
HETATM    5  C3  UNK     1      18.480   4.036  31.822  1.00  0.00     0.303 C 
HETATM    6  C4  UNK     1      18.530   5.981  30.398  1.00  0.00     0.303 C 
ENDROOT
BRANCH   1   7
HETATM    7  C5  UNK     1      17.449   7.046  33.854  1.00  0.00     0.312 C 
BRANCH   7   8
HETATM    8  C7  UNK     1      18.057   8.392  34.040  1.00  0.00    -0.011 A 
HETATM    9  C10 UNK     1      19.372   8.535  34.257  1.00  0.00     0.092 A 
HETATM   10  C14 UNK     1      20.019   9.844  34.447  1.00  0.00     0.288 A 
HETATM   11  O1  UNK     1      19.196  10.958  34.392  1.00  0.00    -0.275 OA
HETATM   12  O3  UNK     1      21.226   9.934  34.641  1.00  0.00    -0.260 OA
HETATM   13  C11 UNK     1      17.810  10.840  34.166  1.00  0.00     0.090 A 
HETATM   14  C8  UNK     1      17.211   9.592  33.987  1.00  0.00     0.007 A 
HETATM   15  C15 UNK     1      17.079  12.030  34.130  1.00  0.00     0.039 A 
HETATM   16  C12 UNK     1      15.828   9.561  33.768  1.00  0.00     0.022 A 
HETATM   17  C13 UNK     1      15.082  10.744  33.730  1.00  0.00    -0.058 A 
HETATM   18  C16 UNK     1      15.707  11.976  33.910  1.00  0.00     0.010 A 
BRANCH  17  19
HETATM   19  C17 UNK     1      13.610  10.686  33.495  1.00  0.00     0.034 C 
HETATM   20  C19 UNK     1      13.136  11.762  32.520  1.00  0.00     0.010 C 
ENDBRANCH  17  19
ENDBRANCH   7   8
ENDBRANCH   1   7
BRANCH   2  21
HETATM   21  C6  UNK     1      18.846   3.786  29.451  1.00  0.00     0.375 C 
BRANCH  21  22
HETATM   22  C9  UNK     1      18.554   2.309  29.652  1.00  0.00     0.250 C 
HETATM   23  N3  UNK     1      19.705   1.642  30.063  1.00  0.00    -0.323 N 
HETATM   24  H15 UNK     1      20.554   2.191  30.186  1.00  0.00     0.169 HD
HETATM   25  O2  UNK     1      17.444   1.822  29.458  1.00  0.00    -0.271 OA
BRANCH  23  26
HETATM   26  C18 UNK     1      19.848   0.264  30.353  1.00  0.00     0.068 A 
HETATM   27  C20 UNK     1      19.472  -0.244  31.596  1.00  0.00     0.095 A 
HETATM   28  C22 UNK     1      19.619  -1.605  31.867  1.00  0.00     0.039 A 
HETATM   29  C24 UNK     1      20.142  -2.457  30.895  1.00  0.00     0.003 A 
HETATM   30  C23 UNK     1      20.518  -1.949  29.652  1.00  0.00     0.002 A 
HETATM   31  C21 UNK     1      20.371  -0.588  29.381  1.00  0.00     0.032 A 
BRANCH  27  32
HETATM   32  O4  UNK     1      18.958   0.571  32.561  1.00  0.00    -0.354 OA
HETATM   33  C25 UNK     1      18.247  -0.055  33.627  1.00  0.00     0.210 C 
ENDBRANCH  27  32
ENDBRANCH  23  26
ENDBRANCH  21  22
ENDBRANCH   2  21
TORSDOF 7
ENDMDL
MODEL 2
REMARK VINA RESULT:      -9.6      6.063     13.323
REMARK  7 active torsions:
REMARK  status: ('A' for Active; 'I' for Inactive)
REMARK    1  A    between atoms: C20_27  and  O4_4 
REMARK    2  A    between atoms: C5_12  and  N1_5 
REMARK    3  A    between atoms: C6_13  and  N2_6 
REMARK    4  A    between atoms: C18_25  and  N3_7 
REMARK       I    between atoms: C9_16  and  N3_7 
REMARK    5  A    between atoms: C5_12  and  C7_14 
REMARK    6  A    between atoms: C6_13  and  C9_16 
REMARK    7  A    between atoms: C13_20  and  C17_24 
ROOT
HETATM    1  N1  UNK     1      19.185  -3.140  36.160  1.00  0.00     0.096 N 
HETATM    2  N2  UNK     1      18.283  -0.499  35.400  1.00  0.00     0.100 N 
HETATM    3  C1  UNK     1      18.489  -2.269  37.114  1.00  0.00     0.303 C 
HETATM    4  C2  UNK     1      19.920  -2.337  35.174  1.00  0.00     0.303 C 
HETATM    5  C3  UNK     1      17.548  -1.303  36.385  1.00  0.00     0.303 C 
HETATM    6  C4  UNK     1      18.978  -1.372  34.445  1.00  0.00     0.303 C 
ENDROOT
BRANCH   1   7
HETATM    7  C5  UNK     1      20.085  -4.057  36.856  1.00  0.00     0.312 C 
BRANCH   7   8
HETATM    8  C7  UNK     1      19.636  -5.473  36.751  1.00  0.00    -0.011 A 
HETATM    9  C10 UNK     1      18.511  -5.797  36.098  1.00  0.00     0.092 A 
HETATM   10  C14 UNK     1      18.027  -7.182  35.968  1.00  0.00     0.288 A 
HETATM   11  O1  UNK     1      18.797  -8.169  36.561  1.00  0.00    -0.275 OA
HETATM   12  O3  UNK     1      16.993  -7.439  35.360  1.00  0.00    -0.260 OA
HETATM   13  C11 UNK     1      19.984  -7.860  37.256  1.00  0.00     0.090 A 
HETATM   14  C8  UNK     1      20.431  -6.542  37.370  1.00  0.00     0.007 A 
HETATM   15  C15 UNK     1      20.679  -8.934  37.814  1.00  0.00     0.039 A 
HETATM   16  C12 UNK     1      21.620  -6.319  38.077  1.00  0.00     0.022 A 
HETATM   17  C13 UNK     1      22.328  -7.385  38.642  1.00  0.00    -0.058 A 
HETATM   18  C16 UNK     1      21.858  -8.691  38.510  1.00  0.00     0.010 A 
BRANCH  17  19
HETATM   19  C17 UNK     1      23.592  -7.124  39.389  1.00  0.00     0.034 C 
HETATM   20  C19 UNK     1      24.778  -7.892  38.809  1.00  0.00     0.010 C 
ENDBRANCH  17  19
ENDBRANCH   7   8
ENDBRANCH   1   7
BRANCH   2  21
HETATM   21  C6  UNK     1      17.385   0.419  34.704  1.00  0.00     0.375 C 
BRANCH  21  22
HETATM   22  C9  UNK     1      18.156   1.658  34.282  1.00  0.00     0.250 C 
HETATM   23  N3  UNK     1      17.701   2.111  33.046  1.00  0.00    -0.323 N 
HETATM   24  H15 UNK     1      16.942   1.597  32.602  1.00  0.00     0.169 HD
HETATM   25  O2  UNK     1      19.050   2.146  34.967  1.00  0.00    -0.271 OA
BRANCH  23  26
HETATM   26  C18 UNK     1      18.161   3.231  32.314  1.00  0.00     0.068 A 
HETATM   27  C20 UNK     1      18.519   3.106  30.972  1.00  0.00     0.095 A 
HETATM   28  C22 UNK     1      18.970   4.219  30.263  1.00  0.00     0.039 A 
HETATM   29  C24 UNK     1      19.064   5.458  30.897  1.00  0.00     0.003 A 
HETATM   30  C23 UNK     1      18.706   5.584  32.239  1.00  0.00     0.002 A 
HETATM   31  C21 UNK     1      18.255   4.469  32.948  1.00  0.00     0.032 A 
BRANCH  27  32
HETATM   32  O4  UNK     1      18.435   1.904  30.332  1.00  0.00    -0.354 OA
HETATM   33  C25 UNK     1      17.886   1.909  29.016  1.00  0.00     0.210 C 
ENDBRANCH  27  32
ENDBRANCH  23  26
ENDBRANCH  21  22
ENDBRANCH   2  21
TORSDOF 7
ENDMDL
MODEL 3
REMARK VINA RESULT:      -9.4      1.842      2.802
REMARK  7 active torsions:
REMARK  status: ('A' for Active; 'I' for Inactive)
REMARK    1  A    between atoms: C20_27  and  O4_4 
REMARK    2  A    between atoms: C5_12  and  N1_5 
REMARK    3  A    between atoms: C6_13  and  N2_6 
REMARK    4  A    between atoms: C18_25  and  N3_7 
REMARK       I    between atoms: C9_16  and  N3_7 
REMARK    5  A    between atoms: C5_12  and  C7_14 
REMARK    6  A    between atoms: C6_13  and  C9_16 
REMARK    7  A    between atoms: C13_20  and  C17_24 
ROOT
HETATM    1  N1  UNK     1      18.465   6.510  33.180  1.00  0.00     0.096 N 
HETATM    2  N2  UNK     1      18.294   4.746  30.894  1.00  0.00     0.100 N 
HETATM    3  C1  UNK     1      18.161   5.082  33.339  1.00  0.00     0.303 C 
HETATM    4  C2  UNK     1      17.990   6.993  31.877  1.00  0.00     0.303 C 
HETATM    5  C3  UNK     1      18.770   4.263  32.196  1.00  0.00     0.303 C 
HETATM    6  C4  UNK     1      18.601   6.173  30.735  1.00  0.00     0.303 C 
ENDROOT
BRANCH   1   7
HETATM    7  C5  UNK     1      17.880   7.290  34.268  1.00  0.00     0.312 C 
BRANCH   7   8
HETATM    8  C7  UNK     1      16.571   7.889  33.890  1.00  0.00    -0.011 A 
HETATM    9  C10 UNK     1      15.538   7.120  33.519  1.00  0.00     0.092 A 
HETATM   10  C14 UNK     1      14.225   7.667  33.136  1.00  0.00     0.288 A 
HETATM   11  O1  UNK     1      14.090   9.045  33.173  1.00  0.00    -0.275 OA
HETATM   12  O3  UNK     1      13.303   6.930  32.804  1.00  0.00    -0.260 OA
HETATM   13  C11 UNK     1      15.158   9.881  33.558  1.00  0.00     0.090 A 
HETATM   14  C8  UNK     1      16.397   9.348  33.919  1.00  0.00     0.007 A 
HETATM   15  C15 UNK     1      14.909  11.254  33.558  1.00  0.00     0.039 A 
HETATM   16  C12 UNK     1      17.407  10.245  34.288  1.00  0.00     0.022 A 
HETATM   17  C13 UNK     1      17.172  11.625  34.294  1.00  0.00    -0.058 A 
HETATM   18  C16 UNK     1      15.925  12.128  33.930  1.00  0.00     0.010 A 
BRANCH  17  19
HETATM   19  C17 UNK     1      18.263  12.562  34.692  1.00  0.00     0.034 C 
HETATM   20  C19 UNK     1      18.211  13.875  33.915  1.00  0.00     0.010 C 
ENDBRANCH  17  19
ENDBRANCH   7   8
ENDBRANCH   1   7
BRANCH   2  21
HETATM   21  C6  UNK     1      18.878   3.966  29.805  1.00  0.00     0.375 C 
BRANCH  21  22
HETATM   22  C9  UNK     1      18.536   2.499  29.995  1.00  0.00     0.250 C 
HETATM   23  N3  UNK     1      19.695   1.760  30.221  1.00  0.00    -0.323 N 
HETATM   24  H15 UNK     1      20.581   2.261  30.244  1.00  0.00     0.169 HD
HETATM   25  O2  UNK     1      17.386   2.074  29.941  1.00  0.00    -0.271 OA
BRANCH  23  26
HETATM   26  C18 UNK     1      19.802   0.367  30.443  1.00  0.00     0.068 A 
HETATM   27  C20 UNK     1      19.365  -0.199  31.641  1.00  0.00     0.095 A 
HETATM   28  C22 UNK     1      19.477  -1.574  31.846  1.00  0.00     0.039 A 
HETATM   29  C24 UNK     1      20.026  -2.385  30.852  1.00  0.00     0.003 A 
HETATM   30  C23 UNK     1      20.463  -1.820  29.653  1.00  0.00     0.002 A 
HETATM   31  C21 UNK     1      20.351  -0.444  29.450  1.00  0.00     0.032 A 
BRANCH  27  32
HETATM   32  O4  UNK     1      18.825   0.575  32.626  1.00  0.00    -0.354 OA
HETATM   33  C25 UNK     1      18.391  -0.093  33.809  1.00  0.00     0.210 C 
ENDBRANCH  27  32
ENDBRANCH  23  26
ENDBRANCH  21  22
ENDBRANCH   2  21
TORSDOF 7
ENDMDL
MODEL 4
REMARK VINA RESULT:      -9.3      8.488     12.695
REMARK  7 active torsions:
REMARK  status: ('A' for Active; 'I' for Inactive)
REMARK    1  A    between atoms: C20_27  and  O4_4 
REMARK    2  A    between atoms: C5_12  and  N1_5 
REMARK    3  A    between atoms: C6_13  and  N2_6 
REMARK    4  A    between atoms: C18_25  and  N3_7 
REMARK       I    between atoms: C9_16  and  N3_7 
REMARK    5  A    between atoms: C5_12  and  C7_14 
REMARK    6  A    between atoms: C6_13  and  C9_16 
REMARK    7  A    between atoms: C13_20  and  C17_24 
ROOT
HETATM    1  N1  UNK     1      19.908  -4.687  36.773  1.00  0.00     0.096 N 
HETATM    2  N2  UNK     1      20.022  -7.576  36.696  1.00  0.00     0.100 N 
HETATM    3  C1  UNK     1      20.061  -5.410  35.505  1.00  0.00     0.303 C 
HETATM    4  C2  UNK     1      20.495  -5.458  37.877  1.00  0.00     0.303 C 
HETATM    5  C3  UNK     1      19.433  -6.806  35.593  1.00  0.00     0.303 C 
HETATM    6  C4  UNK     1      19.866  -6.852  37.964  1.00  0.00     0.303 C 
ENDROOT
BRANCH   1   7
HETATM    7  C5  UNK     1      20.511  -3.359  36.689  1.00  0.00     0.312 C 
BRANCH   7   8
HETATM    8  C7  UNK     1      19.516  -2.311  36.330  1.00  0.00    -0.011 A 
HETATM    9  C10 UNK     1      18.730  -1.754  37.262  1.00  0.00     0.092 A 
HETATM   10  C14 UNK     1      17.731  -0.716  36.955  1.00  0.00     0.288 A 
HETATM   11  O1  UNK     1      17.629  -0.322  35.630  1.00  0.00    -0.275 OA
HETATM   12  O3  UNK     1      17.031  -0.228  37.836  1.00  0.00    -0.260 OA
HETATM   13  C11 UNK     1      18.441  -0.890  34.628  1.00  0.00     0.090 A 
HETATM   14  C8  UNK     1      19.384  -1.873  34.934  1.00  0.00     0.007 A 
HETATM   15  C15 UNK     1      18.252  -0.417  33.328  1.00  0.00     0.039 A 
HETATM   16  C12 UNK     1      20.151  -2.387  33.881  1.00  0.00     0.022 A 
HETATM   17  C13 UNK     1      19.973  -1.923  32.573  1.00  0.00    -0.058 A 
HETATM   18  C16 UNK     1      19.026  -0.939  32.297  1.00  0.00     0.010 A 
BRANCH  17  19
HETATM   19  C17 UNK     1      20.803  -2.484  31.467  1.00  0.00     0.034 C 
HETATM   20  C19 UNK     1      20.376  -1.959  30.098  1.00  0.00     0.010 C 
ENDBRANCH  17  19
ENDBRANCH   7   8
ENDBRANCH   1   7
BRANCH   2  21
HETATM   21  C6  UNK     1      19.420  -8.905  36.781  1.00  0.00     0.375 C 
BRANCH  21  22
HETATM   22  C9  UNK     1      20.512  -9.943  36.971  1.00  0.00     0.250 C 
HETATM   23  N3  UNK     1      21.686  -9.527  36.347  1.00  0.00    -0.323 N 
HETATM   24  H15 UNK     1      21.679  -8.625  35.875  1.00  0.00     0.169 HD
HETATM   25  O2  UNK     1      20.332 -10.987  37.590  1.00  0.00    -0.271 OA
BRANCH  23  26
HETATM   26  C18 UNK     1      22.925 -10.209  36.294  1.00  0.00     0.068 A 
HETATM   27  C20 UNK     1      24.080  -9.629  36.818  1.00  0.00     0.095 A 
HETATM   28  C22 UNK     1      25.293 -10.314  36.759  1.00  0.00     0.039 A 
HETATM   29  C24 UNK     1      25.353 -11.579  36.174  1.00  0.00     0.003 A 
HETATM   30  C23 UNK     1      24.198 -12.160  35.649  1.00  0.00     0.002 A 
HETATM   31  C21 UNK     1      22.984 -11.474  35.709  1.00  0.00     0.032 A 
BRANCH  27  32
HETATM   32  O4  UNK     1      24.044  -8.393  37.394  1.00  0.00    -0.354 OA
HETATM   33  C25 UNK     1      24.992  -8.134  38.428  1.00  0.00     0.210 C 
ENDBRANCH  27  32
ENDBRANCH  23  26
ENDBRANCH  21  22
ENDBRANCH   2  21
TORSDOF 7
ENDMDL
MODEL 5
REMARK VINA RESULT:      -9.3      1.939      9.841
REMARK  7 active torsions:
REMARK  status: ('A' for Active; 'I' for Inactive)
REMARK    1  A    between atoms: C20_27  and  O4_4 
REMARK    2  A    between atoms: C5_12  and  N1_5 
REMARK    3  A    between atoms: C6_13  and  N2_6 
REMARK    4  A    between atoms: C18_25  and  N3_7 
REMARK       I    between atoms: C9_16  and  N3_7 
REMARK    5  A    between atoms: C5_12  and  C7_14 
REMARK    6  A    between atoms: C6_13  and  C9_16 
REMARK    7  A    between atoms: C13_20  and  C17_24 
ROOT
HETATM    1  N1  UNK     1      18.863   3.650  31.337  1.00  0.00     0.096 N 
HETATM    2  N2  UNK     1      19.198   6.333  32.365  1.00  0.00     0.100 N 
HETATM    3  C1  UNK     1      19.398   4.728  30.495  1.00  0.00     0.303 C 
HETATM    4  C2  UNK     1      17.955   4.197  32.355  1.00  0.00     0.303 C 
HETATM    5  C3  UNK     1      20.106   5.786  31.348  1.00  0.00     0.303 C 
HETATM    6  C4  UNK     1      18.666   5.254  33.207  1.00  0.00     0.303 C 
ENDROOT
BRANCH   1   7
HETATM    7  C5  UNK     1      18.184   2.644  30.523  1.00  0.00     0.312 C 
BRANCH   7   8
HETATM    8  C7  UNK     1      18.925   1.353  30.492  1.00  0.00    -0.011 A 
HETATM    9  C10 UNK     1      19.597   0.966  29.398  1.00  0.00     0.092 A 
HETATM   10  C14 UNK     1      20.343  -0.302  29.320  1.00  0.00     0.288 A 
HETATM   11  O1  UNK     1      20.327  -1.105  30.449  1.00  0.00    -0.275 OA
HETATM   12  O3  UNK     1      20.948  -0.621  28.302  1.00  0.00    -0.260 OA
HETATM   13  C11 UNK     1      19.628  -0.725  31.613  1.00  0.00     0.090 A 
HETATM   14  C8  UNK     1      18.926   0.479  31.673  1.00  0.00     0.007 A 
HETATM   15  C15 UNK     1      19.680  -1.612  32.690  1.00  0.00     0.039 A 
HETATM   16  C12 UNK     1      18.257   0.783  32.866  1.00  0.00     0.022 A 
HETATM   17  C13 UNK     1      18.300  -0.096  33.954  1.00  0.00    -0.058 A 
HETATM   18  C16 UNK     1      19.011  -1.291  33.866  1.00  0.00     0.010 A 
BRANCH  17  19
HETATM   19  C17 UNK     1      17.581   0.249  35.215  1.00  0.00     0.034 C 
HETATM   20  C19 UNK     1      16.064   0.203  35.049  1.00  0.00     0.010 C 
ENDBRANCH  17  19
ENDBRANCH   7   8
ENDBRANCH   1   7
BRANCH   2  21
HETATM   21  C6  UNK     1      19.875   7.339  33.179  1.00  0.00     0.375 C 
BRANCH  21  22
HETATM   22  C9  UNK     1      18.872   7.991  34.114  1.00  0.00     0.250 C 
HETATM   23  N3  UNK     1      17.903   8.674  33.382  1.00  0.00    -0.323 N 
HETATM   24  H15 UNK     1      17.970   8.647  32.366  1.00  0.00     0.169 HD
HETATM   25  O2  UNK     1      18.952   7.905  35.336  1.00  0.00    -0.271 OA
BRANCH  23  26
HETATM   26  C18 UNK     1      16.801   9.408  33.880  1.00  0.00     0.068 A 
HETATM   27  C20 UNK     1      15.546   8.813  34.003  1.00  0.00     0.095 A 
HETATM   28  C22 UNK     1      14.469   9.550  34.496  1.00  0.00     0.039 A 
HETATM   29  C24 UNK     1      14.647  10.883  34.866  1.00  0.00     0.003 A 
HETATM   30  C23 UNK     1      15.902  11.479  34.743  1.00  0.00     0.002 A 
HETATM   31  C21 UNK     1      16.979  10.741  34.249  1.00  0.00     0.032 A 
BRANCH  27  32
HETATM   32  O4  UNK     1      15.350   7.511  33.648  1.00  0.00    -0.354 OA
HETATM   33  C25 UNK     1      14.835   7.268  32.340  1.00  0.00     0.210 C 
ENDBRANCH  27  32
ENDBRANCH  23  26
ENDBRANCH  21  22
ENDBRANCH   2  21
TORSDOF 7
ENDMDL
MODEL 6
REMARK VINA RESULT:      -9.0      6.349     13.375
REMARK  7 active torsions:
REMARK  status: ('A' for Active; 'I' for Inactive)
REMARK    1  A    between atoms: C20_27  and  O4_4 
REMARK    2  A    between atoms: C5_12  and  N1_5 
REMARK    3  A    between atoms: C6_13  and  N2_6 
REMARK    4  A    between atoms: C18_25  and  N3_7 
REMARK       I    between atoms: C9_16  and  N3_7 
REMARK    5  A    between atoms: C5_12  and  C7_14 
REMARK    6  A    between atoms: C6_13  and  C9_16 
REMARK    7  A    between atoms: C13_20  and  C17_24 
ROOT
HETATM    1  N1  UNK     1      19.231  -3.479  36.546  1.00  0.00     0.096 N 
HETATM    2  N2  UNK     1      18.950  -0.734  35.682  1.00  0.00     0.100 N 
HETATM    3  C1  UNK     1      18.376  -2.534  37.275  1.00  0.00     0.303 C 
HETATM    4  C2  UNK     1      20.335  -2.769  35.888  1.00  0.00     0.303 C 
HETATM    5  C3  UNK     1      17.844  -1.444  36.338  1.00  0.00     0.303 C 
HETATM    6  C4  UNK     1      19.802  -1.680  34.951  1.00  0.00     0.303 C 
ENDROOT
BRANCH   1   7
HETATM    7  C5  UNK     1      19.740  -4.516  37.441  1.00  0.00     0.312 C 
BRANCH   7   8
HETATM    8  C7  UNK     1      19.350  -5.883  36.998  1.00  0.00    -0.011 A 
HETATM    9  C10 UNK     1      18.332  -6.071  36.148  1.00  0.00     0.092 A 
HETATM   10  C14 UNK     1      17.909  -7.403  35.682  1.00  0.00     0.288 A 
HETATM   11  O1  UNK     1      18.622  -8.488  36.167  1.00  0.00    -0.275 OA
HETATM   12  O3  UNK     1      16.973  -7.535  34.901  1.00  0.00    -0.260 OA
HETATM   13  C11 UNK     1      19.697  -8.321  37.063  1.00  0.00     0.090 A 
HETATM   14  C8  UNK     1      20.087  -7.053  37.495  1.00  0.00     0.007 A 
HETATM   15  C15 UNK     1      20.344  -9.484  37.487  1.00  0.00     0.039 A 
HETATM   16  C12 UNK     1      21.165  -6.973  38.387  1.00  0.00     0.022 A 
HETATM   17  C13 UNK     1      21.822  -8.129  38.820  1.00  0.00    -0.058 A 
HETATM   18  C16 UNK     1      21.413  -9.383  38.370  1.00  0.00     0.010 A 
BRANCH  17  19
HETATM   19  C17 UNK     1      22.969  -8.020  39.769  1.00  0.00     0.034 C 
HETATM   20  C19 UNK     1      22.833  -8.973  40.954  1.00  0.00     0.010 C 
ENDBRANCH  17  19
ENDBRANCH   7   8
ENDBRANCH   1   7
BRANCH   2  21
HETATM   21  C6  UNK     1      18.441   0.304  34.787  1.00  0.00     0.375 C 
BRANCH  21  22
HETATM   22  C9  UNK     1      18.307  -0.261  33.383  1.00  0.00     0.250 C 
HETATM   23  N3  UNK     1      19.307   0.251  32.560  1.00  0.00    -0.323 N 
HETATM   24  H15 UNK     1      19.978   0.895  32.973  1.00  0.00     0.169 HD
HETATM   25  O2  UNK     1      17.419  -1.048  33.070  1.00  0.00    -0.271 OA
BRANCH  23  26
HETATM   26  C18 UNK     1      19.524  -0.027  31.190  1.00  0.00     0.068 A 
HETATM   27  C20 UNK     1      18.969   0.786  30.201  1.00  0.00     0.095 A 
HETATM   28  C22 UNK     1      19.192   0.499  28.855  1.00  0.00     0.039 A 
HETATM   29  C24 UNK     1      19.970  -0.602  28.496  1.00  0.00     0.003 A 
HETATM   30  C23 UNK     1      20.526  -1.415  29.484  1.00  0.00     0.002 A 
HETATM   31  C21 UNK     1      20.302  -1.128  30.831  1.00  0.00     0.032 A 
BRANCH  27  32
HETATM   32  O4  UNK     1      18.205   1.867  30.530  1.00  0.00    -0.354 OA
HETATM   33  C25 UNK     1      18.658   3.141  30.076  1.00  0.00     0.210 C 
ENDBRANCH  27  32
ENDBRANCH  23  26
ENDBRANCH  21  22
ENDBRANCH   2  21
TORSDOF 7
ENDMDL
MODEL 7
REMARK VINA RESULT:      -8.9      1.725      3.305
REMARK  7 active torsions:
REMARK  status: ('A' for Active; 'I' for Inactive)
REMARK    1  A    between atoms: C20_27  and  O4_4 
REMARK    2  A    between atoms: C5_12  and  N1_5 
REMARK    3  A    between atoms: C6_13  and  N2_6 
REMARK    4  A    between atoms: C18_25  and  N3_7 
REMARK       I    between atoms: C9_16  and  N3_7 
REMARK    5  A    between atoms: C5_12  and  C7_14 
REMARK    6  A    between atoms: C6_13  and  C9_16 
REMARK    7  A    between atoms: C13_20  and  C17_24 
ROOT
HETATM    1  N1  UNK     1      16.579   7.064  33.553  1.00  0.00     0.096 N 
HETATM    2  N2  UNK     1      17.713   4.933  31.961  1.00  0.00     0.100 N 
HETATM    3  C1  UNK     1      17.276   5.934  34.179  1.00  0.00     0.303 C 
HETATM    4  C2  UNK     1      15.966   6.650  32.284  1.00  0.00     0.303 C 
HETATM    5  C3  UNK     1      18.326   5.347  33.230  1.00  0.00     0.303 C 
HETATM    6  C4  UNK     1      17.018   6.065  31.336  1.00  0.00     0.303 C 
ENDROOT
BRANCH   1   7
HETATM    7  C5  UNK     1      15.574   7.620  34.457  1.00  0.00     0.312 C 
BRANCH   7   8
HETATM    8  C7  UNK     1      15.385   9.083  34.258  1.00  0.00    -0.011 A 
HETATM    9  C10 UNK     1      14.160   9.613  34.132  1.00  0.00     0.092 A 
HETATM   10  C14 UNK     1      13.923  11.053  33.933  1.00  0.00     0.288 A 
HETATM   11  O1  UNK     1      15.044  11.866  33.878  1.00  0.00    -0.275 OA
HETATM   12  O3  UNK     1      12.787  11.500  33.824  1.00  0.00    -0.260 OA
HETATM   13  C11 UNK     1      16.345  11.339  34.006  1.00  0.00     0.090 A 
HETATM   14  C8  UNK     1      16.554   9.972  34.195  1.00  0.00     0.007 A 
HETATM   15  C15 UNK     1      17.399  12.251  33.935  1.00  0.00     0.039 A 
HETATM   16  C12 UNK     1      17.877   9.527  34.313  1.00  0.00     0.022 A 
HETATM   17  C13 UNK     1      18.944  10.430  34.243  1.00  0.00    -0.058 A 
HETATM   18  C16 UNK     1      18.705  11.789  34.056  1.00  0.00     0.010 A 
BRANCH  17  19
HETATM   19  C17 UNK     1      20.345   9.933  34.372  1.00  0.00     0.034 C 
HETATM   20  C19 UNK     1      20.437   8.415  34.241  1.00  0.00     0.010 C 
ENDBRANCH  17  19
ENDBRANCH   7   8
ENDBRANCH   1   7
BRANCH   2  21
HETATM   21  C6  UNK     1      18.716   4.376  31.056  1.00  0.00     0.375 C 
BRANCH  21  22
HETATM   22  C9  UNK     1      18.405   2.912  30.796  1.00  0.00     0.250 C 
HETATM   23  N3  UNK     1      19.582   2.168  30.763  1.00  0.00    -0.323 N 
HETATM   24  H15 UNK     1      20.459   2.660  30.921  1.00  0.00     0.169 HD
HETATM   25  O2  UNK     1      17.261   2.497  30.636  1.00  0.00    -0.271 OA
BRANCH  23  26
HETATM   26  C18 UNK     1      19.718   0.777  30.547  1.00  0.00     0.068 A 
HETATM   27  C20 UNK     1      19.467  -0.132  31.575  1.00  0.00     0.095 A 
HETATM   28  C22 UNK     1      19.606  -1.501  31.346  1.00  0.00     0.039 A 
HETATM   29  C24 UNK     1      19.996  -1.962  30.089  1.00  0.00     0.003 A 
HETATM   30  C23 UNK     1      20.247  -1.054  29.060  1.00  0.00     0.002 A 
HETATM   31  C21 UNK     1      20.108   0.315  29.290  1.00  0.00     0.032 A 
BRANCH  27  32
HETATM   32  O4  UNK     1      19.084   0.298  32.812  1.00  0.00    -0.354 OA
HETATM   33  C25 UNK     1      18.452  -0.658  33.661  1.00  0.00     0.210 C 
ENDBRANCH  27  32
ENDBRANCH  23  26
ENDBRANCH  21  22
ENDBRANCH   2  21
TORSDOF 7
ENDMDL
MODEL 8
REMARK VINA RESULT:      -8.8      5.965      9.886
REMARK  7 active torsions:
REMARK  status: ('A' for Active; 'I' for Inactive)
REMARK    1  A    between atoms: C20_27  and  O4_4 
REMARK    2  A    between atoms: C5_12  and  N1_5 
REMARK    3  A    between atoms: C6_13  and  N2_6 
REMARK    4  A    between atoms: C18_25  and  N3_7 
REMARK       I    between atoms: C9_16  and  N3_7 
REMARK    5  A    between atoms: C5_12  and  C7_14 
REMARK    6  A    between atoms: C6_13  and  C9_16 
REMARK    7  A    between atoms: C13_20  and  C17_24 
ROOT
HETATM    1  N1  UNK     1      19.074  -1.213  34.718  1.00  0.00     0.096 N 
HETATM    2  N2  UNK     1      19.833  -3.176  36.702  1.00  0.00     0.100 N 
HETATM    3  C1  UNK     1      18.110  -1.708  35.708  1.00  0.00     0.303 C 
HETATM    4  C2  UNK     1      20.085  -2.239  34.429  1.00  0.00     0.303 C 
HETATM    5  C3  UNK     1      18.823  -2.150  36.991  1.00  0.00     0.303 C 
HETATM    6  C4  UNK     1      20.797  -2.679  35.713  1.00  0.00     0.303 C 
ENDROOT
BRANCH   1   7
HETATM    7  C5  UNK     1      18.393  -0.796  33.494  1.00  0.00     0.312 C 
BRANCH   7   8
HETATM    8  C7  UNK     1      18.376   0.684  33.336  1.00  0.00    -0.011 A 
HETATM    9  C10 UNK     1      18.229   1.492  34.394  1.00  0.00     0.092 A 
HETATM   10  C14 UNK     1      18.206   2.961  34.288  1.00  0.00     0.288 A 
HETATM   11  O1  UNK     1      18.347   3.495  33.017  1.00  0.00    -0.275 OA
HETATM   12  O3  UNK     1      18.070   3.668  35.280  1.00  0.00    -0.260 OA
HETATM   13  C11 UNK     1      18.504   2.671  31.884  1.00  0.00     0.090 A 
HETATM   14  C8  UNK     1      18.524   1.280  32.001  1.00  0.00     0.007 A 
HETATM   15  C15 UNK     1      18.638   3.318  30.654  1.00  0.00     0.039 A 
HETATM   16  C12 UNK     1      18.683   0.532  30.827  1.00  0.00     0.022 A 
HETATM   17  C13 UNK     1      18.818   1.166  29.587  1.00  0.00    -0.058 A 
HETATM   18  C16 UNK     1      18.796   2.556  29.501  1.00  0.00     0.010 A 
BRANCH  17  19
HETATM   19  C17 UNK     1      18.988   0.349  28.350  1.00  0.00     0.034 C 
HETATM   20  C19 UNK     1      19.988  -0.789  28.541  1.00  0.00     0.010 C 
ENDBRANCH  17  19
ENDBRANCH   7   8
ENDBRANCH   1   7
BRANCH   2  21
HETATM   21  C6  UNK     1      20.514  -3.594  37.925  1.00  0.00     0.375 C 
BRANCH  21  22
HETATM   22  C9  UNK     1      20.832  -5.077  37.844  1.00  0.00     0.250 C 
HETATM   23  N3  UNK     1      19.702  -5.830  38.157  1.00  0.00    -0.323 N 
HETATM   24  H15 UNK     1      18.844  -5.328  38.378  1.00  0.00     0.169 HD
HETATM   25  O2  UNK     1      21.945  -5.500  37.549  1.00  0.00    -0.271 OA
BRANCH  23  26
HETATM   26  C18 UNK     1      19.587  -7.239  38.196  1.00  0.00     0.068 A 
HETATM   27  C20 UNK     1      19.039  -7.939  37.121  1.00  0.00     0.095 A 
HETATM   28  C22 UNK     1      18.933  -9.329  37.174  1.00  0.00     0.039 A 
HETATM   29  C24 UNK     1      19.373 -10.019  38.302  1.00  0.00     0.003 A 
HETATM   30  C23 UNK     1      19.921  -9.321  39.378  1.00  0.00     0.002 A 
HETATM   31  C21 UNK     1      20.027  -7.930  39.325  1.00  0.00     0.032 A 
BRANCH  27  32
HETATM   32  O4  UNK     1      18.603  -7.283  36.007  1.00  0.00    -0.354 OA
HETATM   33  C25 UNK     1      19.526  -7.158  34.927  1.00  0.00     0.210 C 
ENDBRANCH  27  32
ENDBRANCH  23  26
ENDBRANCH  21  22
ENDBRANCH   2  21
TORSDOF 7
ENDMDL
MODEL 9
REMARK VINA RESULT:      -8.8      5.062      7.963
REMARK  7 active torsions:
REMARK  status: ('A' for Active; 'I' for Inactive)
REMARK    1  A    between atoms: C20_27  and  O4_4 
REMARK    2  A    between atoms: C5_12  and  N1_5 
REMARK    3  A    between atoms: C6_13  and  N2_6 
REMARK    4  A    between atoms: C18_25  and  N3_7 
REMARK       I    between atoms: C9_16  and  N3_7 
REMARK    5  A    between atoms: C5_12  and  C7_14 
REMARK    6  A    between atoms: C6_13  and  C9_16 
REMARK    7  A    between atoms: C13_20  and  C17_24 
ROOT
HETATM    1  N1  UNK     1      18.712   0.861  34.124  1.00  0.00     0.096 N 
HETATM    2  N2  UNK     1      19.327  -1.714  35.289  1.00  0.00     0.100 N 
HETATM    3  C1  UNK     1      18.704   0.661  35.579  1.00  0.00     0.303 C 
HETATM    4  C2  UNK     1      18.375  -0.390  33.432  1.00  0.00     0.303 C 
HETATM    5  C3  UNK     1      19.665  -0.463  35.981  1.00  0.00     0.303 C 
HETATM    6  C4  UNK     1      19.338  -1.512  33.835  1.00  0.00     0.303 C 
ENDROOT
BRANCH   1   7
HETATM    7  C5  UNK     1      17.792   1.930  33.742  1.00  0.00     0.312 C 
BRANCH   7   8
HETATM    8  C7  UNK     1      18.181   2.575  32.458  1.00  0.00    -0.011 A 
HETATM    9  C10 UNK     1      18.360   1.850  31.345  1.00  0.00     0.092 A 
HETATM   10  C14 UNK     1      18.745   2.442  30.052  1.00  0.00     0.288 A 
HETATM   11  O1  UNK     1      18.922   3.816  30.025  1.00  0.00    -0.275 OA
HETATM   12  O3  UNK     1      18.898   1.746  29.055  1.00  0.00    -0.260 OA
HETATM   13  C11 UNK     1      18.742   4.605  31.179  1.00  0.00     0.090 A 
HETATM   14  C8  UNK     1      18.376   4.030  32.397  1.00  0.00     0.007 A 
HETATM   15  C15 UNK     1      18.946   5.979  31.035  1.00  0.00     0.039 A 
HETATM   16  C12 UNK     1      18.218   4.883  33.497  1.00  0.00     0.022 A 
HETATM   17  C13 UNK     1      18.420   6.262  33.368  1.00  0.00    -0.058 A 
HETATM   18  C16 UNK     1      18.782   6.809  32.139  1.00  0.00     0.010 A 
BRANCH  17  19
HETATM   19  C17 UNK     1      18.244   7.151  34.553  1.00  0.00     0.034 C 
HETATM   20  C19 UNK     1      19.357   8.192  34.667  1.00  0.00     0.010 C 
ENDBRANCH  17  19
ENDBRANCH   7   8
ENDBRANCH   1   7
BRANCH   2  21
HETATM   21  C6  UNK     1      20.246  -2.784  35.671  1.00  0.00     0.375 C 
BRANCH  21  22
HETATM   22  C9  UNK     1      19.501  -3.819  36.496  1.00  0.00     0.250 C 
HETATM   23  N3  UNK     1      20.312  -4.928  36.725  1.00  0.00    -0.323 N 
HETATM   24  H15 UNK     1      21.257  -4.910  36.346  1.00  0.00     0.169 HD
HETATM   25  O2  UNK     1      18.345  -3.656  36.875  1.00  0.00    -0.271 OA
BRANCH  23  26
HETATM   26  C18 UNK     1      19.989  -6.100  37.447  1.00  0.00     0.068 A 
HETATM   27  C20 UNK     1      19.237  -7.116  36.856  1.00  0.00     0.095 A 
HETATM   28  C22 UNK     1      18.926  -8.266  37.581  1.00  0.00     0.039 A 
HETATM   29  C24 UNK     1      19.368  -8.402  38.897  1.00  0.00     0.003 A 
HETATM   30  C23 UNK     1      20.121  -7.387  39.488  1.00  0.00     0.002 A 
HETATM   31  C21 UNK     1      20.431  -6.236  38.763  1.00  0.00     0.032 A 
BRANCH  27  32
HETATM   32  O4  UNK     1      18.795  -7.003  35.571  1.00  0.00    -0.354 OA
HETATM   33  C25 UNK     1      17.441  -7.373  35.317  1.00  0.00     0.210 C 
ENDBRANCH  27  32
ENDBRANCH  23  26
ENDBRANCH  21  22
ENDBRANCH   2  21
TORSDOF 7
ENDMDL
MODEL 10
REMARK VINA RESULT:      -8.7      5.884      9.925
REMARK  7 active torsions:
REMARK  status: ('A' for Active; 'I' for Inactive)
REMARK    1  A    between atoms: C20_27  and  O4_4 
REMARK    2  A    between atoms: C5_12  and  N1_5 
REMARK    3  A    between atoms: C6_13  and  N2_6 
REMARK    4  A    between atoms: C18_25  and  N3_7 
REMARK       I    between atoms: C9_16  and  N3_7 
REMARK    5  A    between atoms: C5_12  and  C7_14 
REMARK    6  A    between atoms: C6_13  and  C9_16 
REMARK    7  A    between atoms: C13_20  and  C17_24 
ROOT
HETATM    1  N1  UNK     1      18.755  -0.872  35.227  1.00  0.00     0.096 N 
HETATM    2  N2  UNK     1      19.737  -2.998  36.924  1.00  0.00     0.100 N 
HETATM    3  C1  UNK     1      17.953  -1.388  36.343  1.00  0.00     0.303 C 
HETATM    4  C2  UNK     1      19.639  -1.921  34.702  1.00  0.00     0.303 C 
HETATM    5  C3  UNK     1      18.854  -1.948  37.449  1.00  0.00     0.303 C 
HETATM    6  C4  UNK     1      20.539  -2.479  35.809  1.00  0.00     0.303 C 
ENDROOT
BRANCH   1   7
HETATM    7  C5  UNK     1      17.894  -0.343  34.171  1.00  0.00     0.312 C 
BRANCH   7   8
HETATM    8  C7  UNK     1      18.574  -0.325  32.847  1.00  0.00    -0.011 A 
HETATM    9  C10 UNK     1      19.110  -1.439  32.328  1.00  0.00     0.092 A 
HETATM   10  C14 UNK     1      19.793  -1.471  31.024  1.00  0.00     0.288 A 
HETATM   11  O1  UNK     1      19.864  -0.275  30.328  1.00  0.00    -0.275 OA
HETATM   12  O3  UNK     1      20.269  -2.511  30.582  1.00  0.00    -0.260 OA
HETATM   13  C11 UNK     1      19.310   0.913  30.847  1.00  0.00     0.090 A 
HETATM   14  C8  UNK     1      18.666   0.928  32.086  1.00  0.00     0.007 A 
HETATM   15  C15 UNK     1      19.441   2.059  30.061  1.00  0.00     0.039 A 
HETATM   16  C12 UNK     1      18.143   2.149  32.531  1.00  0.00     0.022 A 
HETATM   17  C13 UNK     1      18.266   3.307  31.754  1.00  0.00    -0.058 A 
HETATM   18  C16 UNK     1      18.913   3.261  30.521  1.00  0.00     0.010 A 
BRANCH  17  19
HETATM   19  C17 UNK     1      17.701   4.596  32.248  1.00  0.00     0.034 C 
HETATM   20  C19 UNK     1      18.543   5.798  31.827  1.00  0.00     0.010 C 
ENDBRANCH  17  19
ENDBRANCH   7   8
ENDBRANCH   1   7
BRANCH   2  21
HETATM   21  C6  UNK     1      20.597  -3.529  37.979  1.00  0.00     0.375 C 
BRANCH  21  22
HETATM   22  C9  UNK     1      20.822  -5.013  37.749  1.00  0.00     0.250 C 
HETATM   23  N3  UNK     1      19.735  -5.744  38.224  1.00  0.00    -0.323 N 
HETATM   24  H15 UNK     1      18.959  -5.228  38.633  1.00  0.00     0.169 HD
HETATM   25  O2  UNK     1      21.838  -5.454  37.222  1.00  0.00    -0.271 OA
BRANCH  23  26
HETATM   26  C18 UNK     1      19.560  -7.148  38.197  1.00  0.00     0.068 A 
HETATM   27  C20 UNK     1      19.008  -7.775  37.080  1.00  0.00     0.095 A 
HETATM   28  C22 UNK     1      18.843  -9.160  37.069  1.00  0.00     0.039 A 
HETATM   29  C24 UNK     1      19.228  -9.918  38.174  1.00  0.00     0.003 A 
HETATM   30  C23 UNK     1      19.780  -9.291  39.291  1.00  0.00     0.002 A 
HETATM   31  C21 UNK     1      19.946  -7.905  39.302  1.00  0.00     0.032 A 
BRANCH  27  32
HETATM   32  O4  UNK     1      18.625  -7.053  35.988  1.00  0.00    -0.354 OA
HETATM   33  C25 UNK     1      19.520  -7.035  34.878  1.00  0.00     0.210 C 
ENDBRANCH  27  32
ENDBRANCH  23  26
ENDBRANCH  21  22
ENDBRANCH   2  21
TORSDOF 7
ENDMDL
