MODEL 1
REMARK VINA RESULT:      -7.6      0.000      0.000
REMARK  3 active torsions:
REMARK  status: ('A' for Active; 'I' for Inactive)
REMARK    1  A    between atoms: C7_10  and  O1_2 
REMARK    2  A    between atoms: C1_4  and  C3_6 
REMARK    3  A    between atoms: C2_5  and  C4_7 
ROOT
HETATM    1  N1  UNK     1      20.231   9.303  34.572  1.00  0.00    -0.191 NA
HETATM    2  C3  UNK     1      19.777   6.368  32.878  1.00  0.00     0.034 C 
HETATM    3  C4  UNK     1      19.031   7.387  33.307  1.00  0.00     0.055 C 
HETATM    4  C15 UNK     1      19.695   8.445  34.004  1.00  0.00     0.100 C 
ENDROOT
BRANCH   3   5
HETATM    5  C2  UNK     1      17.569   7.496  33.126  1.00  0.00    -0.015 A 
HETATM    6  C10 UNK     1      16.737   7.281  34.210  1.00  0.00     0.014 A 
HETATM    7  C12 UNK     1      15.356   7.384  34.039  1.00  0.00     0.024 A 
HETATM    8  C14 UNK     1      14.830   7.700  32.786  1.00  0.00     0.034 A 
HETATM    9  C13 UNK     1      15.685   7.914  31.704  1.00  0.00     0.024 A 
HETATM   10 Cl1  UNK     1      13.128   7.827  32.575  1.00  0.00    -0.084 Cl
HETATM   11  C11 UNK     1      17.066   7.811  31.876  1.00  0.00     0.014 A 
ENDBRANCH   3   5
BRANCH   2  12
HETATM   12  C1  UNK     1      19.243   5.232  32.143  1.00  0.00    -0.035 A 
HETATM   13  C5  UNK     1      18.472   4.275  32.803  1.00  0.00     0.014 A 
HETATM   14  C8  UNK     1      17.960   3.185  32.100  1.00  0.00     0.037 A 
HETATM   15  C7  UNK     1      18.218   3.052  30.736  1.00  0.00     0.068 A 
HETATM   16  C9  UNK     1      18.989   4.009  30.075  1.00  0.00     0.037 A 
HETATM   17  C6  UNK     1      19.501   5.099  30.779  1.00  0.00     0.014 A 
BRANCH  15  18
HETATM   18  O1  UNK     1      17.718   1.989  30.048  1.00  0.00    -0.356 OA
HETATM   19  C16 UNK     1      17.879   1.998  28.631  1.00  0.00     0.210 C 
ENDBRANCH  15  18
ENDBRANCH   2  12
TORSDOF 3
ENDMDL
MODEL 2
REMARK VINA RESULT:      -6.6     18.113     19.576
REMARK  3 active torsions:
REMARK  status: ('A' for Active; 'I' for Inactive)
REMARK    1  A    between atoms: C7_10  and  O1_2 
REMARK    2  A    between atoms: C1_4  and  C3_6 
REMARK    3  A    between atoms: C2_5  and  C4_7 
ROOT
HETATM    1  N1  UNK     1      29.305  -3.685  39.934  1.00  0.00    -0.191 NA
HETATM    2  C3  UNK     1      31.973  -4.790  38.103  1.00  0.00     0.034 C 
HETATM    3  C4  UNK     1      30.691  -5.115  38.278  1.00  0.00     0.055 C 
HETATM    4  C15 UNK     1      29.927  -4.325  39.192  1.00  0.00     0.100 C 
ENDROOT
BRANCH   3   5
HETATM    5  C2  UNK     1      30.008  -6.241  37.607  1.00  0.00    -0.015 A 
HETATM    6  C10 UNK     1      29.486  -6.055  36.339  1.00  0.00     0.014 A 
HETATM    7  C12 UNK     1      28.841  -7.117  35.706  1.00  0.00     0.024 A 
HETATM    8  C14 UNK     1      28.727  -8.349  36.352  1.00  0.00     0.034 A 
HETATM    9  C13 UNK     1      29.260  -8.518  37.630  1.00  0.00     0.024 A 
HETATM   10 Cl1  UNK     1      27.933  -9.659  35.571  1.00  0.00    -0.084 Cl
HETATM   11  C11 UNK     1      29.906  -7.455  38.263  1.00  0.00     0.014 A 
ENDBRANCH   3   5
BRANCH   2  12
HETATM   12  C1  UNK     1      32.867  -5.494  37.197  1.00  0.00    -0.035 A 
HETATM   13  C5  UNK     1      33.075  -5.009  35.905  1.00  0.00     0.014 A 
HETATM   14  C8  UNK     1      33.931  -5.684  35.036  1.00  0.00     0.037 A 
HETATM   15  C7  UNK     1      34.581  -6.844  35.459  1.00  0.00     0.068 A 
HETATM   16  C9  UNK     1      34.375  -7.328  36.750  1.00  0.00     0.037 A 
HETATM   17  C6  UNK     1      33.518  -6.653  37.620  1.00  0.00     0.014 A 
BRANCH  15  18
HETATM   18  O1  UNK     1      35.418  -7.502  34.611  1.00  0.00    -0.356 OA
HETATM   19  C16 UNK     1      36.808  -7.192  34.697  1.00  0.00     0.210 C 
ENDBRANCH  15  18
ENDBRANCH   2  12
TORSDOF 3
ENDMDL
MODEL 3
REMARK VINA RESULT:      -6.5     17.821     19.092
REMARK  3 active torsions:
REMARK  status: ('A' for Active; 'I' for Inactive)
REMARK    1  A    between atoms: C7_10  and  O1_2 
REMARK    2  A    between atoms: C1_4  and  C3_6 
REMARK    3  A    between atoms: C2_5  and  C4_7 
ROOT
HETATM    1  N1  UNK     1      29.668  -3.525  39.842  1.00  0.00    -0.191 NA
HETATM    2  C3  UNK     1      27.939  -6.398  39.174  1.00  0.00     0.034 C 
HETATM    3  C4  UNK     1      29.114  -5.854  38.854  1.00  0.00     0.055 C 
HETATM    4  C15 UNK     1      29.419  -4.568  39.400  1.00  0.00     0.100 C 
ENDROOT
BRANCH   3   5
HETATM    5  C2  UNK     1      30.117  -6.477  37.965  1.00  0.00    -0.015 A 
HETATM    6  C10 UNK     1      30.122  -6.152  36.621  1.00  0.00     0.014 A 
HETATM    7  C12 UNK     1      31.069  -6.740  35.782  1.00  0.00     0.024 A 
HETATM    8  C14 UNK     1      31.995  -7.645  36.302  1.00  0.00     0.034 A 
HETATM    9  C13 UNK     1      31.976  -7.960  37.661  1.00  0.00     0.024 A 
HETATM   10 Cl1  UNK     1      33.164  -8.370  35.269  1.00  0.00    -0.084 Cl
HETATM   11  C11 UNK     1      31.028  -7.371  38.500  1.00  0.00     0.014 A 
ENDBRANCH   3   5
BRANCH   2  12
HETATM   12  C1  UNK     1      27.500  -7.703  38.704  1.00  0.00    -0.035 A 
HETATM   13  C5  UNK     1      26.957  -7.838  37.426  1.00  0.00     0.014 A 
HETATM   14  C8  UNK     1      26.536  -9.089  36.976  1.00  0.00     0.037 A 
HETATM   15  C7  UNK     1      26.659 -10.205  37.803  1.00  0.00     0.068 A 
HETATM   16  C9  UNK     1      27.202 -10.071  39.081  1.00  0.00     0.037 A 
HETATM   17  C6  UNK     1      27.623  -8.819  39.531  1.00  0.00     0.014 A 
BRANCH  15  18
HETATM   18  O1  UNK     1      26.248 -11.426  37.364  1.00  0.00    -0.356 OA
HETATM   19  C16 UNK     1      25.369 -11.451  36.240  1.00  0.00     0.210 C 
ENDBRANCH  15  18
ENDBRANCH   2  12
TORSDOF 3
ENDMDL
MODEL 4
REMARK VINA RESULT:      -6.4     17.533     19.114
REMARK  3 active torsions:
REMARK  status: ('A' for Active; 'I' for Inactive)
REMARK    1  A    between atoms: C7_10  and  O1_2 
REMARK    2  A    between atoms: C1_4  and  C3_6 
REMARK    3  A    between atoms: C2_5  and  C4_7 
ROOT
HETATM    1  N1  UNK     1      26.915  -4.746  38.978  1.00  0.00    -0.191 NA
HETATM    2  C3  UNK     1      30.237  -4.601  38.178  1.00  0.00     0.034 C 
HETATM    3  C4  UNK     1      29.189  -5.381  37.910  1.00  0.00     0.055 C 
HETATM    4  C15 UNK     1      27.934  -5.029  38.500  1.00  0.00     0.100 C 
ENDROOT
BRANCH   3   5
HETATM    5  C2  UNK     1      29.232  -6.589  37.060  1.00  0.00    -0.015 A 
HETATM    6  C10 UNK     1      29.442  -7.823  37.651  1.00  0.00     0.014 A 
HETATM    7  C12 UNK     1      29.483  -8.963  36.849  1.00  0.00     0.024 A 
HETATM    8  C14 UNK     1      29.316  -8.851  35.468  1.00  0.00     0.034 A 
HETATM    9  C13 UNK     1      29.105  -7.599  34.890  1.00  0.00     0.024 A 
HETATM   10 Cl1  UNK     1      29.366 -10.257  34.478  1.00  0.00    -0.084 Cl
HETATM   11  C11 UNK     1      29.064  -6.458  35.693  1.00  0.00     0.014 A 
ENDBRANCH   3   5
BRANCH   2  12
HETATM   12  C1  UNK     1      31.569  -4.827  37.639  1.00  0.00    -0.035 A 
HETATM   13  C5  UNK     1      31.959  -4.198  36.456  1.00  0.00     0.014 A 
HETATM   14  C8  UNK     1      33.235  -4.415  35.939  1.00  0.00     0.037 A 
HETATM   15  C7  UNK     1      34.123  -5.260  36.605  1.00  0.00     0.068 A 
HETATM   16  C9  UNK     1      33.734  -5.888  37.788  1.00  0.00     0.037 A 
HETATM   17  C6  UNK     1      32.457  -5.671  38.305  1.00  0.00     0.014 A 
BRANCH  15  18
HETATM   18  O1  UNK     1      35.369  -5.472  36.101  1.00  0.00    -0.356 OA
HETATM   19  C16 UNK     1      35.537  -6.590  35.230  1.00  0.00     0.210 C 
ENDBRANCH  15  18
ENDBRANCH   2  12
TORSDOF 3
ENDMDL
MODEL 5
REMARK VINA RESULT:      -6.4     17.643     18.903
REMARK  3 active torsions:
REMARK  status: ('A' for Active; 'I' for Inactive)
REMARK    1  A    between atoms: C7_10  and  O1_2 
REMARK    2  A    between atoms: C1_4  and  C3_6 
REMARK    3  A    between atoms: C2_5  and  C4_7 
ROOT
HETATM    1  N1  UNK     1      29.452  -3.594  40.025  1.00  0.00    -0.191 NA
HETATM    2  C3  UNK     1      28.805  -6.023  37.707  1.00  0.00     0.034 C 
HETATM    3  C4  UNK     1      29.859  -5.336  38.151  1.00  0.00     0.055 C 
HETATM    4  C15 UNK     1      29.633  -4.375  39.186  1.00  0.00     0.100 C 
ENDROOT
BRANCH   3   5
HETATM    5  C2  UNK     1      31.238  -5.484  37.642  1.00  0.00    -0.015 A 
HETATM    6  C10 UNK     1      32.071  -6.428  38.215  1.00  0.00     0.014 A 
HETATM    7  C12 UNK     1      33.373  -6.568  37.735  1.00  0.00     0.024 A 
HETATM    8  C14 UNK     1      33.822  -5.760  36.689  1.00  0.00     0.034 A 
HETATM    9  C13 UNK     1      32.967  -4.814  36.123  1.00  0.00     0.024 A 
HETATM   10 Cl1  UNK     1      35.427  -5.933  36.096  1.00  0.00    -0.084 Cl
HETATM   11  C11 UNK     1      31.664  -4.674  36.604  1.00  0.00     0.014 A 
ENDBRANCH   3   5
BRANCH   2  12
HETATM   12  C1  UNK     1      28.886  -7.040  36.670  1.00  0.00    -0.035 A 
HETATM   13  C5  UNK     1      29.129  -8.370  37.014  1.00  0.00     0.014 A 
HETATM   14  C8  UNK     1      29.207  -9.345  36.021  1.00  0.00     0.037 A 
HETATM   15  C7  UNK     1      29.040  -8.991  34.682  1.00  0.00     0.068 A 
HETATM   16  C9  UNK     1      28.795  -7.662  34.337  1.00  0.00     0.037 A 
HETATM   17  C6  UNK     1      28.718  -6.686  35.332  1.00  0.00     0.014 A 
BRANCH  15  18
HETATM   18  O1  UNK     1      29.115  -9.942  33.712  1.00  0.00    -0.356 OA
HETATM   19  C16 UNK     1      28.971  -9.506  32.361  1.00  0.00     0.210 C 
ENDBRANCH  15  18
ENDBRANCH   2  12
TORSDOF 3
ENDMDL
MODEL 6
REMARK VINA RESULT:      -6.4     22.596     24.484
REMARK  3 active torsions:
REMARK  status: ('A' for Active; 'I' for Inactive)
REMARK    1  A    between atoms: C7_10  and  O1_2 
REMARK    2  A    between atoms: C1_4  and  C3_6 
REMARK    3  A    between atoms: C2_5  and  C4_7 
ROOT
HETATM    1  N1  UNK     1      16.739   5.055   9.398  1.00  0.00    -0.191 NA
HETATM    2  C3  UNK     1      13.489   5.192   8.342  1.00  0.00     0.034 C 
HETATM    3  C4  UNK     1      14.378   6.006   8.913  1.00  0.00     0.055 C 
HETATM    4  C15 UNK     1      15.681   5.480   9.180  1.00  0.00     0.100 C 
ENDROOT
BRANCH   3   5
HETATM    5  C2  UNK     1      14.111   7.406   9.304  1.00  0.00    -0.015 A 
HETATM    6  C10 UNK     1      14.483   8.428   8.449  1.00  0.00     0.014 A 
HETATM    7  C12 UNK     1      14.231   9.749   8.818  1.00  0.00     0.024 A 
HETATM    8  C14 UNK     1      13.611  10.027  10.037  1.00  0.00     0.034 A 
HETATM    9  C13 UNK     1      13.242   8.983  10.886  1.00  0.00     0.024 A 
HETATM   10 Cl1  UNK     1      13.299  11.656  10.492  1.00  0.00    -0.084 Cl
HETATM   11  C11 UNK     1      13.495   7.662  10.516  1.00  0.00     0.014 A 
ENDBRANCH   3   5
BRANCH   2  12
HETATM   12  C1  UNK     1      12.134   5.593   8.000  1.00  0.00    -0.035 A 
HETATM   13  C5  UNK     1      11.106   5.444   8.932  1.00  0.00     0.014 A 
HETATM   14  C8  UNK     1       9.806   5.827   8.605  1.00  0.00     0.037 A 
HETATM   15  C7  UNK     1       9.533   6.360   7.345  1.00  0.00     0.068 A 
HETATM   16  C9  UNK     1      10.559   6.510   6.413  1.00  0.00     0.037 A 
HETATM   17  C6  UNK     1      11.860   6.127   6.741  1.00  0.00     0.014 A 
BRANCH  15  18
HETATM   18  O1  UNK     1       8.264   6.735   7.025  1.00  0.00    -0.356 OA
HETATM   19  C16 UNK     1       7.484   7.337   8.058  1.00  0.00     0.210 C 
ENDBRANCH  15  18
ENDBRANCH   2  12
TORSDOF 3
ENDMDL
MODEL 7
REMARK VINA RESULT:      -6.3     13.523     15.891
REMARK  3 active torsions:
REMARK  status: ('A' for Active; 'I' for Inactive)
REMARK    1  A    between atoms: C7_10  and  O1_2 
REMARK    2  A    between atoms: C1_4  and  C3_6 
REMARK    3  A    between atoms: C2_5  and  C4_7 
ROOT
HETATM    1  N1  UNK     1      19.385 -11.795  38.593  1.00  0.00    -0.191 NA
HETATM    2  C3  UNK     1      19.180  -8.715  37.122  1.00  0.00     0.034 C 
HETATM    3  C4  UNK     1      20.096  -9.448  37.756  1.00  0.00     0.055 C 
HETATM    4  C15 UNK     1      19.703 -10.744  38.217  1.00  0.00     0.100 C 
ENDROOT
BRANCH   3   5
HETATM    5  C2  UNK     1      21.482  -9.015  38.029  1.00  0.00    -0.015 A 
HETATM    6  C10 UNK     1      21.775  -8.412  39.239  1.00  0.00     0.014 A 
HETATM    7  C12 UNK     1      23.083  -8.003  39.496  1.00  0.00     0.024 A 
HETATM    8  C14 UNK     1      24.078  -8.202  38.538  1.00  0.00     0.034 A 
HETATM    9  C13 UNK     1      23.764  -8.812  37.323  1.00  0.00     0.024 A 
HETATM   10 Cl1  UNK     1      25.692  -7.698  38.855  1.00  0.00    -0.084 Cl
HETATM   11  C11 UNK     1      22.455  -9.222  37.066  1.00  0.00     0.014 A 
ENDBRANCH   3   5
BRANCH   2  12
HETATM   12  C1  UNK     1      19.440  -7.388  36.587  1.00  0.00    -0.035 A 
HETATM   13  C5  UNK     1      19.229  -6.261  37.382  1.00  0.00     0.014 A 
HETATM   14  C8  UNK     1      19.478  -4.988  36.870  1.00  0.00     0.037 A 
HETATM   15  C7  UNK     1      19.939  -4.841  35.561  1.00  0.00     0.068 A 
HETATM   16  C9  UNK     1      20.151  -5.967  34.766  1.00  0.00     0.037 A 
HETATM   17  C6  UNK     1      19.902  -7.241  35.279  1.00  0.00     0.014 A 
BRANCH  15  18
HETATM   18  O1  UNK     1      20.182  -3.600  35.061  1.00  0.00    -0.356 OA
HETATM   19  C16 UNK     1      20.480  -2.567  36.000  1.00  0.00     0.210 C 
ENDBRANCH  15  18
ENDBRANCH   2  12
TORSDOF 3
ENDMDL
MODEL 8
REMARK VINA RESULT:      -6.3     22.133     23.734
REMARK  3 active torsions:
REMARK  status: ('A' for Active; 'I' for Inactive)
REMARK    1  A    between atoms: C7_10  and  O1_2 
REMARK    2  A    between atoms: C1_4  and  C3_6 
REMARK    3  A    between atoms: C2_5  and  C4_7 
ROOT
HETATM    1  N1  UNK     1      17.988   7.295  10.548  1.00  0.00    -0.191 NA
HETATM    2  C3  UNK     1      15.068   6.207   9.140  1.00  0.00     0.034 C 
HETATM    3  C4  UNK     1      15.523   7.301   9.753  1.00  0.00     0.055 C 
HETATM    4  C15 UNK     1      16.884   7.297  10.191  1.00  0.00     0.100 C 
ENDROOT
BRANCH   3   5
HETATM    5  C2  UNK     1      14.719   8.511  10.024  1.00  0.00    -0.015 A 
HETATM    6  C10 UNK     1      13.813   8.499  11.069  1.00  0.00     0.014 A 
HETATM    7  C12 UNK     1      13.054   9.641  11.325  1.00  0.00     0.024 A 
HETATM    8  C14 UNK     1      13.213  10.777  10.530  1.00  0.00     0.034 A 
HETATM    9  C13 UNK     1      14.132  10.771   9.480  1.00  0.00     0.024 A 
HETATM   10 Cl1  UNK     1      12.278  12.186  10.845  1.00  0.00    -0.084 Cl
HETATM   11  C11 UNK     1      14.891   9.628   9.225  1.00  0.00     0.014 A 
ENDBRANCH   3   5
BRANCH   2  12
HETATM   12  C1  UNK     1      13.713   6.074   8.630  1.00  0.00    -0.035 A 
HETATM   13  C5  UNK     1      13.375   6.624   7.393  1.00  0.00     0.014 A 
HETATM   14  C8  UNK     1      12.076   6.497   6.903  1.00  0.00     0.037 A 
HETATM   15  C7  UNK     1      11.113   5.818   7.650  1.00  0.00     0.068 A 
HETATM   16  C9  UNK     1      11.449   5.267   8.886  1.00  0.00     0.037 A 
HETATM   17  C6  UNK     1      12.750   5.394   9.376  1.00  0.00     0.014 A 
BRANCH  15  18
HETATM   18  O1  UNK     1       9.845   5.693   7.172  1.00  0.00    -0.356 OA
HETATM   19  C16 UNK     1       9.600   6.164   5.848  1.00  0.00     0.210 C 
ENDBRANCH  15  18
ENDBRANCH   2  12
TORSDOF 3
ENDMDL
MODEL 9
REMARK VINA RESULT:      -6.3     22.374     24.000
REMARK  3 active torsions:
REMARK  status: ('A' for Active; 'I' for Inactive)
REMARK    1  A    between atoms: C7_10  and  O1_2 
REMARK    2  A    between atoms: C1_4  and  C3_6 
REMARK    3  A    between atoms: C2_5  and  C4_7 
ROOT
HETATM    1  N1  UNK     1      15.815   3.738   9.882  1.00  0.00    -0.191 NA
HETATM    2  C3  UNK     1      15.108   7.054  10.327  1.00  0.00     0.034 C 
HETATM    3  C4  UNK     1      14.591   6.011   9.674  1.00  0.00     0.055 C 
HETATM    4  C15 UNK     1      15.268   4.757   9.790  1.00  0.00     0.100 C 
ENDROOT
BRANCH   3   5
HETATM    5  C2  UNK     1      13.380   6.062   8.828  1.00  0.00    -0.015 A 
HETATM    6  C10 UNK     1      12.165   5.678   9.366  1.00  0.00     0.014 A 
HETATM    7  C12 UNK     1      11.022   5.726   8.568  1.00  0.00     0.024 A 
HETATM    8  C14 UNK     1      11.114   6.155   7.243  1.00  0.00     0.034 A 
HETATM    9  C13 UNK     1      12.348   6.539   6.718  1.00  0.00     0.024 A 
HETATM   10 Cl1  UNK     1       9.705   6.215   6.258  1.00  0.00    -0.084 Cl
HETATM   11  C11 UNK     1      13.491   6.491   7.517  1.00  0.00     0.014 A 
ENDBRANCH   3   5
BRANCH   2  12
HETATM   12  C1  UNK     1      14.521   8.385  10.312  1.00  0.00    -0.035 A 
HETATM   13  C5  UNK     1      13.492   8.704  11.198  1.00  0.00     0.014 A 
HETATM   14  C8  UNK     1      12.929   9.979  11.185  1.00  0.00     0.037 A 
HETATM   15  C7  UNK     1      13.396  10.937  10.285  1.00  0.00     0.068 A 
HETATM   16  C9  UNK     1      14.426  10.620   9.399  1.00  0.00     0.037 A 
HETATM   17  C6  UNK     1      14.989   9.343   9.413  1.00  0.00     0.014 A 
BRANCH  15  18
HETATM   18  O1  UNK     1      12.848  12.183  10.271  1.00  0.00    -0.356 OA
HETATM   19  C16 UNK     1      11.453  12.282  10.554  1.00  0.00     0.210 C 
ENDBRANCH  15  18
ENDBRANCH   2  12
TORSDOF 3
ENDMDL
MODEL 10
REMARK VINA RESULT:      -6.2     10.681     12.128
REMARK  3 active torsions:
REMARK  status: ('A' for Active; 'I' for Inactive)
REMARK    1  A    between atoms: C7_10  and  O1_2 
REMARK    2  A    between atoms: C1_4  and  C3_6 
REMARK    3  A    between atoms: C2_5  and  C4_7 
ROOT
HETATM    1  N1  UNK     1      13.029   6.544  26.069  1.00  0.00    -0.191 NA
HETATM    2  C3  UNK     1      12.690   7.383  22.771  1.00  0.00     0.034 C 
HETATM    3  C4  UNK     1      13.013   7.986  23.917  1.00  0.00     0.055 C 
HETATM    4  C15 UNK     1      13.022   7.189  25.104  1.00  0.00     0.100 C 
ENDROOT
BRANCH   3   5
HETATM    5  C2  UNK     1      13.346   9.419  24.051  1.00  0.00    -0.015 A 
HETATM    6  C10 UNK     1      12.342  10.321  24.353  1.00  0.00     0.014 A 
HETATM    7  C12 UNK     1      12.657  11.674  24.479  1.00  0.00     0.024 A 
HETATM    8  C14 UNK     1      13.973  12.103  24.299  1.00  0.00     0.034 A 
HETATM    9  C13 UNK     1      14.973  11.179  23.995  1.00  0.00     0.024 A 
HETATM   10 Cl1  UNK     1      14.362  13.771  24.455  1.00  0.00    -0.084 Cl
HETATM   11  C11 UNK     1      14.657   9.826  23.869  1.00  0.00     0.014 A 
ENDBRANCH   3   5
BRANCH   2  12
HETATM   12  C1  UNK     1      12.652   8.063  21.486  1.00  0.00    -0.035 A 
HETATM   13  C5  UNK     1      11.463   8.637  21.035  1.00  0.00     0.014 A 
HETATM   14  C8  UNK     1      11.427   9.289  19.803  1.00  0.00     0.037 A 
HETATM   15  C7  UNK     1      12.579   9.367  19.021  1.00  0.00     0.068 A 
HETATM   16  C9  UNK     1      13.768   8.793  19.471  1.00  0.00     0.037 A 
HETATM   17  C6  UNK     1      13.805   8.142  20.704  1.00  0.00     0.014 A 
BRANCH  15  18
HETATM   18  O1  UNK     1      12.543  10.003  17.818  1.00  0.00    -0.356 OA
HETATM   19  C16 UNK     1      13.715   9.924  17.007  1.00  0.00     0.210 C 
ENDBRANCH  15  18
ENDBRANCH   2  12
TORSDOF 3
ENDMDL
