MODEL 1
REMARK VINA RESULT:      -8.4      0.000      0.000
REMARK  4 active torsions:
REMARK  status: ('A' for Active; 'I' for Inactive)
REMARK    1  A    between atoms: C1_8  and  N1_5 
REMARK       I    between atoms: C4_11  and  N1_5 
REMARK    2  A    between atoms: C6_13  and  N2_6 
REMARK    3  A    between atoms: C1_8  and  C2_9 
REMARK    4  A    between atoms: C4_11  and  C5_12 
ROOT
HETATM    1 Br1  UNK     1      18.669   1.659  20.629  1.00  0.00    -0.051 Br
HETATM    2  O1  UNK     1      19.418   0.566  14.709  1.00  0.00    -0.274 OA
HETATM    3  O3  UNK     1      19.452  -0.891  12.948  1.00  0.00    -0.259 OA
HETATM    4  C5  UNK     1      18.963  -1.809  15.077  1.00  0.00     0.108 A 
HETATM    5  C9  UNK     1      18.928  -0.262  16.942  1.00  0.00     0.000 A 
HETATM    6  C10 UNK     1      18.792  -1.600  16.388  1.00  0.00     0.037 A 
HETATM    7  C11 UNK     1      19.239   0.791  16.087  1.00  0.00     0.089 A 
HETATM    8  C12 UNK     1      19.294  -0.704  14.150  1.00  0.00     0.304 A 
HETATM    9  C14 UNK     1      18.758   0.002  18.303  1.00  0.00     0.033 A 
HETATM   10  C15 UNK     1      19.383   2.097  16.553  1.00  0.00     0.039 A 
HETATM   11  C16 UNK     1      18.900   1.307  18.785  1.00  0.00     0.011 A 
HETATM   12  C17 UNK     1      19.211   2.352  17.913  1.00  0.00     0.022 A 
ENDROOT
BRANCH   4  13
HETATM   13  C4  UNK     1      18.806  -3.193  14.615  1.00  0.00     0.259 C 
HETATM   14  O2  UNK     1      17.874  -3.451  13.845  1.00  0.00    -0.267 OA
HETATM   15  N1  UNK     1      19.732  -4.137  15.069  1.00  0.00    -0.348 N 
HETATM   16  C8  UNK     1      20.819  -3.786  15.980  1.00  0.00     0.153 C 
BRANCH  15  17
HETATM   17  C1  UNK     1      19.679  -5.535  14.662  1.00  0.00     0.167 C 
BRANCH  17  18
HETATM   18  C2  UNK     1      18.337  -6.098  14.982  1.00  0.00    -0.004 A 
HETATM   19  C3  UNK     1      17.715  -6.100  16.194  1.00  0.00     0.122 A 
HETATM   20  N2  UNK     1      16.520  -6.722  15.984  1.00  0.00    -0.281 N 
HETATM   21  N3  UNK     1      16.330  -7.118  14.713  1.00  0.00    -0.185 NA
HETATM   22  C7  UNK     1      17.454  -6.730  14.104  1.00  0.00     0.149 A 
BRANCH  20  23
HETATM   23  C6  UNK     1      15.496  -6.969  16.971  1.00  0.00     0.146 C 
HETATM   24  C13 UNK     1      15.938  -6.568  18.368  1.00  0.00     0.028 C 
ENDBRANCH  20  23
ENDBRANCH  17  18
ENDBRANCH  15  17
ENDBRANCH   4  13
TORSDOF 4
ENDMDL
MODEL 2
REMARK VINA RESULT:      -8.3      2.237      3.282
REMARK  4 active torsions:
REMARK  status: ('A' for Active; 'I' for Inactive)
REMARK    1  A    between atoms: C1_8  and  N1_5 
REMARK       I    between atoms: C4_11  and  N1_5 
REMARK    2  A    between atoms: C6_13  and  N2_6 
REMARK    3  A    between atoms: C1_8  and  C2_9 
REMARK    4  A    between atoms: C4_11  and  C5_12 
ROOT
HETATM    1 Br1  UNK     1      19.101   2.017  20.982  1.00  0.00    -0.051 Br
HETATM    2  O1  UNK     1      19.214   0.765  15.047  1.00  0.00    -0.274 OA
HETATM    3  O3  UNK     1      19.115  -0.745  13.335  1.00  0.00    -0.259 OA
HETATM    4  C5  UNK     1      18.921  -1.614  15.530  1.00  0.00     0.108 A 
HETATM    5  C9  UNK     1      19.026  -0.010  17.343  1.00  0.00     0.000 A 
HETATM    6  C10 UNK     1      18.892  -1.370  16.847  1.00  0.00     0.037 A 
HETATM    7  C11 UNK     1      19.184   1.028  16.430  1.00  0.00     0.089 A 
HETATM    8  C12 UNK     1      19.088  -0.526  14.541  1.00  0.00     0.304 A 
HETATM    9  C14 UNK     1      19.001   0.291  18.707  1.00  0.00     0.033 A 
HETATM   10  C15 UNK     1      19.317   2.354  16.841  1.00  0.00     0.039 A 
HETATM   11  C16 UNK     1      19.134   1.616  19.135  1.00  0.00     0.011 A 
HETATM   12  C17 UNK     1      19.291   2.644  18.203  1.00  0.00     0.022 A 
ENDROOT
BRANCH   4  13
HETATM   13  C4  UNK     1      18.779  -3.018  15.128  1.00  0.00     0.259 C 
HETATM   14  O2  UNK     1      17.640  -3.493  15.049  1.00  0.00    -0.267 OA
HETATM   15  N1  UNK     1      19.947  -3.733  14.846  1.00  0.00    -0.348 N 
HETATM   16  C8  UNK     1      21.274  -3.130  14.953  1.00  0.00     0.153 C 
BRANCH  15  17
HETATM   17  C1  UNK     1      19.922  -5.127  14.424  1.00  0.00     0.167 C 
BRANCH  17  18
HETATM   18  C2  UNK     1      19.346  -5.224  13.053  1.00  0.00    -0.004 A 
HETATM   19  C3  UNK     1      19.687  -4.478  11.965  1.00  0.00     0.122 A 
HETATM   20  N2  UNK     1      18.891  -4.933  10.954  1.00  0.00    -0.281 N 
HETATM   21  N3  UNK     1      18.061  -5.925  11.321  1.00  0.00    -0.185 NA
HETATM   22  C7  UNK     1      18.348  -6.096  12.614  1.00  0.00     0.149 A 
BRANCH  20  23
HETATM   23  C6  UNK     1      18.879  -4.455   9.592  1.00  0.00     0.146 C 
HETATM   24  C13 UNK     1      17.578  -4.786   8.880  1.00  0.00     0.028 C 
ENDBRANCH  20  23
ENDBRANCH  17  18
ENDBRANCH  15  17
ENDBRANCH   4  13
TORSDOF 4
ENDMDL
MODEL 3
REMARK VINA RESULT:      -8.3     13.299     15.112
REMARK  4 active torsions:
REMARK  status: ('A' for Active; 'I' for Inactive)
REMARK    1  A    between atoms: C1_8  and  N1_5 
REMARK       I    between atoms: C4_11  and  N1_5 
REMARK    2  A    between atoms: C6_13  and  N2_6 
REMARK    3  A    between atoms: C1_8  and  C2_9 
REMARK    4  A    between atoms: C4_11  and  C5_12 
ROOT
HETATM    1 Br1  UNK     1       6.848  11.244  12.687  1.00  0.00    -0.051 Br
HETATM    2  O1  UNK     1       6.958   6.469   8.947  1.00  0.00    -0.274 OA
HETATM    3  O3  UNK     1       8.093   5.091   7.521  1.00  0.00    -0.259 OA
HETATM    4  C5  UNK     1       9.331   6.857   8.502  1.00  0.00     0.108 A 
HETATM    5  C9  UNK     1       8.124   8.316  10.014  1.00  0.00     0.000 A 
HETATM    6  C10 UNK     1       9.339   7.916   9.322  1.00  0.00     0.037 A 
HETATM    7  C11 UNK     1       6.960   7.582   9.810  1.00  0.00     0.089 A 
HETATM    8  C12 UNK     1       8.105   6.062   8.270  1.00  0.00     0.304 A 
HETATM    9  C14 UNK     1       8.087   9.413  10.877  1.00  0.00     0.033 A 
HETATM   10  C15 UNK     1       5.763   7.912  10.444  1.00  0.00     0.039 A 
HETATM   11  C16 UNK     1       6.893   9.758  11.520  1.00  0.00     0.011 A 
HETATM   12  C17 UNK     1       5.735   9.009  11.304  1.00  0.00     0.022 A 
ENDROOT
BRANCH   4  13
HETATM   13  C4  UNK     1      10.605   6.533   7.850  1.00  0.00     0.259 C 
HETATM   14  O2  UNK     1      10.938   7.188   6.856  1.00  0.00    -0.267 OA
HETATM   15  N1  UNK     1      11.374   5.504   8.403  1.00  0.00    -0.348 N 
HETATM   16  C8  UNK     1      10.939   4.755   9.580  1.00  0.00     0.153 C 
BRANCH  15  17
HETATM   17  C1  UNK     1      12.660   5.109   7.845  1.00  0.00     0.167 C 
BRANCH  17  18
HETATM   18  C2  UNK     1      13.759   5.613   8.717  1.00  0.00    -0.004 A 
HETATM   19  C3  UNK     1      14.112   6.912   8.925  1.00  0.00     0.122 A 
HETATM   20  N2  UNK     1      15.163   6.864   9.793  1.00  0.00    -0.281 N 
HETATM   21  N3  UNK     1      15.508   5.617  10.158  1.00  0.00    -0.185 NA
HETATM   22  C7  UNK     1      14.639   4.854   9.491  1.00  0.00     0.149 A 
BRANCH  20  23
HETATM   23  C6  UNK     1      15.890   7.993  10.321  1.00  0.00     0.146 C 
HETATM   24  C13 UNK     1      17.392   7.840  10.150  1.00  0.00     0.028 C 
ENDBRANCH  20  23
ENDBRANCH  17  18
ENDBRANCH  15  17
ENDBRANCH   4  13
TORSDOF 4
ENDMDL
MODEL 4
REMARK VINA RESULT:      -8.2     12.626     14.430
REMARK  4 active torsions:
REMARK  status: ('A' for Active; 'I' for Inactive)
REMARK    1  A    between atoms: C1_8  and  N1_5 
REMARK       I    between atoms: C4_11  and  N1_5 
REMARK    2  A    between atoms: C6_13  and  N2_6 
REMARK    3  A    between atoms: C1_8  and  C2_9 
REMARK    4  A    between atoms: C4_11  and  C5_12 
ROOT
HETATM    1 Br1  UNK     1      16.079  14.014   6.613  1.00  0.00    -0.051 Br
HETATM    2  O1  UNK     1      17.348   8.966   9.728  1.00  0.00    -0.274 OA
HETATM    3  O3  UNK     1      16.667   7.028  10.729  1.00  0.00    -0.259 OA
HETATM    4  C5  UNK     1      14.984   8.337   9.696  1.00  0.00     0.108 A 
HETATM    5  C9  UNK     1      15.710  10.392   8.635  1.00  0.00     0.000 A 
HETATM    6  C10 UNK     1      14.672   9.443   9.008  1.00  0.00     0.037 A 
HETATM    7  C11 UNK     1      17.026  10.130   9.004  1.00  0.00     0.089 A 
HETATM    8  C12 UNK     1      16.377   8.039  10.099  1.00  0.00     0.304 A 
HETATM    9  C14 UNK     1      15.430  11.557   7.918  1.00  0.00     0.033 A 
HETATM   10  C15 UNK     1      18.066  10.998   8.677  1.00  0.00     0.039 A 
HETATM   11  C16 UNK     1      16.464  12.438   7.583  1.00  0.00     0.011 A 
HETATM   12  C17 UNK     1      17.778  12.158   7.962  1.00  0.00     0.022 A 
ENDROOT
BRANCH   4  13
HETATM   13  C4  UNK     1      13.869   7.443  10.026  1.00  0.00     0.259 C 
HETATM   14  O2  UNK     1      13.128   7.752  10.966  1.00  0.00    -0.267 OA
HETATM   15  N1  UNK     1      13.705   6.296   9.243  1.00  0.00    -0.348 N 
HETATM   16  C8  UNK     1      14.606   5.971   8.140  1.00  0.00     0.153 C 
BRANCH  15  17
HETATM   17  C1  UNK     1      12.623   5.347   9.473  1.00  0.00     0.167 C 
BRANCH  17  18
HETATM   18  C2  UNK     1      11.503   5.628   8.531  1.00  0.00    -0.004 A 
HETATM   19  C3  UNK     1      10.237   6.014   8.853  1.00  0.00     0.122 A 
HETATM   20  N2  UNK     1       9.588   6.145   7.661  1.00  0.00    -0.281 N 
HETATM   21  N3  UNK     1      10.354   5.869   6.591  1.00  0.00    -0.185 NA
HETATM   22  C7  UNK     1      11.531   5.551   7.137  1.00  0.00     0.149 A 
BRANCH  20  23
HETATM   23  C6  UNK     1       8.212   6.540   7.473  1.00  0.00     0.146 C 
HETATM   24  C13 UNK     1       7.728   7.475   8.568  1.00  0.00     0.028 C 
ENDBRANCH  20  23
ENDBRANCH  17  18
ENDBRANCH  15  17
ENDBRANCH   4  13
TORSDOF 4
ENDMDL
MODEL 5
REMARK VINA RESULT:      -8.1     18.407     20.140
REMARK  4 active torsions:
REMARK  status: ('A' for Active; 'I' for Inactive)
REMARK    1  A    between atoms: C1_8  and  N1_5 
REMARK       I    between atoms: C4_11  and  N1_5 
REMARK    2  A    between atoms: C6_13  and  N2_6 
REMARK    3  A    between atoms: C1_8  and  C2_9 
REMARK    4  A    between atoms: C4_11  and  C5_12 
ROOT
HETATM    1 Br1  UNK     1      20.484  -1.603  29.878  1.00  0.00    -0.051 Br
HETATM    2  O1  UNK     1      18.642  -1.264  35.649  1.00  0.00    -0.274 OA
HETATM    3  O3  UNK     1      18.652  -2.074  37.786  1.00  0.00    -0.259 OA
HETATM    4  C5  UNK     1      19.959  -3.250  36.198  1.00  0.00     0.108 A 
HETATM    5  C9  UNK     1      19.947  -2.389  33.933  1.00  0.00     0.000 A 
HETATM    6  C10 UNK     1      20.384  -3.352  34.933  1.00  0.00     0.037 A 
HETATM    7  C11 UNK     1      19.085  -1.366  34.316  1.00  0.00     0.089 A 
HETATM    8  C12 UNK     1      19.042  -2.171  36.627  1.00  0.00     0.304 A 
HETATM    9  C14 UNK     1      20.364  -2.457  32.602  1.00  0.00     0.033 A 
HETATM   10  C15 UNK     1      18.631  -0.411  33.408  1.00  0.00     0.039 A 
HETATM   11  C16 UNK     1      19.916  -1.506  31.679  1.00  0.00     0.011 A 
HETATM   12  C17 UNK     1      19.052  -0.486  32.082  1.00  0.00     0.022 A 
ENDROOT
BRANCH   4  13
HETATM   13  C4  UNK     1      20.454  -4.269  37.132  1.00  0.00     0.259 C 
HETATM   14  O2  UNK     1      21.510  -4.048  37.736  1.00  0.00    -0.267 OA
HETATM   15  N1  UNK     1      19.689  -5.429  37.290  1.00  0.00    -0.348 N 
HETATM   16  C8  UNK     1      18.446  -5.648  36.554  1.00  0.00     0.153 C 
BRANCH  15  17
HETATM   17  C1  UNK     1      20.079  -6.498  38.200  1.00  0.00     0.167 C 
BRANCH  17  18
HETATM   18  C2  UNK     1      20.293  -7.756  37.432  1.00  0.00    -0.004 A 
HETATM   19  C3  UNK     1      21.219  -7.975  36.457  1.00  0.00     0.122 A 
HETATM   20  N2  UNK     1      21.026  -9.265  36.061  1.00  0.00    -0.281 N 
HETATM   21  N3  UNK     1      20.035  -9.893  36.719  1.00  0.00    -0.185 NA
HETATM   22  C7  UNK     1      19.590  -8.956  37.560  1.00  0.00     0.149 A 
BRANCH  20  23
HETATM   23  C6  UNK     1      21.769  -9.970  35.044  1.00  0.00     0.146 C 
HETATM   24  C13 UNK     1      22.633 -11.076  35.626  1.00  0.00     0.028 C 
ENDBRANCH  20  23
ENDBRANCH  17  18
ENDBRANCH  15  17
ENDBRANCH   4  13
TORSDOF 4
ENDMDL
MODEL 6
REMARK VINA RESULT:      -8.0     12.802     14.289
REMARK  4 active torsions:
REMARK  status: ('A' for Active; 'I' for Inactive)
REMARK    1  A    between atoms: C1_8  and  N1_5 
REMARK       I    between atoms: C4_11  and  N1_5 
REMARK    2  A    between atoms: C6_13  and  N2_6 
REMARK    3  A    between atoms: C1_8  and  C2_9 
REMARK    4  A    between atoms: C4_11  and  C5_12 
ROOT
HETATM    1 Br1  UNK     1      17.999  10.973   9.071  1.00  0.00    -0.051 Br
HETATM    2  O1  UNK     1      14.250   6.407  10.447  1.00  0.00    -0.274 OA
HETATM    3  O3  UNK     1      12.183   5.438  10.348  1.00  0.00    -0.259 OA
HETATM    4  C5  UNK     1      12.428   7.530   9.263  1.00  0.00     0.108 A 
HETATM    5  C9  UNK     1      14.621   8.555   9.371  1.00  0.00     0.000 A 
HETATM    6  C10 UNK     1      13.231   8.553   8.943  1.00  0.00     0.037 A 
HETATM    7  C11 UNK     1      15.099   7.480  10.114  1.00  0.00     0.089 A 
HETATM    8  C12 UNK     1      12.915   6.377  10.053  1.00  0.00     0.304 A 
HETATM    9  C14 UNK     1      15.494   9.600   9.060  1.00  0.00     0.033 A 
HETATM   10  C15 UNK     1      16.421   7.421  10.553  1.00  0.00     0.039 A 
HETATM   11  C16 UNK     1      16.823   9.555   9.494  1.00  0.00     0.011 A 
HETATM   12  C17 UNK     1      17.285   8.468  10.238  1.00  0.00     0.022 A 
ENDROOT
BRANCH   4  13
HETATM   13  C4  UNK     1      11.043   7.619   8.788  1.00  0.00     0.259 C 
HETATM   14  O2  UNK     1      10.259   8.354   9.400  1.00  0.00    -0.267 OA
HETATM   15  N1  UNK     1      10.697   6.873   7.657  1.00  0.00    -0.348 N 
HETATM   16  C8  UNK     1      11.658   6.018   6.964  1.00  0.00     0.153 C 
BRANCH  15  17
HETATM   17  C1  UNK     1       9.355   6.899   7.091  1.00  0.00     0.167 C 
BRANCH  17  18
HETATM   18  C2  UNK     1       8.375   6.417   8.104  1.00  0.00    -0.004 A 
HETATM   19  C3  UNK     1       8.302   5.169   8.647  1.00  0.00     0.122 A 
HETATM   20  N2  UNK     1       7.252   5.216   9.516  1.00  0.00    -0.281 N 
HETATM   21  N3  UNK     1       6.645   6.415   9.569  1.00  0.00    -0.185 NA
HETATM   22  C7  UNK     1       7.342   7.147   8.697  1.00  0.00     0.149 A 
BRANCH  20  23
HETATM   23  C6  UNK     1       6.773   4.133  10.340  1.00  0.00     0.146 C 
HETATM   24  C13 UNK     1       5.433   4.449  10.982  1.00  0.00     0.028 C 
ENDBRANCH  20  23
ENDBRANCH  17  18
ENDBRANCH  15  17
ENDBRANCH   4  13
TORSDOF 4
ENDMDL
MODEL 7
REMARK VINA RESULT:      -7.9     23.600     25.156
REMARK  4 active torsions:
REMARK  status: ('A' for Active; 'I' for Inactive)
REMARK    1  A    between atoms: C1_8  and  N1_5 
REMARK       I    between atoms: C4_11  and  N1_5 
REMARK    2  A    between atoms: C6_13  and  N2_6 
REMARK    3  A    between atoms: C1_8  and  C2_9 
REMARK    4  A    between atoms: C4_11  and  C5_12 
ROOT
HETATM    1 Br1  UNK     1      19.559  -8.825  38.702  1.00  0.00    -0.051 Br
HETATM    2  O1  UNK     1      24.645  -5.519  38.819  1.00  0.00    -0.274 OA
HETATM    3  O3  UNK     1      26.924  -5.387  38.914  1.00  0.00    -0.259 OA
HETATM    4  C5  UNK     1      25.984  -7.562  38.943  1.00  0.00     0.108 A 
HETATM    5  C9  UNK     1      23.567  -7.698  38.841  1.00  0.00     0.000 A 
HETATM    6  C10 UNK     1      24.880  -8.319  38.918  1.00  0.00     0.037 A 
HETATM    7  C11 UNK     1      23.480  -6.310  38.793  1.00  0.00     0.089 A 
HETATM    8  C12 UNK     1      25.915  -6.084  38.893  1.00  0.00     0.304 A 
HETATM    9  C14 UNK     1      22.389  -8.449  38.814  1.00  0.00     0.033 A 
HETATM   10  C15 UNK     1      22.253  -5.654  38.717  1.00  0.00     0.039 A 
HETATM   11  C16 UNK     1      21.150  -7.804  38.739  1.00  0.00     0.011 A 
HETATM   12  C17 UNK     1      21.083  -6.410  38.691  1.00  0.00     0.022 A 
ENDROOT
BRANCH   4  13
HETATM   13  C4  UNK     1      27.261  -8.280  39.022  1.00  0.00     0.259 C 
HETATM   14  O2  UNK     1      27.665  -8.637  40.135  1.00  0.00    -0.267 OA
HETATM   15  N1  UNK     1      27.941  -8.529  37.825  1.00  0.00    -0.348 N 
HETATM   16  C8  UNK     1      27.425  -8.087  36.531  1.00  0.00     0.153 C 
BRANCH  15  17
HETATM   17  C1  UNK     1      29.208  -9.246  37.786  1.00  0.00     0.167 C 
BRANCH  17  18
HETATM   18  C2  UNK     1      30.330  -8.290  38.000  1.00  0.00    -0.004 A 
HETATM   19  C3  UNK     1      30.249  -6.932  38.076  1.00  0.00     0.122 A 
HETATM   20  N2  UNK     1      31.529  -6.506  38.277  1.00  0.00    -0.281 N 
HETATM   21  N3  UNK     1      32.430  -7.502  38.336  1.00  0.00    -0.185 NA
HETATM   22  C7  UNK     1      31.683  -8.596  38.164  1.00  0.00     0.149 A 
BRANCH  20  23
HETATM   23  C6  UNK     1      31.964  -5.137  38.425  1.00  0.00     0.146 C 
HETATM   24  C13 UNK     1      32.027  -4.408  37.094  1.00  0.00     0.028 C 
ENDBRANCH  20  23
ENDBRANCH  17  18
ENDBRANCH  15  17
ENDBRANCH   4  13
TORSDOF 4
ENDMDL
MODEL 8
REMARK VINA RESULT:      -7.8     16.946     18.832
REMARK  4 active torsions:
REMARK  status: ('A' for Active; 'I' for Inactive)
REMARK    1  A    between atoms: C1_8  and  N1_5 
REMARK       I    between atoms: C4_11  and  N1_5 
REMARK    2  A    between atoms: C6_13  and  N2_6 
REMARK    3  A    between atoms: C1_8  and  C2_9 
REMARK    4  A    between atoms: C4_11  and  C5_12 
ROOT
HETATM    1 Br1  UNK     1      17.912   7.854  32.695  1.00  0.00    -0.051 Br
HETATM    2  O1  UNK     1      18.969   2.087  31.137  1.00  0.00    -0.274 OA
HETATM    3  O3  UNK     1      18.921  -0.143  31.632  1.00  0.00    -0.259 OA
HETATM    4  C5  UNK     1      18.120   1.333  33.303  1.00  0.00     0.108 A 
HETATM    5  C9  UNK     1      18.173   3.698  32.775  1.00  0.00     0.000 A 
HETATM    6  C10 UNK     1      17.875   2.595  33.676  1.00  0.00     0.037 A 
HETATM    7  C11 UNK     1      18.713   3.417  31.524  1.00  0.00     0.089 A 
HETATM    8  C12 UNK     1      18.695   1.012  31.978  1.00  0.00     0.304 A 
HETATM    9  C14 UNK     1      17.934   5.029  33.122  1.00  0.00     0.033 A 
HETATM   10  C15 UNK     1      19.020   4.427  30.613  1.00  0.00     0.039 A 
HETATM   11  C16 UNK     1      18.237   6.053  32.219  1.00  0.00     0.011 A 
HETATM   12  C17 UNK     1      18.778   5.752  30.968  1.00  0.00     0.022 A 
ENDROOT
BRANCH   4  13
HETATM   13  C4  UNK     1      17.787   0.292  34.282  1.00  0.00     0.259 C 
HETATM   14  O2  UNK     1      17.015  -0.611  33.938  1.00  0.00    -0.267 OA
HETATM   15  N1  UNK     1      18.378   0.379  35.546  1.00  0.00    -0.348 N 
HETATM   16  C8  UNK     1      19.286   1.464  35.909  1.00  0.00     0.153 C 
BRANCH  15  17
HETATM   17  C1  UNK     1      18.129  -0.609  36.588  1.00  0.00     0.167 C 
BRANCH  17  18
HETATM   18  C2  UNK     1      19.125  -1.712  36.481  1.00  0.00    -0.004 A 
HETATM   19  C3  UNK     1      19.398  -2.665  37.415  1.00  0.00     0.122 A 
HETATM   20  N2  UNK     1      20.373  -3.442  36.860  1.00  0.00    -0.281 N 
HETATM   21  N3  UNK     1      20.743  -3.051  35.628  1.00  0.00    -0.185 NA
HETATM   22  C7  UNK     1      19.970  -1.985  35.403  1.00  0.00     0.149 A 
BRANCH  20  23
HETATM   23  C6  UNK     1      20.999  -4.593  37.466  1.00  0.00     0.146 C 
HETATM   24  C13 UNK     1      20.357  -5.896  37.021  1.00  0.00     0.028 C 
ENDBRANCH  20  23
ENDBRANCH  17  18
ENDBRANCH  15  17
ENDBRANCH   4  13
TORSDOF 4
ENDMDL
MODEL 9
REMARK VINA RESULT:      -7.8     12.942     14.398
REMARK  4 active torsions:
REMARK  status: ('A' for Active; 'I' for Inactive)
REMARK    1  A    between atoms: C1_8  and  N1_5 
REMARK       I    between atoms: C4_11  and  N1_5 
REMARK    2  A    between atoms: C6_13  and  N2_6 
REMARK    3  A    between atoms: C1_8  and  C2_9 
REMARK    4  A    between atoms: C4_11  and  C5_12 
ROOT
HETATM    1 Br1  UNK     1      17.508  11.195   8.772  1.00  0.00    -0.051 Br
HETATM    2  O1  UNK     1      14.094   6.522  10.592  1.00  0.00    -0.274 OA
HETATM    3  O3  UNK     1      12.235   5.214  10.360  1.00  0.00    -0.259 OA
HETATM    4  C5  UNK     1      12.485   6.988   8.810  1.00  0.00     0.108 A 
HETATM    5  C9  UNK     1      14.457   8.374   9.059  1.00  0.00     0.000 A 
HETATM    6  C10 UNK     1      13.216   8.026   8.384  1.00  0.00     0.037 A 
HETATM    7  C11 UNK     1      14.867   7.612  10.148  1.00  0.00     0.089 A 
HETATM    8  C12 UNK     1      12.902   6.165   9.967  1.00  0.00     0.304 A 
HETATM    9  C14 UNK     1      15.251   9.447   8.649  1.00  0.00     0.033 A 
HETATM   10  C15 UNK     1      16.047   7.892  10.837  1.00  0.00     0.039 A 
HETATM   11  C16 UNK     1      16.437   9.741   9.331  1.00  0.00     0.011 A 
HETATM   12  C17 UNK     1      16.833   8.965  10.422  1.00  0.00     0.022 A 
ENDROOT
BRANCH   4  13
HETATM   13  C4  UNK     1      11.249   6.717   8.066  1.00  0.00     0.259 C 
HETATM   14  O2  UNK     1      11.273   5.848   7.187  1.00  0.00    -0.267 OA
HETATM   15  N1  UNK     1      10.112   7.455   8.408  1.00  0.00    -0.348 N 
HETATM   16  C8  UNK     1      10.130   8.474   9.455  1.00  0.00     0.153 C 
BRANCH  15  17
HETATM   17  C1  UNK     1       8.830   7.258   7.744  1.00  0.00     0.167 C 
BRANCH  17  18
HETATM   18  C2  UNK     1       7.846   6.699   8.713  1.00  0.00    -0.004 A 
HETATM   19  C3  UNK     1       7.781   5.417   9.170  1.00  0.00     0.122 A 
HETATM   20  N2  UNK     1       6.722   5.395  10.030  1.00  0.00    -0.281 N 
HETATM   21  N3  UNK     1       6.103   6.581  10.158  1.00  0.00    -0.185 NA
HETATM   22  C7  UNK     1       6.800   7.377   9.344  1.00  0.00     0.149 A 
BRANCH  20  23
HETATM   23  C6  UNK     1       6.247   4.254  10.775  1.00  0.00     0.146 C 
HETATM   24  C13 UNK     1       5.966   4.594  12.229  1.00  0.00     0.028 C 
ENDBRANCH  20  23
ENDBRANCH  17  18
ENDBRANCH  15  17
ENDBRANCH   4  13
TORSDOF 4
ENDMDL
MODEL 10
REMARK VINA RESULT:      -7.7     17.521     20.396
REMARK  4 active torsions:
REMARK  status: ('A' for Active; 'I' for Inactive)
REMARK    1  A    between atoms: C1_8  and  N1_5 
REMARK       I    between atoms: C4_11  and  N1_5 
REMARK    2  A    between atoms: C6_13  and  N2_6 
REMARK    3  A    between atoms: C1_8  and  C2_9 
REMARK    4  A    between atoms: C4_11  and  C5_12 
ROOT
HETATM    1 Br1  UNK     1      17.871  -0.689  37.632  1.00  0.00    -0.051 Br
HETATM    2  O1  UNK     1      18.577   1.443  31.997  1.00  0.00    -0.274 OA
HETATM    3  O3  UNK     1      18.574   3.187  30.520  1.00  0.00    -0.259 OA
HETATM    4  C5  UNK     1      18.073   3.706  32.777  1.00  0.00     0.108 A 
HETATM    5  C9  UNK     1      18.077   1.855  34.340  1.00  0.00     0.000 A 
HETATM    6  C10 UNK     1      17.911   3.266  34.031  1.00  0.00     0.037 A 
HETATM    7  C11 UNK     1      18.407   0.975  33.314  1.00  0.00     0.089 A 
HETATM    8  C12 UNK     1      18.424   2.788  31.670  1.00  0.00     0.304 A 
HETATM    9  C14 UNK     1      17.918   1.352  35.634  1.00  0.00     0.033 A 
HETATM   10  C15 UNK     1      18.582  -0.389  33.544  1.00  0.00     0.039 A 
HETATM   11  C16 UNK     1      18.089  -0.014  35.880  1.00  0.00     0.011 A 
HETATM   12  C17 UNK     1      18.421  -0.882  34.837  1.00  0.00     0.022 A 
ENDROOT
BRANCH   4  13
HETATM   13  C4  UNK     1      17.883   5.146  32.565  1.00  0.00     0.259 C 
HETATM   14  O2  UNK     1      16.851   5.524  31.999  1.00  0.00    -0.267 OA
HETATM   15  N1  UNK     1      18.882   6.006  33.030  1.00  0.00    -0.348 N 
HETATM   16  C8  UNK     1      20.087   5.514  33.694  1.00  0.00     0.153 C 
BRANCH  15  17
HETATM   17  C1  UNK     1      18.789   7.453  32.886  1.00  0.00     0.167 C 
BRANCH  17  18
HETATM   18  C2  UNK     1      17.647   7.964  33.695  1.00  0.00    -0.004 A 
HETATM   19  C3  UNK     1      16.564   8.655  33.241  1.00  0.00     0.122 A 
HETATM   20  N2  UNK     1      15.805   8.898  34.348  1.00  0.00    -0.281 N 
HETATM   21  N3  UNK     1      16.327   8.407  35.484  1.00  0.00    -0.185 NA
HETATM   22  C7  UNK     1      17.461   7.834  35.073  1.00  0.00     0.149 A 
BRANCH  20  23
HETATM   23  C6  UNK     1      14.546   9.604  34.385  1.00  0.00     0.146 C 
HETATM   24  C13 UNK     1      14.481  10.601  35.529  1.00  0.00     0.028 C 
ENDBRANCH  20  23
ENDBRANCH  17  18
ENDBRANCH  15  17
ENDBRANCH   4  13
TORSDOF 4
ENDMDL
