MODEL 1
REMARK VINA RESULT:      -9.2      0.000      0.000
REMARK  3 active torsions:
REMARK  status: ('A' for Active; 'I' for Inactive)
REMARK    1  A    between atoms: C3_11  and  N1_7 
REMARK       I    between atoms: C14_22  and  N2_8 
REMARK    2  A    between atoms: C16_24  and  N2_8 
REMARK    3  A    between atoms: C12_20  and  C14_22 
ROOT
HETATM    1  F1  UNK     1      20.578  -3.397  33.816  1.00  0.00    -0.201 F 
HETATM    2  F2  UNK     1      18.248  -2.046  37.725  1.00  0.00    -0.204 F 
HETATM    3  O2  UNK     1      19.783  -1.177  32.518  1.00  0.00    -0.310 OA
HETATM    4  O3  UNK     1      17.439   1.615  34.320  1.00  0.00    -0.286 OA
HETATM    5  C3  UNK     1      19.422  -2.748  35.784  1.00  0.00     0.111 A 
HETATM    6  C6  UNK     1      19.804  -2.513  34.463  1.00  0.00     0.180 A 
HETATM    7  C7  UNK     1      19.378  -1.353  33.814  1.00  0.00     0.131 A 
HETATM    8  C8  UNK     1      18.617  -1.828  36.455  1.00  0.00     0.147 A 
HETATM    9  C9  UNK     1      18.576  -0.436  34.484  1.00  0.00     0.055 A 
HETATM   10  C10 UNK     1      18.192  -0.667  35.807  1.00  0.00     0.063 A 
HETATM   11  C11 UNK     1      18.144   0.776  33.774  1.00  0.00     0.203 A 
HETATM   12  C12 UNK     1      18.608   0.928  32.371  1.00  0.00     0.112 A 
HETATM   13  C13 UNK     1      19.381  -0.037  31.833  1.00  0.00     0.069 A 
HETATM   14  C15 UNK     1      19.905  -0.016  30.426  1.00  0.00     0.078 C 
ENDROOT
BRANCH  12  15
HETATM   15  C14 UNK     1      18.236   2.115  31.586  1.00  0.00     0.262 C 
HETATM   16  O4  UNK     1      17.750   1.974  30.466  1.00  0.00    -0.267 OA
HETATM   17  N2  UNK     1      18.504   3.294  32.265  1.00  0.00    -0.323 N 
HETATM   18  H13 UNK     1      18.913   3.220  33.195  1.00  0.00     0.169 HD
BRANCH  17  19
HETATM   19  C16 UNK     1      18.276   4.618  31.816  1.00  0.00     0.035 A 
HETATM   20  C17 UNK     1      18.912   5.062  30.670  1.00  0.00     0.029 A 
HETATM   21  C19 UNK     1      18.688   6.366  30.229  1.00  0.00     0.002 A 
HETATM   22  C21 UNK     1      17.830   7.206  30.939  1.00  0.00     0.000 A 
HETATM   23  C20 UNK     1      17.197   6.741  32.091  1.00  0.00     0.002 A 
HETATM   24  C18 UNK     1      17.421   5.438  32.534  1.00  0.00     0.029 A 
ENDBRANCH  17  19
ENDBRANCH  12  15
BRANCH   5  25
HETATM   25  N1  UNK     1      19.848  -3.910  36.438  1.00  0.00    -0.372 N 
HETATM   26  C1  UNK     1      20.755  -3.767  37.585  1.00  0.00     0.149 C 
HETATM   27  C4  UNK     1      21.493  -5.080  37.824  1.00  0.00     0.187 C 
HETATM   28  O1  UNK     1      20.564  -6.153  37.971  1.00  0.00    -0.388 OA
HETATM   29  C5  UNK     1      19.810  -6.333  36.773  1.00  0.00     0.187 C 
HETATM   30  C2  UNK     1      18.979  -5.091  36.473  1.00  0.00     0.149 C 
ENDBRANCH   5  25
TORSDOF 3
ENDMDL
MODEL 2
REMARK VINA RESULT:      -9.1     18.088     21.457
REMARK  3 active torsions:
REMARK  status: ('A' for Active; 'I' for Inactive)
REMARK    1  A    between atoms: C3_11  and  N1_7 
REMARK       I    between atoms: C14_22  and  N2_8 
REMARK    2  A    between atoms: C16_24  and  N2_8 
REMARK    3  A    between atoms: C12_20  and  C14_22 
ROOT
HETATM    1  F1  UNK     1      19.201  -5.512  11.574  1.00  0.00    -0.201 F 
HETATM    2  F2  UNK     1      21.453  -1.739   9.777  1.00  0.00    -0.204 F 
HETATM    3  O2  UNK     1      18.573  -4.136  13.801  1.00  0.00    -0.310 OA
HETATM    4  O3  UNK     1      19.705  -0.261  14.296  1.00  0.00    -0.286 OA
HETATM    5  C3  UNK     1      20.335  -3.643  10.651  1.00  0.00     0.111 A 
HETATM    6  C6  UNK     1      19.604  -4.237  11.680  1.00  0.00     0.180 A 
HETATM    7  C7  UNK     1      19.292  -3.500  12.824  1.00  0.00     0.131 A 
HETATM    8  C8  UNK     1      20.752  -2.317  10.763  1.00  0.00     0.147 A 
HETATM    9  C9  UNK     1      19.708  -2.179  12.935  1.00  0.00     0.055 A 
HETATM   10  C10 UNK     1      20.440  -1.580  11.906  1.00  0.00     0.063 A 
HETATM   11  C11 UNK     1      19.363  -1.429  14.151  1.00  0.00     0.203 A 
HETATM   12  C12 UNK     1      18.582  -2.156  15.184  1.00  0.00     0.112 A 
HETATM   13  C13 UNK     1      18.242  -3.441  14.957  1.00  0.00     0.069 A 
HETATM   14  C15 UNK     1      17.469  -4.295  15.921  1.00  0.00     0.078 C 
ENDROOT
BRANCH  12  15
HETATM   15  C14 UNK     1      18.181  -1.482  16.428  1.00  0.00     0.262 C 
HETATM   16  O4  UNK     1      17.059  -1.676  16.889  1.00  0.00    -0.267 OA
HETATM   17  N2  UNK     1      19.190  -0.675  16.932  1.00  0.00    -0.323 N 
HETATM   18  H13 UNK     1      20.065  -0.634  16.412  1.00  0.00     0.169 HD
BRANCH  17  19
HETATM   19  C16 UNK     1      19.154   0.118  18.105  1.00  0.00     0.035 A 
HETATM   20  C17 UNK     1      19.313  -0.491  19.338  1.00  0.00     0.029 A 
HETATM   21  C19 UNK     1      19.278   0.290  20.493  1.00  0.00     0.002 A 
HETATM   22  C21 UNK     1      19.085   1.669  20.397  1.00  0.00     0.000 A 
HETATM   23  C20 UNK     1      18.928   2.265  19.147  1.00  0.00     0.002 A 
HETATM   24  C18 UNK     1      18.962   1.485  17.992  1.00  0.00     0.029 A 
ENDBRANCH  17  19
ENDBRANCH  12  15
BRANCH   5  25
HETATM   25  N1  UNK     1      20.648  -4.379   9.503  1.00  0.00    -0.372 N 
HETATM   26  C1  UNK     1      21.650  -5.447   9.616  1.00  0.00     0.149 C 
HETATM   27  C4  UNK     1      22.219  -5.767   8.237  1.00  0.00     0.187 C 
HETATM   28  O1  UNK     1      21.168  -6.075   7.323  1.00  0.00    -0.388 OA
HETATM   29  C5  UNK     1      20.308  -4.950   7.148  1.00  0.00     0.187 C 
HETATM   30  C2  UNK     1      19.632  -4.583   8.464  1.00  0.00     0.149 C 
ENDBRANCH   5  25
TORSDOF 3
ENDMDL
MODEL 3
REMARK VINA RESULT:      -9.0      2.388      9.489
REMARK  3 active torsions:
REMARK  status: ('A' for Active; 'I' for Inactive)
REMARK    1  A    between atoms: C3_11  and  N1_7 
REMARK       I    between atoms: C14_22  and  N2_8 
REMARK    2  A    between atoms: C16_24  and  N2_8 
REMARK    3  A    between atoms: C12_20  and  C14_22 
ROOT
HETATM    1  F1  UNK     1      17.847   1.395  33.137  1.00  0.00    -0.201 F 
HETATM    2  F2  UNK     1      20.381  -0.972  29.894  1.00  0.00    -0.204 F 
HETATM    3  O2  UNK     1      18.433  -0.449  35.009  1.00  0.00    -0.310 OA
HETATM    4  O3  UNK     1      20.763  -3.673  34.161  1.00  0.00    -0.286 OA
HETATM    5  C3  UNK     1      19.105   0.233  31.494  1.00  0.00     0.111 A 
HETATM    6  C6  UNK     1      18.620   0.352  32.797  1.00  0.00     0.180 A 
HETATM    7  C7  UNK     1      18.940  -0.619  33.748  1.00  0.00     0.131 A 
HETATM    8  C8  UNK     1      19.908  -0.852  31.143  1.00  0.00     0.147 A 
HETATM    9  C9  UNK     1      19.740  -1.699  33.396  1.00  0.00     0.055 A 
HETATM   10  C10 UNK     1      20.229  -1.822  32.094  1.00  0.00     0.063 A 
HETATM   11  C11 UNK     1      20.060  -2.704  34.420  1.00  0.00     0.203 A 
HETATM   12  C12 UNK     1      19.492  -2.480  35.774  1.00  0.00     0.112 A 
HETATM   13  C13 UNK     1      18.725  -1.392  35.986  1.00  0.00     0.069 A 
HETATM   14  C15 UNK     1      18.078  -1.054  37.299  1.00  0.00     0.078 C 
ENDROOT
BRANCH  12  15
HETATM   15  C14 UNK     1      19.769  -3.427  36.865  1.00  0.00     0.262 C 
HETATM   16  O4  UNK     1      20.331  -3.032  37.884  1.00  0.00    -0.267 OA
HETATM   17  N2  UNK     1      19.328  -4.708  36.568  1.00  0.00    -0.323 N 
HETATM   18  H13 UNK     1      18.879  -4.854  35.666  1.00  0.00     0.169 HD
BRANCH  17  19
HETATM   19  C16 UNK     1      19.428  -5.864  37.380  1.00  0.00     0.035 A 
HETATM   20  C17 UNK     1      20.366  -5.897  38.398  1.00  0.00     0.029 A 
HETATM   21  C19 UNK     1      20.465  -7.035  39.197  1.00  0.00     0.002 A 
HETATM   22  C21 UNK     1      19.623  -8.124  38.967  1.00  0.00     0.000 A 
HETATM   23  C20 UNK     1      18.683  -8.074  37.938  1.00  0.00     0.002 A 
HETATM   24  C18 UNK     1      18.585  -6.936  37.138  1.00  0.00     0.029 A 
ENDBRANCH  17  19
ENDBRANCH  12  15
BRANCH   5  25
HETATM   25  N1  UNK     1      18.787   1.205  30.539  1.00  0.00    -0.372 N 
HETATM   26  C1  UNK     1      19.338   2.555  30.714  1.00  0.00     0.149 C 
HETATM   27  C4  UNK     1      18.506   3.557  29.920  1.00  0.00     0.187 C 
HETATM   28  O1  UNK     1      18.416   3.158  28.553  1.00  0.00    -0.388 OA
HETATM   29  C5  UNK     1      17.746   1.904  28.438  1.00  0.00     0.187 C 
HETATM   30  C2  UNK     1      18.533   0.809  29.149  1.00  0.00     0.149 C 
ENDBRANCH   5  25
TORSDOF 3
ENDMDL
MODEL 4
REMARK VINA RESULT:      -9.0      4.599      9.931
REMARK  3 active torsions:
REMARK  status: ('A' for Active; 'I' for Inactive)
REMARK    1  A    between atoms: C3_11  and  N1_7 
REMARK       I    between atoms: C14_22  and  N2_8 
REMARK    2  A    between atoms: C16_24  and  N2_8 
REMARK    3  A    between atoms: C12_20  and  C14_22 
ROOT
HETATM    1  F1  UNK     1      18.165   7.216  35.362  1.00  0.00    -0.201 F 
HETATM    2  F2  UNK     1      16.720   8.451  31.012  1.00  0.00    -0.204 F 
HETATM    3  O2  UNK     1      18.411   4.646  34.602  1.00  0.00    -0.310 OA
HETATM    4  O3  UNK     1      17.560   3.460  30.806  1.00  0.00    -0.286 OA
HETATM    5  C3  UNK     1      17.439   7.863  33.198  1.00  0.00     0.111 A 
HETATM    6  C6  UNK     1      17.868   6.886  34.096  1.00  0.00     0.180 A 
HETATM    7  C7  UNK     1      17.987   5.560  33.675  1.00  0.00     0.131 A 
HETATM    8  C8  UNK     1      17.131   7.517  31.882  1.00  0.00     0.147 A 
HETATM    9  C9  UNK     1      17.680   5.216  32.364  1.00  0.00     0.055 A 
HETATM   10  C10 UNK     1      17.251   6.192  31.460  1.00  0.00     0.063 A 
HETATM   11  C11 UNK     1      17.816   3.813  31.951  1.00  0.00     0.203 A 
HETATM   12  C12 UNK     1      18.281   2.855  32.987  1.00  0.00     0.112 A 
HETATM   13  C13 UNK     1      18.542   3.314  34.227  1.00  0.00     0.069 A 
HETATM   14  C15 UNK     1      19.003   2.454  35.369  1.00  0.00     0.078 C 
ENDROOT
BRANCH  12  15
HETATM   15  C14 UNK     1      18.458   1.432  32.661  1.00  0.00     0.262 C 
HETATM   16  O4  UNK     1      17.825   0.583  33.284  1.00  0.00    -0.267 OA
HETATM   17  N2  UNK     1      19.371   1.242  31.635  1.00  0.00    -0.323 N 
HETATM   18  H13 UNK     1      19.805   2.070  31.231  1.00  0.00     0.169 HD
BRANCH  17  19
HETATM   19  C16 UNK     1      19.785   0.012  31.067  1.00  0.00     0.035 A 
HETATM   20  C17 UNK     1      20.185  -0.020  29.742  1.00  0.00     0.029 A 
HETATM   21  C19 UNK     1      20.593  -1.231  29.183  1.00  0.00     0.002 A 
HETATM   22  C21 UNK     1      20.596  -2.391  29.957  1.00  0.00     0.000 A 
HETATM   23  C20 UNK     1      20.191  -2.340  31.291  1.00  0.00     0.002 A 
HETATM   24  C18 UNK     1      19.783  -1.130  31.850  1.00  0.00     0.029 A 
ENDBRANCH  17  19
ENDBRANCH  12  15
BRANCH   5  25
HETATM   25  N1  UNK     1      17.319   9.193  33.616  1.00  0.00    -0.372 N 
HETATM   26  C1  UNK     1      16.084   9.595  34.301  1.00  0.00     0.149 C 
HETATM   27  C4  UNK     1      15.918  11.109  34.214  1.00  0.00     0.187 C 
HETATM   28  O1  UNK     1      17.080  11.768  34.715  1.00  0.00    -0.388 OA
HETATM   29  C5  UNK     1      18.221  11.446  33.922  1.00  0.00     0.187 C 
HETATM   30  C2  UNK     1      18.518   9.952  33.990  1.00  0.00     0.149 C 
ENDBRANCH   5  25
TORSDOF 3
ENDMDL
MODEL 5
REMARK VINA RESULT:      -8.8     11.769     14.448
REMARK  3 active torsions:
REMARK  status: ('A' for Active; 'I' for Inactive)
REMARK    1  A    between atoms: C3_11  and  N1_7 
REMARK       I    between atoms: C14_22  and  N2_8 
REMARK    2  A    between atoms: C16_24  and  N2_8 
REMARK    3  A    between atoms: C12_20  and  C14_22 
ROOT
HETATM    1  F1  UNK     1      31.402  -7.793  35.249  1.00  0.00    -0.201 F 
HETATM    2  F2  UNK     1      32.322  -4.468  38.510  1.00  0.00    -0.204 F 
HETATM    3  O2  UNK     1      29.078  -8.405  36.460  1.00  0.00    -0.310 OA
HETATM    4  O3  UNK     1      27.858  -6.471  39.823  1.00  0.00    -0.286 OA
HETATM    5  C3  UNK     1      31.889  -6.125  36.865  1.00  0.00     0.111 A 
HETATM    6  C6  UNK     1      31.055  -7.121  36.357  1.00  0.00     0.180 A 
HETATM    7  C7  UNK     1      29.854  -7.418  37.005  1.00  0.00     0.131 A 
HETATM    8  C8  UNK     1      31.526  -5.428  38.017  1.00  0.00     0.147 A 
HETATM    9  C9  UNK     1      29.493  -6.722  38.152  1.00  0.00     0.055 A 
HETATM   10  C10 UNK     1      30.325  -5.723  38.664  1.00  0.00     0.063 A 
HETATM   11  C11 UNK     1      28.223  -7.056  38.811  1.00  0.00     0.203 A 
HETATM   12  C12 UNK     1      27.411  -8.132  38.186  1.00  0.00     0.112 A 
HETATM   13  C13 UNK     1      27.875  -8.734  37.073  1.00  0.00     0.069 A 
HETATM   14  C15 UNK     1      27.164  -9.843  36.350  1.00  0.00     0.078 C 
ENDROOT
BRANCH  12  15
HETATM   15  C14 UNK     1      26.119  -8.526  38.769  1.00  0.00     0.262 C 
HETATM   16  O4  UNK     1      26.095  -9.301  39.722  1.00  0.00    -0.267 OA
HETATM   17  N2  UNK     1      25.050  -7.929  38.118  1.00  0.00    -0.323 N 
HETATM   18  H13 UNK     1      25.260  -7.308  37.338  1.00  0.00     0.169 HD
BRANCH  17  19
HETATM   19  C16 UNK     1      23.672  -8.081  38.407  1.00  0.00     0.035 A 
HETATM   20  C17 UNK     1      23.147  -7.478  39.538  1.00  0.00     0.029 A 
HETATM   21  C19 UNK     1      21.790  -7.627  39.822  1.00  0.00     0.002 A 
HETATM   22  C21 UNK     1      20.978  -8.377  38.972  1.00  0.00     0.000 A 
HETATM   23  C20 UNK     1      21.522  -8.977  37.836  1.00  0.00     0.002 A 
HETATM   24  C18 UNK     1      22.879  -8.828  37.552  1.00  0.00     0.029 A 
ENDBRANCH  17  19
ENDBRANCH  12  15
BRANCH   5  25
HETATM   25  N1  UNK     1      33.093  -5.825  36.217  1.00  0.00    -0.372 N 
HETATM   26  C1  UNK     1      34.224  -6.745  36.394  1.00  0.00     0.149 C 
HETATM   27  C4  UNK     1      35.529  -6.025  36.070  1.00  0.00     0.187 C 
HETATM   28  O1  UNK     1      35.470  -5.449  34.766  1.00  0.00    -0.388 OA
HETATM   29  C5  UNK     1      34.442  -4.461  34.698  1.00  0.00     0.187 C 
HETATM   30  C2  UNK     1      33.077  -5.092  34.946  1.00  0.00     0.149 C 
ENDBRANCH   5  25
TORSDOF 3
ENDMDL
MODEL 6
REMARK VINA RESULT:      -8.7     11.689     14.434
REMARK  3 active torsions:
REMARK  status: ('A' for Active; 'I' for Inactive)
REMARK    1  A    between atoms: C3_11  and  N1_7 
REMARK       I    between atoms: C14_22  and  N2_8 
REMARK    2  A    between atoms: C16_24  and  N2_8 
REMARK    3  A    between atoms: C12_20  and  C14_22 
ROOT
HETATM    1  F1  UNK     1      31.348  -7.972  35.236  1.00  0.00    -0.201 F 
HETATM    2  F2  UNK     1      32.421  -4.773  38.575  1.00  0.00    -0.204 F 
HETATM    3  O2  UNK     1      28.999  -8.508  36.437  1.00  0.00    -0.310 OA
HETATM    4  O3  UNK     1      27.873  -6.604  39.850  1.00  0.00    -0.286 OA
HETATM    5  C3  UNK     1      31.912  -6.368  36.891  1.00  0.00     0.111 A 
HETATM    6  C6  UNK     1      31.032  -7.312  36.361  1.00  0.00     0.180 A 
HETATM    7  C7  UNK     1      29.821  -7.570  37.004  1.00  0.00     0.131 A 
HETATM    8  C8  UNK     1      31.582  -5.684  38.061  1.00  0.00     0.147 A 
HETATM    9  C9  UNK     1      29.492  -6.887  38.169  1.00  0.00     0.055 A 
HETATM   10  C10 UNK     1      30.370  -5.941  38.703  1.00  0.00     0.063 A 
HETATM   11  C11 UNK     1      28.209  -7.180  38.822  1.00  0.00     0.203 A 
HETATM   12  C12 UNK     1      27.349  -8.202  38.173  1.00  0.00     0.112 A 
HETATM   13  C13 UNK     1      27.784  -8.798  37.045  1.00  0.00     0.069 A 
HETATM   14  C15 UNK     1      27.023  -9.855  36.297  1.00  0.00     0.078 C 
ENDROOT
BRANCH  12  15
HETATM   15  C14 UNK     1      26.041  -8.552  38.749  1.00  0.00     0.262 C 
HETATM   16  O4  UNK     1      25.984  -9.332  39.697  1.00  0.00    -0.267 OA
HETATM   17  N2  UNK     1      24.997  -7.912  38.099  1.00  0.00    -0.323 N 
HETATM   18  H13 UNK     1      25.233  -7.293  37.324  1.00  0.00     0.169 HD
BRANCH  17  19
HETATM   19  C16 UNK     1      23.613  -8.013  38.383  1.00  0.00     0.035 A 
HETATM   20  C17 UNK     1      22.793  -8.706  37.509  1.00  0.00     0.029 A 
HETATM   21  C19 UNK     1      21.430  -8.805  37.789  1.00  0.00     0.002 A 
HETATM   22  C21 UNK     1      20.909  -8.212  38.939  1.00  0.00     0.000 A 
HETATM   23  C20 UNK     1      21.750  -7.519  39.809  1.00  0.00     0.002 A 
HETATM   24  C18 UNK     1      23.112  -7.418  39.529  1.00  0.00     0.029 A 
ENDBRANCH  17  19
ENDBRANCH  12  15
BRANCH   5  25
HETATM   25  N1  UNK     1      33.127  -6.107  36.248  1.00  0.00    -0.372 N 
HETATM   26  C1  UNK     1      33.302  -4.799  35.604  1.00  0.00     0.149 C 
HETATM   27  C4  UNK     1      34.412  -4.884  34.561  1.00  0.00     0.187 C 
HETATM   28  O1  UNK     1      35.611  -5.388  35.149  1.00  0.00    -0.388 OA
HETATM   29  C5  UNK     1      35.415  -6.716  35.631  1.00  0.00     0.187 C 
HETATM   30  C2  UNK     1      34.361  -6.736  36.732  1.00  0.00     0.149 C 
ENDBRANCH   5  25
TORSDOF 3
ENDMDL
MODEL 7
REMARK VINA RESULT:      -8.6      6.400     11.540
REMARK  3 active torsions:
REMARK  status: ('A' for Active; 'I' for Inactive)
REMARK    1  A    between atoms: C3_11  and  N1_7 
REMARK       I    between atoms: C14_22  and  N2_8 
REMARK    2  A    between atoms: C16_24  and  N2_8 
REMARK    3  A    between atoms: C12_20  and  C14_22 
ROOT
HETATM    1  F1  UNK     1      18.809  10.589  34.452  1.00  0.00    -0.201 F 
HETATM    2  F2  UNK     1      14.237  10.880  33.205  1.00  0.00    -0.204 F 
HETATM    3  O2  UNK     1      18.881   7.989  33.760  1.00  0.00    -0.310 OA
HETATM    4  O3  UNK     1      15.602   6.090  32.283  1.00  0.00    -0.286 OA
HETATM    5  C3  UNK     1      16.523  10.764  33.838  1.00  0.00     0.111 A 
HETATM    6  C6  UNK     1      17.694  10.017  33.972  1.00  0.00     0.180 A 
HETATM    7  C7  UNK     1      17.703   8.671  33.605  1.00  0.00     0.131 A 
HETATM    8  C8  UNK     1      15.365  10.168  33.339  1.00  0.00     0.147 A 
HETATM    9  C9  UNK     1      16.549   8.077  33.107  1.00  0.00     0.055 A 
HETATM   10  C10 UNK     1      15.375   8.822  32.971  1.00  0.00     0.063 A 
HETATM   11  C11 UNK     1      16.591   6.658  32.728  1.00  0.00     0.203 A 
HETATM   12  C12 UNK     1      17.888   5.958  32.911  1.00  0.00     0.112 A 
HETATM   13  C13 UNK     1      18.935   6.646  33.408  1.00  0.00     0.069 A 
HETATM   14  C15 UNK     1      20.295   6.058  33.657  1.00  0.00     0.078 C 
ENDROOT
BRANCH  12  15
HETATM   15  C14 UNK     1      18.028   4.539  32.547  1.00  0.00     0.262 C 
HETATM   16  O4  UNK     1      17.916   3.676  33.415  1.00  0.00    -0.267 OA
HETATM   17  N2  UNK     1      18.281   4.370  31.195  1.00  0.00    -0.323 N 
HETATM   18  H13 UNK     1      18.342   5.208  30.618  1.00  0.00     0.169 HD
BRANCH  17  19
HETATM   19  C16 UNK     1      18.472   3.151  30.499  1.00  0.00     0.035 A 
HETATM   20  C17 UNK     1      19.089   2.093  31.145  1.00  0.00     0.029 A 
HETATM   21  C19 UNK     1      19.277   0.893  30.459  1.00  0.00     0.002 A 
HETATM   22  C21 UNK     1      18.844   0.769  29.139  1.00  0.00     0.000 A 
HETATM   23  C20 UNK     1      18.223   1.844  28.505  1.00  0.00     0.002 A 
HETATM   24  C18 UNK     1      18.035   3.045  29.189  1.00  0.00     0.029 A 
ENDBRANCH  17  19
ENDBRANCH  12  15
BRANCH   5  25
HETATM   25  N1  UNK     1      16.511  12.115  34.205  1.00  0.00    -0.372 N 
HETATM   26  C1  UNK     1      16.102  12.458  35.573  1.00  0.00     0.149 C 
HETATM   27  C4  UNK     1      15.662  13.918  35.627  1.00  0.00     0.187 C 
HETATM   28  O1  UNK     1      16.688  14.767  35.116  1.00  0.00    -0.388 OA
HETATM   29  C5  UNK     1      16.942  14.479  33.742  1.00  0.00     0.187 C 
HETATM   30  C2  UNK     1      17.452  13.051  33.580  1.00  0.00     0.149 C 
ENDBRANCH   5  25
TORSDOF 3
ENDMDL
MODEL 8
REMARK VINA RESULT:      -8.4      2.466      9.371
REMARK  3 active torsions:
REMARK  status: ('A' for Active; 'I' for Inactive)
REMARK    1  A    between atoms: C3_11  and  N1_7 
REMARK       I    between atoms: C14_22  and  N2_8 
REMARK    2  A    between atoms: C16_24  and  N2_8 
REMARK    3  A    between atoms: C12_20  and  C14_22 
ROOT
HETATM    1  F1  UNK     1      17.912   4.067  34.454  1.00  0.00    -0.201 F 
HETATM    2  F2  UNK     1      18.785   2.311  30.130  1.00  0.00    -0.204 F 
HETATM    3  O2  UNK     1      18.073   1.609  35.536  1.00  0.00    -0.310 OA
HETATM    4  O3  UNK     1      18.845  -1.672  33.259  1.00  0.00    -0.286 OA
HETATM    5  C3  UNK     1      18.345   3.218  32.281  1.00  0.00     0.111 A 
HETATM    6  C6  UNK     1      18.168   3.024  33.650  1.00  0.00     0.180 A 
HETATM    7  C7  UNK     1      18.257   1.737  34.186  1.00  0.00     0.131 A 
HETATM    8  C8  UNK     1      18.611   2.132  31.447  1.00  0.00     0.147 A 
HETATM    9  C9  UNK     1      18.522   0.655  33.355  1.00  0.00     0.055 A 
HETATM   10  C10 UNK     1      18.701   0.846  31.982  1.00  0.00     0.063 A 
HETATM   11  C11 UNK     1      18.611  -0.686  33.948  1.00  0.00     0.203 A 
HETATM   12  C12 UNK     1      18.406  -0.780  35.416  1.00  0.00     0.112 A 
HETATM   13  C13 UNK     1      18.151   0.346  36.111  1.00  0.00     0.069 A 
HETATM   14  C15 UNK     1      17.910   0.391  37.594  1.00  0.00     0.078 C 
ENDROOT
BRANCH  12  15
HETATM   15  C14 UNK     1      18.489  -2.081  36.099  1.00  0.00     0.262 C 
HETATM   16  O4  UNK     1      17.548  -2.464  36.791  1.00  0.00    -0.267 OA
HETATM   17  N2  UNK     1      19.690  -2.726  35.848  1.00  0.00    -0.323 N 
HETATM   18  H13 UNK     1      20.361  -2.254  35.244  1.00  0.00     0.169 HD
BRANCH  17  19
HETATM   19  C16 UNK     1      20.110  -3.986  36.339  1.00  0.00     0.035 A 
HETATM   20  C17 UNK     1      20.850  -4.045  37.507  1.00  0.00     0.029 A 
HETATM   21  C19 UNK     1      21.264  -5.287  37.990  1.00  0.00     0.002 A 
HETATM   22  C21 UNK     1      20.931  -6.451  37.297  1.00  0.00     0.000 A 
HETATM   23  C20 UNK     1      20.184  -6.373  36.122  1.00  0.00     0.002 A 
HETATM   24  C18 UNK     1      19.770  -5.132  35.639  1.00  0.00     0.029 A 
ENDBRANCH  17  19
ENDBRANCH  12  15
BRANCH   5  25
HETATM   25  N1  UNK     1      18.258   4.507  31.741  1.00  0.00    -0.372 N 
HETATM   26  C1  UNK     1      17.417   5.492  32.433  1.00  0.00     0.149 C 
HETATM   27  C4  UNK     1      17.040   6.613  31.470  1.00  0.00     0.187 C 
HETATM   28  O1  UNK     1      18.210   7.182  30.885  1.00  0.00    -0.388 OA
HETATM   29  C5  UNK     1      18.908   6.210  30.109  1.00  0.00     0.187 C 
HETATM   30  C2  UNK     1      19.390   5.065  30.994  1.00  0.00     0.149 C 
ENDBRANCH   5  25
TORSDOF 3
ENDMDL
MODEL 9
REMARK VINA RESULT:      -8.4      6.538     10.200
REMARK  3 active torsions:
REMARK  status: ('A' for Active; 'I' for Inactive)
REMARK    1  A    between atoms: C3_11  and  N1_7 
REMARK       I    between atoms: C14_22  and  N2_8 
REMARK    2  A    between atoms: C16_24  and  N2_8 
REMARK    3  A    between atoms: C12_20  and  C14_22 
ROOT
HETATM    1  F1  UNK     1      16.142   6.382  32.819  1.00  0.00    -0.201 F 
HETATM    2  F2  UNK     1      20.819   5.891  33.462  1.00  0.00    -0.204 F 
HETATM    3  O2  UNK     1      16.276   8.987  33.479  1.00  0.00    -0.310 OA
HETATM    4  O3  UNK     1      19.803  10.748  34.482  1.00  0.00    -0.286 OA
HETATM    5  C3  UNK     1      18.477   6.106  33.133  1.00  0.00     0.111 A 
HETATM    6  C6  UNK     1      17.334   6.905  33.142  1.00  0.00     0.180 A 
HETATM    7  C7  UNK     1      17.432   8.254  33.488  1.00  0.00     0.131 A 
HETATM    8  C8  UNK     1      19.716   6.653  33.470  1.00  0.00     0.147 A 
HETATM    9  C9  UNK     1      18.667   8.797  33.822  1.00  0.00     0.055 A 
HETATM   10  C10 UNK     1      19.815   8.001  33.815  1.00  0.00     0.063 A 
HETATM   11  C11 UNK     1      18.739  10.221  34.181  1.00  0.00     0.203 A 
HETATM   12  C12 UNK     1      17.461  10.979  34.157  1.00  0.00     0.112 A 
HETATM   13  C13 UNK     1      16.328  10.334  33.819  1.00  0.00     0.069 A 
HETATM   14  C15 UNK     1      14.970  10.975  33.769  1.00  0.00     0.078 C 
ENDROOT
BRANCH  12  15
HETATM   15  C14 UNK     1      17.438  12.412  34.491  1.00  0.00     0.262 C 
HETATM   16  O4  UNK     1      16.964  12.778  35.563  1.00  0.00    -0.267 OA
HETATM   17  N2  UNK     1      17.988  13.190  33.483  1.00  0.00    -0.323 N 
HETATM   18  H13 UNK     1      18.335  12.711  32.654  1.00  0.00     0.169 HD
BRANCH  17  19
HETATM   19  C16 UNK     1      18.129  14.599  33.463  1.00  0.00     0.035 A 
HETATM   20  C17 UNK     1      17.062  15.379  33.052  1.00  0.00     0.029 A 
HETATM   21  C19 UNK     1      17.201  16.767  33.031  1.00  0.00     0.002 A 
HETATM   22  C21 UNK     1      18.404  17.353  33.423  1.00  0.00     0.000 A 
HETATM   23  C20 UNK     1      19.469  16.552  33.835  1.00  0.00     0.002 A 
HETATM   24  C18 UNK     1      19.331  15.165  33.855  1.00  0.00     0.029 A 
ENDBRANCH  17  19
ENDBRANCH  12  15
BRANCH   5  25
HETATM   25  N1  UNK     1      18.382   4.754  32.786  1.00  0.00    -0.372 N 
HETATM   26  C1  UNK     1      17.984   3.797  33.826  1.00  0.00     0.149 C 
HETATM   27  C4  UNK     1      18.423   2.392  33.429  1.00  0.00     0.187 C 
HETATM   28  O1  UNK     1      17.920   2.059  32.135  1.00  0.00    -0.388 OA
HETATM   29  C5  UNK     1      18.455   2.938  31.147  1.00  0.00     0.187 C 
HETATM   30  C2  UNK     1      18.019   4.375  31.416  1.00  0.00     0.149 C 
ENDBRANCH   5  25
TORSDOF 3
ENDMDL
MODEL 10
REMARK VINA RESULT:      -8.4     10.074     13.024
REMARK  3 active torsions:
REMARK  status: ('A' for Active; 'I' for Inactive)
REMARK    1  A    between atoms: C3_11  and  N1_7 
REMARK       I    between atoms: C14_22  and  N2_8 
REMARK    2  A    between atoms: C16_24  and  N2_8 
REMARK    3  A    between atoms: C12_20  and  C14_22 
ROOT
HETATM    1  F1  UNK     1      23.219  -9.952  35.963  1.00  0.00    -0.201 F 
HETATM    2  F2  UNK     1      22.069  -7.281  39.715  1.00  0.00    -0.204 F 
HETATM    3  O2  UNK     1      25.839  -9.496  36.382  1.00  0.00    -0.310 OA
HETATM    4  O3  UNK     1      27.127  -7.178  39.466  1.00  0.00    -0.286 OA
HETATM    5  C3  UNK     1      22.614  -8.622  37.832  1.00  0.00     0.111 A 
HETATM    6  C6  UNK     1      23.583  -9.177  36.996  1.00  0.00     0.180 A 
HETATM    7  C7  UNK     1      24.934  -8.925  37.237  1.00  0.00     0.131 A 
HETATM    8  C8  UNK     1      22.994  -7.817  38.906  1.00  0.00     0.147 A 
HETATM    9  C9  UNK     1      25.312  -8.123  38.307  1.00  0.00     0.055 A 
HETATM   10  C10 UNK     1      24.345  -7.565  39.148  1.00  0.00     0.063 A 
HETATM   11  C11 UNK     1      26.743  -7.876  38.535  1.00  0.00     0.203 A 
HETATM   12  C12 UNK     1      27.689  -8.516  37.586  1.00  0.00     0.112 A 
HETATM   13  C13 UNK     1      27.195  -9.270  36.584  1.00  0.00     0.069 A 
HETATM   14  C15 UNK     1      28.036  -9.960  35.548  1.00  0.00     0.078 C 
ENDROOT
BRANCH  12  15
HETATM   15  C14 UNK     1      29.140  -8.336  37.743  1.00  0.00     0.262 C 
HETATM   16  O4  UNK     1      29.815  -9.239  38.231  1.00  0.00    -0.267 OA
HETATM   17  N2  UNK     1      29.563  -7.095  37.290  1.00  0.00    -0.323 N 
HETATM   18  H13 UNK     1      28.857  -6.466  36.912  1.00  0.00     0.169 HD
BRANCH  17  19
HETATM   19  C16 UNK     1      30.883  -6.582  37.288  1.00  0.00     0.035 A 
HETATM   20  C17 UNK     1      31.311  -5.810  38.354  1.00  0.00     0.029 A 
HETATM   21  C19 UNK     1      32.611  -5.305  38.352  1.00  0.00     0.002 A 
HETATM   22  C21 UNK     1      33.464  -5.581  37.283  1.00  0.00     0.000 A 
HETATM   23  C20 UNK     1      33.017  -6.361  36.217  1.00  0.00     0.002 A 
HETATM   24  C18 UNK     1      31.717  -6.866  36.219  1.00  0.00     0.029 A 
ENDBRANCH  17  19
ENDBRANCH  12  15
BRANCH   5  25
HETATM   25  N1  UNK     1      21.258  -8.874  37.594  1.00  0.00    -0.372 N 
HETATM   26  C1  UNK     1      20.612  -8.186  36.469  1.00  0.00     0.149 C 
HETATM   27  C4  UNK     1      19.101  -8.171  36.673  1.00  0.00     0.187 C 
HETATM   28  O1  UNK     1      18.613  -9.496  36.879  1.00  0.00    -0.388 OA
HETATM   29  C5  UNK     1      19.170 -10.059  38.066  1.00  0.00     0.187 C 
HETATM   30  C2  UNK     1      20.685 -10.179  37.941  1.00  0.00     0.149 C 
ENDBRANCH   5  25
TORSDOF 3
ENDMDL
