MODEL 1
REMARK VINA RESULT:      -8.8      0.000      0.000
REMARK  3 active torsions:
REMARK  status: ('A' for Active; 'I' for Inactive)
REMARK    1  A    between atoms: C1_5  and  N1_3 
REMARK    2  A    between atoms: C11_15  and  N2_4 
REMARK    3  A    between atoms: C11_15  and  C12_16 
ROOT
HETATM    1  C11 UNK     1      20.490  -3.105  37.243  1.00  0.00     0.312 C 
ENDROOT
BRANCH   1   2
HETATM    2  N2  UNK     1      20.644  -4.501  36.836  1.00  0.00     0.092 N 
HETATM    3  C4  UNK     1      21.318  -5.272  37.889  1.00  0.00     0.275 C 
HETATM    4  C2  UNK     1      21.536  -6.723  37.458  1.00  0.00     0.066 C 
HETATM    5  C1  UNK     1      20.218  -7.387  37.059  1.00  0.00     0.226 C 
HETATM    6  C3  UNK     1      19.489  -6.532  36.023  1.00  0.00     0.066 C 
HETATM    7  C5  UNK     1      19.338  -5.087  36.502  1.00  0.00     0.275 C 
BRANCH   5   8
HETATM    8  N1  UNK     1      20.448  -8.741  36.557  1.00  0.00     0.093 N 
HETATM    9  C6  UNK     1      21.435  -8.727  35.469  1.00  0.00     0.273 C 
HETATM   10  C8  UNK     1      21.650 -10.130  34.900  1.00  0.00     0.030 C 
HETATM   11  C10 UNK     1      22.058 -11.114  35.991  1.00  0.00     0.003 C 
HETATM   12  C9  UNK     1      21.071 -11.061  37.151  1.00  0.00     0.030 C 
HETATM   13  C7  UNK     1      20.874  -9.628  37.649  1.00  0.00     0.273 C 
ENDBRANCH   5   8
ENDBRANCH   1   2
BRANCH   1  14
HETATM   14  C12 UNK     1      19.922  -2.388  36.070  1.00  0.00    -0.011 A 
HETATM   15  C14 UNK     1      20.446  -2.539  34.846  1.00  0.00     0.092 A 
HETATM   16  C17 UNK     1      19.919  -1.851  33.656  1.00  0.00     0.288 A 
HETATM   17  O1  UNK     1      18.829  -1.018  33.850  1.00  0.00    -0.275 OA
HETATM   18  O2  UNK     1      20.425  -2.013  32.550  1.00  0.00    -0.260 OA
HETATM   19  C15 UNK     1      18.255  -0.840  35.126  1.00  0.00     0.090 A 
HETATM   20  C13 UNK     1      18.766  -1.498  36.245  1.00  0.00     0.006 A 
HETATM   21  C18 UNK     1      17.161   0.023  35.203  1.00  0.00     0.045 A 
HETATM   22  C16 UNK     1      18.140  -1.267  37.477  1.00  0.00     0.015 A 
HETATM   23  C19 UNK     1      17.042  -0.405  37.570  1.00  0.00     0.007 A 
HETATM   24  C20 UNK     1      16.553   0.240  36.436  1.00  0.00    -0.059 A 
HETATM   25  C21 UNK     1      15.383   1.158  36.543  1.00  0.00     0.048 C 
ENDBRANCH   1  14
TORSDOF 3
ENDMDL
MODEL 2
REMARK VINA RESULT:      -8.8      8.856     11.753
REMARK  3 active torsions:
REMARK  status: ('A' for Active; 'I' for Inactive)
REMARK    1  A    between atoms: C1_5  and  N1_3 
REMARK    2  A    between atoms: C11_15  and  N2_4 
REMARK    3  A    between atoms: C11_15  and  C12_16 
ROOT
HETATM    1  C11 UNK     1      18.366   6.870  32.772  1.00  0.00     0.312 C 
ENDROOT
BRANCH   1   2
HETATM    2  N2  UNK     1      18.217   5.595  32.072  1.00  0.00     0.092 N 
HETATM    3  C4  UNK     1      19.243   5.458  31.029  1.00  0.00     0.275 C 
HETATM    4  C2  UNK     1      19.070   4.153  30.251  1.00  0.00     0.066 C 
HETATM    5  C1  UNK     1      19.082   2.944  31.186  1.00  0.00     0.226 C 
HETATM    6  C3  UNK     1      18.067   3.137  32.313  1.00  0.00     0.066 C 
HETATM    7  C5  UNK     1      18.274   4.476  33.023  1.00  0.00     0.275 C 
BRANCH   5   8
HETATM    8  N1  UNK     1      18.819   1.710  30.445  1.00  0.00     0.093 N 
HETATM    9  C6  UNK     1      18.425   2.014  29.062  1.00  0.00     0.273 C 
HETATM   10  C8  UNK     1      18.099   0.736  28.289  1.00  0.00     0.030 C 
HETATM   11  C10 UNK     1      19.267  -0.244  28.319  1.00  0.00     0.003 C 
HETATM   12  C9  UNK     1      19.721  -0.487  29.753  1.00  0.00     0.030 C 
HETATM   13  C7  UNK     1      19.995   0.829  30.482  1.00  0.00     0.273 C 
ENDBRANCH   5   8
ENDBRANCH   1   2
BRANCH   1  14
HETATM   14  C12 UNK     1      17.025   7.513  32.758  1.00  0.00    -0.011 A 
HETATM   15  C14 UNK     1      15.949   6.861  32.295  1.00  0.00     0.092 A 
HETATM   16  C17 UNK     1      14.603   7.456  32.261  1.00  0.00     0.288 A 
HETATM   17  O1  UNK     1      14.481   8.751  32.740  1.00  0.00    -0.275 OA
HETATM   18  O2  UNK     1      13.640   6.829  31.830  1.00  0.00    -0.260 OA
HETATM   19  C15 UNK     1      15.595   9.461  33.234  1.00  0.00     0.090 A 
HETATM   20  C13 UNK     1      16.865   8.885  33.259  1.00  0.00     0.006 A 
HETATM   21  C18 UNK     1      15.355  10.759  33.689  1.00  0.00     0.045 A 
HETATM   22  C16 UNK     1      17.920   9.657  33.764  1.00  0.00     0.015 A 
HETATM   23  C19 UNK     1      17.694  10.959  34.225  1.00  0.00     0.007 A 
HETATM   24  C20 UNK     1      16.415  11.510  34.187  1.00  0.00    -0.059 A 
HETATM   25  C21 UNK     1      16.183  12.898  34.679  1.00  0.00     0.048 C 
ENDBRANCH   1  14
TORSDOF 3
ENDMDL
MODEL 3
REMARK VINA RESULT:      -8.7      1.498      3.311
REMARK  3 active torsions:
REMARK  status: ('A' for Active; 'I' for Inactive)
REMARK    1  A    between atoms: C1_5  and  N1_3 
REMARK    2  A    between atoms: C11_15  and  N2_4 
REMARK    3  A    between atoms: C11_15  and  C12_16 
ROOT
HETATM    1  C11 UNK     1      19.770  -2.444  36.929  1.00  0.00     0.312 C 
ENDROOT
BRANCH   1   2
HETATM    2  N2  UNK     1      19.853  -3.871  36.617  1.00  0.00     0.092 N 
HETATM    3  C4  UNK     1      20.873  -4.520  37.450  1.00  0.00     0.275 C 
HETATM    4  C2  UNK     1      21.011  -6.003  37.100  1.00  0.00     0.066 C 
HETATM    5  C1  UNK     1      19.670  -6.728  37.219  1.00  0.00     0.226 C 
HETATM    6  C3  UNK     1      18.599  -5.993  36.413  1.00  0.00     0.066 C 
HETATM    7  C5  UNK     1      18.541  -4.511  36.787  1.00  0.00     0.275 C 
BRANCH   5   8
HETATM    8  N1  UNK     1      19.791  -8.120  36.789  1.00  0.00     0.093 N 
HETATM    9  C6  UNK     1      21.140  -8.382  36.266  1.00  0.00     0.273 C 
HETATM   10  C8  UNK     1      21.267  -9.823  35.767  1.00  0.00     0.030 C 
HETATM   11  C10 UNK     1      20.903 -10.822  36.859  1.00  0.00     0.003 C 
HETATM   12  C9  UNK     1      19.538 -10.491  37.451  1.00  0.00     0.030 C 
HETATM   13  C7  UNK     1      19.464  -9.030  37.897  1.00  0.00     0.273 C 
ENDBRANCH   5   8
ENDBRANCH   1   2
BRANCH   1  14
HETATM   14  C12 UNK     1      18.931  -1.831  35.865  1.00  0.00    -0.011 A 
HETATM   15  C14 UNK     1      17.765  -1.239  36.157  1.00  0.00     0.092 A 
HETATM   16  C17 UNK     1      16.902  -0.619  35.139  1.00  0.00     0.288 A 
HETATM   17  O1  UNK     1      17.349  -0.670  33.828  1.00  0.00    -0.275 OA
HETATM   18  O2  UNK     1      15.840  -0.085  35.443  1.00  0.00    -0.260 OA
HETATM   19  C15 UNK     1      18.571  -1.286  33.490  1.00  0.00     0.090 A 
HETATM   20  C13 UNK     1      19.379  -1.870  34.466  1.00  0.00     0.006 A 
HETATM   21  C18 UNK     1      18.922  -1.279  32.139  1.00  0.00     0.045 A 
HETATM   22  C16 UNK     1      20.578  -2.463  34.049  1.00  0.00     0.015 A 
HETATM   23  C19 UNK     1      20.943  -2.463  32.697  1.00  0.00     0.007 A 
HETATM   24  C20 UNK     1      20.116  -1.872  31.743  1.00  0.00    -0.059 A 
HETATM   25  C21 UNK     1      20.511  -1.877  30.306  1.00  0.00     0.048 C 
ENDBRANCH   1  14
TORSDOF 3
ENDMDL
MODEL 4
REMARK VINA RESULT:      -8.5     29.093     31.000
REMARK  3 active torsions:
REMARK  status: ('A' for Active; 'I' for Inactive)
REMARK    1  A    between atoms: C1_5  and  N1_3 
REMARK    2  A    between atoms: C11_15  and  N2_4 
REMARK    3  A    between atoms: C11_15  and  C12_16 
ROOT
HETATM    1  C11 UNK     1      12.859   6.982   7.142  1.00  0.00     0.312 C 
ENDROOT
BRANCH   1   2
HETATM    2  N2  UNK     1      11.570   6.703   7.776  1.00  0.00     0.092 N 
HETATM    3  C4  UNK     1      11.046   7.912   8.426  1.00  0.00     0.275 C 
HETATM    4  C2  UNK     1       9.723   7.626   9.140  1.00  0.00     0.066 C 
HETATM    5  C1  UNK     1       8.691   7.035   8.179  1.00  0.00     0.226 C 
HETATM    6  C3  UNK     1       9.280   5.828   7.449  1.00  0.00     0.066 C 
HETATM    7  C5  UNK     1      10.616   6.174   6.791  1.00  0.00     0.275 C 
BRANCH   5   8
HETATM    8  N1  UNK     1       7.465   6.675   8.889  1.00  0.00     0.093 N 
HETATM    9  C6  UNK     1       7.635   5.400   9.599  1.00  0.00     0.273 C 
HETATM   10  C8  UNK     1       6.344   4.985  10.307  1.00  0.00     0.030 C 
HETATM   11  C10 UNK     1       5.858   6.075  11.256  1.00  0.00     0.003 C 
HETATM   12  C9  UNK     1       5.764   7.411  10.529  1.00  0.00     0.030 C 
HETATM   13  C7  UNK     1       7.072   7.749   9.813  1.00  0.00     0.273 C 
ENDBRANCH   5   8
ENDBRANCH   1   2
BRANCH   1  14
HETATM   14  C12 UNK     1      13.896   6.725   8.176  1.00  0.00    -0.011 A 
HETATM   15  C14 UNK     1      14.197   5.477   8.560  1.00  0.00     0.092 A 
HETATM   16  C17 UNK     1      15.216   5.174   9.579  1.00  0.00     0.288 A 
HETATM   17  O1  UNK     1      15.874   6.255  10.143  1.00  0.00    -0.275 OA
HETATM   18  O2  UNK     1      15.466   4.018   9.906  1.00  0.00    -0.260 OA
HETATM   19  C15 UNK     1      15.580   7.579   9.758  1.00  0.00     0.090 A 
HETATM   20  C13 UNK     1      14.611   7.852   8.792  1.00  0.00     0.006 A 
HETATM   21  C18 UNK     1      16.304   8.590  10.393  1.00  0.00     0.045 A 
HETATM   22  C16 UNK     1      14.376   9.194   8.466  1.00  0.00     0.015 A 
HETATM   23  C19 UNK     1      15.095  10.218   9.094  1.00  0.00     0.007 A 
HETATM   24  C20 UNK     1      16.057   9.917  10.057  1.00  0.00    -0.059 A 
HETATM   25  C21 UNK     1      16.818  11.013  10.722  1.00  0.00     0.048 C 
ENDBRANCH   1  14
TORSDOF 3
ENDMDL
MODEL 5
REMARK VINA RESULT:      -8.5     28.781     31.717
REMARK  3 active torsions:
REMARK  status: ('A' for Active; 'I' for Inactive)
REMARK    1  A    between atoms: C1_5  and  N1_3 
REMARK    2  A    between atoms: C11_15  and  N2_4 
REMARK    3  A    between atoms: C11_15  and  C12_16 
ROOT
HETATM    1  C11 UNK     1      14.263   8.460  10.679  1.00  0.00     0.312 C 
ENDROOT
BRANCH   1   2
HETATM    2  N2  UNK     1      15.144   9.300   9.868  1.00  0.00     0.092 N 
HETATM    3  C4  UNK     1      14.466  10.551   9.502  1.00  0.00     0.275 C 
HETATM    4  C2  UNK     1      15.354  11.419   8.609  1.00  0.00     0.066 C 
HETATM    5  C1  UNK     1      16.700  11.705   9.276  1.00  0.00     0.226 C 
HETATM    6  C3  UNK     1      17.355  10.399   9.725  1.00  0.00     0.066 C 
HETATM    7  C5  UNK     1      16.401   9.566  10.582  1.00  0.00     0.275 C 
BRANCH   5   8
HETATM    8  N1  UNK     1      17.578  12.454   8.376  1.00  0.00     0.093 N 
HETATM    9  C6  UNK     1      18.723  11.627   7.968  1.00  0.00     0.273 C 
HETATM   10  C8  UNK     1      19.677  12.412   7.067  1.00  0.00     0.030 C 
HETATM   11  C10 UNK     1      18.951  12.976   5.850  1.00  0.00     0.003 C 
HETATM   12  C9  UNK     1      17.719  13.762   6.282  1.00  0.00     0.030 C 
HETATM   13  C7  UNK     1      16.827  12.935   7.209  1.00  0.00     0.273 C 
ENDBRANCH   5   8
ENDBRANCH   1   2
BRANCH   1  14
HETATM   14  C12 UNK     1      14.165   7.154   9.974  1.00  0.00    -0.011 A 
HETATM   15  C14 UNK     1      15.041   6.169  10.217  1.00  0.00     0.092 A 
HETATM   16  C17 UNK     1      14.985   4.861   9.545  1.00  0.00     0.288 A 
HETATM   17  O1  UNK     1      13.965   4.676   8.624  1.00  0.00    -0.275 OA
HETATM   18  O2  UNK     1      15.804   3.981   9.793  1.00  0.00    -0.260 OA
HETATM   19  C15 UNK     1      13.030   5.694   8.348  1.00  0.00     0.090 A 
HETATM   20  C13 UNK     1      13.095   6.929   8.993  1.00  0.00     0.006 A 
HETATM   21  C18 UNK     1      12.046   5.398   7.402  1.00  0.00     0.045 A 
HETATM   22  C16 UNK     1      12.129   7.888   8.661  1.00  0.00     0.015 A 
HETATM   23  C19 UNK     1      11.136   7.605   7.715  1.00  0.00     0.007 A 
HETATM   24  C20 UNK     1      11.095   6.362   7.086  1.00  0.00    -0.059 A 
HETATM   25  C21 UNK     1      10.036   6.069   6.079  1.00  0.00     0.048 C 
ENDBRANCH   1  14
TORSDOF 3
ENDMDL
MODEL 6
REMARK VINA RESULT:      -8.5     10.269     11.783
REMARK  3 active torsions:
REMARK  status: ('A' for Active; 'I' for Inactive)
REMARK    1  A    between atoms: C1_5  and  N1_3 
REMARK    2  A    between atoms: C11_15  and  N2_4 
REMARK    3  A    between atoms: C11_15  and  C12_16 
ROOT
HETATM    1  C11 UNK     1      31.541  -6.690  36.803  1.00  0.00     0.312 C 
ENDROOT
BRANCH   1   2
HETATM    2  N2  UNK     1      30.797  -6.876  35.557  1.00  0.00     0.092 N 
HETATM    3  C4  UNK     1      30.898  -5.678  34.714  1.00  0.00     0.275 C 
HETATM    4  C2  UNK     1      30.082  -5.836  33.430  1.00  0.00     0.066 C 
HETATM    5  C1  UNK     1      30.504  -7.084  32.654  1.00  0.00     0.226 C 
HETATM    6  C3  UNK     1      30.473  -8.309  33.567  1.00  0.00     0.066 C 
HETATM    7  C5  UNK     1      31.277  -8.069  34.846  1.00  0.00     0.275 C 
BRANCH   5   8
HETATM    8  N1  UNK     1      29.654  -7.279  31.480  1.00  0.00     0.093 N 
HETATM    9  C6  UNK     1      28.948  -8.565  31.563  1.00  0.00     0.273 C 
HETATM   10  C8  UNK     1      28.093  -8.807  30.318  1.00  0.00     0.030 C 
HETATM   11  C10 UNK     1      27.112  -7.662  30.089  1.00  0.00     0.003 C 
HETATM   12  C9  UNK     1      27.845  -6.326  30.087  1.00  0.00     0.030 C 
HETATM   13  C7  UNK     1      28.709  -6.162  31.338  1.00  0.00     0.273 C 
ENDBRANCH   5   8
ENDBRANCH   1   2
BRANCH   1  14
HETATM   14  C12 UNK     1      30.541  -6.301  37.832  1.00  0.00    -0.011 A 
HETATM   15  C14 UNK     1      30.490  -5.051  38.311  1.00  0.00     0.092 A 
HETATM   16  C17 UNK     1      29.519  -4.619  39.330  1.00  0.00     0.288 A 
HETATM   17  O1  UNK     1      28.632  -5.579  39.791  1.00  0.00    -0.275 OA
HETATM   18  O2  UNK     1      29.501  -3.465  39.745  1.00  0.00    -0.260 OA
HETATM   19  C15 UNK     1      28.661  -6.903  39.306  1.00  0.00     0.090 A 
HETATM   20  C13 UNK     1      29.588  -7.297  38.340  1.00  0.00     0.006 A 
HETATM   21  C18 UNK     1      27.722  -7.785  39.842  1.00  0.00     0.045 A 
HETATM   22  C16 UNK     1      29.553  -8.631  37.911  1.00  0.00     0.015 A 
HETATM   23  C19 UNK     1      28.616  -9.527  38.440  1.00  0.00     0.007 A 
HETATM   24  C20 UNK     1      27.702  -9.105  39.404  1.00  0.00    -0.059 A 
HETATM   25  C21 UNK     1      26.708 -10.065  39.962  1.00  0.00     0.048 C 
ENDBRANCH   1  14
TORSDOF 3
ENDMDL
MODEL 7
REMARK VINA RESULT:      -8.4     10.422     12.349
REMARK  3 active torsions:
REMARK  status: ('A' for Active; 'I' for Inactive)
REMARK    1  A    between atoms: C1_5  and  N1_3 
REMARK    2  A    between atoms: C11_15  and  N2_4 
REMARK    3  A    between atoms: C11_15  and  C12_16 
ROOT
HETATM    1  C11 UNK     1      31.926  -6.470  37.065  1.00  0.00     0.312 C 
ENDROOT
BRANCH   1   2
HETATM    2  N2  UNK     1      31.377  -6.498  35.709  1.00  0.00     0.092 N 
HETATM    3  C4  UNK     1      31.779  -5.296  34.967  1.00  0.00     0.275 C 
HETATM    4  C2  UNK     1      31.169  -5.283  33.564  1.00  0.00     0.066 C 
HETATM    5  C1  UNK     1      31.537  -6.548  32.788  1.00  0.00     0.226 C 
HETATM    6  C3  UNK     1      31.189  -7.790  33.608  1.00  0.00     0.066 C 
HETATM    7  C5  UNK     1      31.798  -7.720  35.009  1.00  0.00     0.275 C 
BRANCH   5   8
HETATM    8  N1  UNK     1      30.872  -6.571  31.486  1.00  0.00     0.093 N 
HETATM    9  C6  UNK     1      31.795  -7.046  30.445  1.00  0.00     0.273 C 
HETATM   10  C8  UNK     1      31.129  -7.030  29.068  1.00  0.00     0.030 C 
HETATM   11  C10 UNK     1      29.840  -7.844  29.067  1.00  0.00     0.003 C 
HETATM   12  C9  UNK     1      28.926  -7.398  30.201  1.00  0.00     0.030 C 
HETATM   13  C7  UNK     1      29.661  -7.402  31.542  1.00  0.00     0.273 C 
ENDBRANCH   5   8
ENDBRANCH   1   2
BRANCH   1  14
HETATM   14  C12 UNK     1      30.794  -6.131  37.967  1.00  0.00    -0.011 A 
HETATM   15  C14 UNK     1      30.631  -4.886  38.435  1.00  0.00     0.092 A 
HETATM   16  C17 UNK     1      29.527  -4.503  39.330  1.00  0.00     0.288 A 
HETATM   17  O1  UNK     1      28.633  -5.503  39.682  1.00  0.00    -0.275 OA
HETATM   18  O2  UNK     1      29.409  -3.352  39.740  1.00  0.00    -0.260 OA
HETATM   19  C15 UNK     1      28.779  -6.821  39.204  1.00  0.00     0.090 A 
HETATM   20  C13 UNK     1      29.831  -7.170  38.357  1.00  0.00     0.006 A 
HETATM   21  C18 UNK     1      27.821  -7.746  39.624  1.00  0.00     0.045 A 
HETATM   22  C16 UNK     1      29.906  -8.502  37.927  1.00  0.00     0.015 A 
HETATM   23  C19 UNK     1      28.952  -9.440  38.339  1.00  0.00     0.007 A 
HETATM   24  C20 UNK     1      27.912  -9.064  39.187  1.00  0.00    -0.059 A 
HETATM   25  C21 UNK     1      26.901 -10.069  39.622  1.00  0.00     0.048 C 
ENDBRANCH   1  14
TORSDOF 3
ENDMDL
MODEL 8
REMARK VINA RESULT:      -8.1      7.511     13.128
REMARK  3 active torsions:
REMARK  status: ('A' for Active; 'I' for Inactive)
REMARK    1  A    between atoms: C1_5  and  N1_3 
REMARK    2  A    between atoms: C11_15  and  N2_4 
REMARK    3  A    between atoms: C11_15  and  C12_16 
ROOT
HETATM    1  C11 UNK     1      18.377   4.127  31.016  1.00  0.00     0.312 C 
ENDROOT
BRANCH   1   2
HETATM    2  N2  UNK     1      18.066   5.198  31.962  1.00  0.00     0.092 N 
HETATM    3  C4  UNK     1      19.171   6.164  32.026  1.00  0.00     0.275 C 
HETATM    4  C2  UNK     1      18.885   7.264  33.050  1.00  0.00     0.066 C 
HETATM    5  C1  UNK     1      17.563   7.970  32.751  1.00  0.00     0.226 C 
HETATM    6  C3  UNK     1      16.438   6.945  32.605  1.00  0.00     0.066 C 
HETATM    7  C5  UNK     1      16.804   5.857  31.595  1.00  0.00     0.275 C 
BRANCH   5   8
HETATM    8  N1  UNK     1      17.251   8.952  33.788  1.00  0.00     0.093 N 
HETATM    9  C6  UNK     1      17.959  10.215  33.531  1.00  0.00     0.273 C 
HETATM   10  C8  UNK     1      17.682  11.237  34.635  1.00  0.00     0.030 C 
HETATM   11  C10 UNK     1      16.186  11.476  34.806  1.00  0.00     0.003 C 
HETATM   12  C9  UNK     1      15.452  10.154  34.989  1.00  0.00     0.030 C 
HETATM   13  C7  UNK     1      15.800   9.165  33.875  1.00  0.00     0.273 C 
ENDBRANCH   5   8
ENDBRANCH   1   2
BRANCH   1  14
HETATM   14  C12 UNK     1      18.452   2.874  31.814  1.00  0.00    -0.011 A 
HETATM   15  C14 UNK     1      18.056   2.843  33.093  1.00  0.00     0.092 A 
HETATM   16  C17 UNK     1      18.112   1.628  33.923  1.00  0.00     0.288 A 
HETATM   17  O1  UNK     1      18.602   0.482  33.317  1.00  0.00    -0.275 OA
HETATM   18  O2  UNK     1      17.740   1.637  35.092  1.00  0.00    -0.260 OA
HETATM   19  C15 UNK     1      19.026   0.484  31.972  1.00  0.00     0.090 A 
HETATM   20  C13 UNK     1      18.967   1.643  31.198  1.00  0.00     0.006 A 
HETATM   21  C18 UNK     1      19.502  -0.727  31.466  1.00  0.00     0.045 A 
HETATM   22  C16 UNK     1      19.408   1.562  29.871  1.00  0.00     0.015 A 
HETATM   23  C19 UNK     1      19.888   0.355  29.349  1.00  0.00     0.007 A 
HETATM   24  C20 UNK     1      19.935  -0.788  30.145  1.00  0.00    -0.059 A 
HETATM   25  C21 UNK     1      20.448  -2.070  29.583  1.00  0.00     0.048 C 
ENDBRANCH   1  14
TORSDOF 3
ENDMDL
MODEL 9
REMARK VINA RESULT:      -8.0      8.434     11.166
REMARK  3 active torsions:
REMARK  status: ('A' for Active; 'I' for Inactive)
REMARK    1  A    between atoms: C1_5  and  N1_3 
REMARK    2  A    between atoms: C11_15  and  N2_4 
REMARK    3  A    between atoms: C11_15  and  C12_16 
ROOT
HETATM    1  C11 UNK     1      30.379  -8.149  37.928  1.00  0.00     0.312 C 
ENDROOT
BRANCH   1   2
HETATM    2  N2  UNK     1      28.976  -8.523  37.754  1.00  0.00     0.092 N 
HETATM    3  C4  UNK     1      28.730  -8.970  36.376  1.00  0.00     0.275 C 
HETATM    4  C2  UNK     1      27.256  -9.315  36.161  1.00  0.00     0.066 C 
HETATM    5  C1  UNK     1      26.780 -10.365  37.165  1.00  0.00     0.226 C 
HETATM    6  C3  UNK     1      27.117  -9.925  38.590  1.00  0.00     0.066 C 
HETATM    7  C5  UNK     1      28.596  -9.560  38.724  1.00  0.00     0.275 C 
BRANCH   5   8
HETATM    8  N1  UNK     1      25.348 -10.618  37.015  1.00  0.00     0.093 N 
HETATM    9  C6  UNK     1      24.629  -9.364  36.748  1.00  0.00     0.273 C 
HETATM   10  C8  UNK     1      23.122  -9.604  36.638  1.00  0.00     0.030 C 
HETATM   11  C10 UNK     1      22.805 -10.651  35.576  1.00  0.00     0.003 C 
HETATM   12  C9  UNK     1      23.617 -11.918  35.816  1.00  0.00     0.030 C 
HETATM   13  C7  UNK     1      25.108 -11.605  35.953  1.00  0.00     0.273 C 
ENDBRANCH   5   8
ENDBRANCH   1   2
BRANCH   1  14
HETATM   14  C12 UNK     1      30.416  -6.662  37.941  1.00  0.00    -0.011 A 
HETATM   15  C14 UNK     1      29.561  -5.955  38.692  1.00  0.00     0.092 A 
HETATM   16  C17 UNK     1      29.560  -4.483  38.738  1.00  0.00     0.288 A 
HETATM   17  O1  UNK     1      30.501  -3.835  37.955  1.00  0.00    -0.275 OA
HETATM   18  O2  UNK     1      28.762  -3.869  39.438  1.00  0.00    -0.260 OA
HETATM   19  C15 UNK     1      31.414  -4.552  37.155  1.00  0.00     0.090 A 
HETATM   20  C13 UNK     1      31.403  -5.947  37.121  1.00  0.00     0.006 A 
HETATM   21  C18 UNK     1      32.318  -3.795  36.406  1.00  0.00     0.045 A 
HETATM   22  C16 UNK     1      32.342  -6.585  36.300  1.00  0.00     0.015 A 
HETATM   23  C19 UNK     1      33.254  -5.840  35.544  1.00  0.00     0.007 A 
HETATM   24  C20 UNK     1      33.242  -4.447  35.597  1.00  0.00    -0.059 A 
HETATM   25  C21 UNK     1      34.216  -3.660  34.788  1.00  0.00     0.048 C 
ENDBRANCH   1  14
TORSDOF 3
ENDMDL
MODEL 10
REMARK VINA RESULT:      -8.0     28.918     30.453
REMARK  3 active torsions:
REMARK  status: ('A' for Active; 'I' for Inactive)
REMARK    1  A    between atoms: C1_5  and  N1_3 
REMARK    2  A    between atoms: C11_15  and  N2_4 
REMARK    3  A    between atoms: C11_15  and  C12_16 
ROOT
HETATM    1  C11 UNK     1       8.677   6.088   8.206  1.00  0.00     0.312 C 
ENDROOT
BRANCH   1   2
HETATM    2  N2  UNK     1      10.070   6.431   8.495  1.00  0.00     0.092 N 
HETATM    3  C4  UNK     1      10.772   5.278   9.075  1.00  0.00     0.275 C 
HETATM    4  C2  UNK     1      12.216   5.635   9.433  1.00  0.00     0.066 C 
HETATM    5  C1  UNK     1      12.971   6.176   8.219  1.00  0.00     0.226 C 
HETATM    6  C3  UNK     1      12.187   7.321   7.576  1.00  0.00     0.066 C 
HETATM    7  C5  UNK     1      10.744   6.907   7.280  1.00  0.00     0.275 C 
BRANCH   5   8
HETATM    8  N1  UNK     1      14.319   6.604   8.592  1.00  0.00     0.093 N 
HETATM    9  C6  UNK     1      14.263   7.819   9.416  1.00  0.00     0.273 C 
HETATM   10  C8  UNK     1      15.668   8.308   9.773  1.00  0.00     0.030 C 
HETATM   11  C10 UNK     1      16.475   7.216  10.467  1.00  0.00     0.003 C 
HETATM   12  C9  UNK     1      16.456   5.935   9.642  1.00  0.00     0.030 C 
HETATM   13  C7  UNK     1      15.027   5.521   9.288  1.00  0.00     0.273 C 
ENDBRANCH   5   8
ENDBRANCH   1   2
BRANCH   1  14
HETATM   14  C12 UNK     1       7.891   6.489   9.403  1.00  0.00    -0.011 A 
HETATM   15  C14 UNK     1       7.852   7.765   9.809  1.00  0.00     0.092 A 
HETATM   16  C17 UNK     1       7.088   8.209  10.987  1.00  0.00     0.288 A 
HETATM   17  O1  UNK     1       6.390   7.234  11.682  1.00  0.00    -0.275 OA
HETATM   18  O2  UNK     1       7.074   9.387  11.330  1.00  0.00    -0.260 OA
HETATM   19  C15 UNK     1       6.413   5.883  11.278  1.00  0.00     0.090 A 
HETATM   20  C13 UNK     1       7.141   5.477  10.159  1.00  0.00     0.006 A 
HETATM   21  C18 UNK     1       5.673   4.988  12.052  1.00  0.00     0.045 A 
HETATM   22  C16 UNK     1       7.113   4.117   9.824  1.00  0.00     0.015 A 
HETATM   23  C19 UNK     1       6.376   3.207  10.591  1.00  0.00     0.007 A 
HETATM   24  C20 UNK     1       5.658   3.641  11.704  1.00  0.00    -0.059 A 
HETATM   25  C21 UNK     1       4.876   2.666  12.516  1.00  0.00     0.048 C 
ENDBRANCH   1  14
TORSDOF 3
ENDMDL
