MODEL 1
REMARK VINA RESULT:      -8.7      0.000      0.000
REMARK  4 active torsions:
REMARK  status: ('A' for Active; 'I' for Inactive)
REMARK    1  A    between atoms: C14_20  and  N1_6 
REMARK    2  A    between atoms: C3_9  and  C8_14 
REMARK    3  A    between atoms: C10_16  and  C8_14 
REMARK    4  A    between atoms: C11_17  and  C9_15 
ROOT
HETATM    1  O3  UNK     1      17.734   3.562  31.576  1.00  0.00    -0.288 OA
HETATM    2  C8  UNK     1      18.375   3.211  30.574  1.00  0.00     0.182 C 
ENDROOT
BRANCH   2   3
HETATM    3  C10 UNK     1      18.559   4.153  29.417  1.00  0.00     0.056 C 
HETATM    4  C11 UNK     1      18.993   5.406  29.619  1.00  0.00     0.015 C 
BRANCH   4   5
HETATM    5  C9  UNK     1      19.323   5.973  30.938  1.00  0.00    -0.034 A 
HETATM    6  C12 UNK     1      18.384   6.742  31.623  1.00  0.00     0.047 A 
HETATM    7  C14 UNK     1      18.698   7.279  32.871  1.00  0.00     0.103 A 
HETATM    8  C16 UNK     1      19.952   7.044  33.435  1.00  0.00     0.036 A 
HETATM    9  C15 UNK     1      20.892   6.275  32.751  1.00  0.00     0.003 A 
HETATM   10  C13 UNK     1      20.578   5.738  31.502  1.00  0.00     0.011 A 
BRANCH   7  11
HETATM   11  N1  UNK     1      17.742   8.063  33.568  1.00  0.00    -0.116 N 
HETATM   12  O4  UNK     1      17.138   7.561  34.547  1.00  0.00    -0.532 OA
HETATM   13  O5  UNK     1      17.525   9.239  33.186  1.00  0.00    -0.532 OA
ENDBRANCH   7  11
ENDBRANCH   4   5
ENDBRANCH   2   3
BRANCH   2  14
HETATM   14  C3  UNK     1      18.936   1.872  30.477  1.00  0.00     0.017 A 
HETATM   15  C4  UNK     1      19.115   1.112  31.635  1.00  0.00     0.055 A 
HETATM   16  C1  UNK     1      19.650  -0.153  31.494  1.00  0.00     0.105 A 
HETATM   17  O1  UNK     1      19.896  -1.033  32.503  1.00  0.00    -0.323 OA
HETATM   18  C2  UNK     1      19.996  -0.659  30.262  1.00  0.00     0.105 A 
HETATM   19  C7  UNK     1      20.438  -2.150  31.767  1.00  0.00     0.352 A 
HETATM   20  O2  UNK     1      20.504  -1.919  30.345  1.00  0.00    -0.323 OA
HETATM   21  C5  UNK     1      19.828   0.071  29.104  1.00  0.00     0.040 A 
HETATM   22  C6  UNK     1      19.289   1.355  29.219  1.00  0.00     0.018 A 
ENDBRANCH   2  14
TORSDOF 4
ENDMDL
MODEL 2
REMARK VINA RESULT:      -8.5     22.659     24.686
REMARK  4 active torsions:
REMARK  status: ('A' for Active; 'I' for Inactive)
REMARK    1  A    between atoms: C14_20  and  N1_6 
REMARK    2  A    between atoms: C3_9  and  C8_14 
REMARK    3  A    between atoms: C10_16  and  C8_14 
REMARK    4  A    between atoms: C11_17  and  C9_15 
ROOT
HETATM    1  O3  UNK     1      12.970   7.111  10.681  1.00  0.00    -0.288 OA
HETATM    2  C8  UNK     1      13.907   6.991   9.878  1.00  0.00     0.182 C 
ENDROOT
BRANCH   2   3
HETATM    3  C10 UNK     1      14.280   5.639   9.336  1.00  0.00     0.056 C 
HETATM    4  C11 UNK     1      13.498   5.027   8.434  1.00  0.00     0.015 C 
BRANCH   4   5
HETATM    5  C9  UNK     1      12.245   5.586   7.898  1.00  0.00    -0.034 A 
HETATM    6  C12 UNK     1      11.041   5.369   8.567  1.00  0.00     0.047 A 
HETATM    7  C14 UNK     1       9.855   5.899   8.059  1.00  0.00     0.103 A 
HETATM    8  C16 UNK     1       9.874   6.646   6.881  1.00  0.00     0.036 A 
HETATM    9  C15 UNK     1      11.077   6.862   6.211  1.00  0.00     0.003 A 
HETATM   10  C13 UNK     1      12.263   6.333   6.719  1.00  0.00     0.011 A 
BRANCH   7  11
HETATM   11  N1  UNK     1       8.629   5.678   8.739  1.00  0.00    -0.116 N 
HETATM   12  O4  UNK     1       8.506   6.085   9.919  1.00  0.00    -0.532 OA
HETATM   13  O5  UNK     1       7.702   5.079   8.142  1.00  0.00    -0.532 OA
ENDBRANCH   7  11
ENDBRANCH   4   5
ENDBRANCH   2   3
BRANCH   2  14
HETATM   14  C3  UNK     1      14.690   8.146   9.466  1.00  0.00     0.017 A 
HETATM   15  C4  UNK     1      15.989   8.312   9.952  1.00  0.00     0.055 A 
HETATM   16  C1  UNK     1      16.692   9.423   9.532  1.00  0.00     0.105 A 
HETATM   17  O1  UNK     1      17.962   9.749   9.899  1.00  0.00    -0.323 OA
HETATM   18  C2  UNK     1      16.146  10.341   8.665  1.00  0.00     0.105 A 
HETATM   19  C7  UNK     1      18.153  10.977   9.165  1.00  0.00     0.352 A 
HETATM   20  O2  UNK     1      17.005  11.358   8.380  1.00  0.00    -0.323 OA
HETATM   21  C5  UNK     1      14.866  10.200   8.169  1.00  0.00     0.040 A 
HETATM   22  C6  UNK     1      14.132   9.084   8.579  1.00  0.00     0.018 A 
ENDBRANCH   2  14
TORSDOF 4
ENDMDL
MODEL 3
REMARK VINA RESULT:      -8.4     22.693     24.811
REMARK  4 active torsions:
REMARK  status: ('A' for Active; 'I' for Inactive)
REMARK    1  A    between atoms: C14_20  and  N1_6 
REMARK    2  A    between atoms: C3_9  and  C8_14 
REMARK    3  A    between atoms: C10_16  and  C8_14 
REMARK    4  A    between atoms: C11_17  and  C9_15 
ROOT
HETATM    1  O3  UNK     1      12.924   7.201  10.613  1.00  0.00    -0.288 OA
HETATM    2  C8  UNK     1      13.941   6.998   9.933  1.00  0.00     0.182 C 
ENDROOT
BRANCH   2   3
HETATM    3  C10 UNK     1      14.271   5.614   9.447  1.00  0.00     0.056 C 
HETATM    4  C11 UNK     1      13.479   4.996   8.557  1.00  0.00     0.015 C 
BRANCH   4   5
HETATM    5  C9  UNK     1      12.254   5.579   7.984  1.00  0.00    -0.034 A 
HETATM    6  C12 UNK     1      11.026   5.387   8.616  1.00  0.00     0.047 A 
HETATM    7  C14 UNK     1       9.867   5.939   8.071  1.00  0.00     0.103 A 
HETATM    8  C16 UNK     1       9.936   6.684   6.894  1.00  0.00     0.036 A 
HETATM    9  C15 UNK     1      11.164   6.877   6.261  1.00  0.00     0.003 A 
HETATM   10  C13 UNK     1      12.323   6.325   6.806  1.00  0.00     0.011 A 
BRANCH   7  11
HETATM   11  N1  UNK     1       8.617   5.742   8.714  1.00  0.00    -0.116 N 
HETATM   12  O4  UNK     1       7.717   5.106   8.113  1.00  0.00    -0.532 OA
HETATM   13  O5  UNK     1       8.444   6.211   9.866  1.00  0.00    -0.532 OA
ENDBRANCH   7  11
ENDBRANCH   4   5
ENDBRANCH   2   3
BRANCH   2  14
HETATM   14  C3  UNK     1      14.856   8.083   9.616  1.00  0.00     0.017 A 
HETATM   15  C4  UNK     1      14.466   9.078   8.717  1.00  0.00     0.055 A 
HETATM   16  C1  UNK     1      15.368  10.088   8.448  1.00  0.00     0.105 A 
HETATM   17  O1  UNK     1      15.165  11.135   7.603  1.00  0.00    -0.323 OA
HETATM   18  C2  UNK     1      16.610  10.126   9.039  1.00  0.00     0.105 A 
HETATM   19  C7  UNK     1      16.419  11.837   7.728  1.00  0.00     0.352 A 
HETATM   20  O2  UNK     1      17.341  11.202   8.638  1.00  0.00    -0.323 OA
HETATM   21  C5  UNK     1      17.019   9.157   9.931  1.00  0.00     0.040 A 
HETATM   22  C6  UNK     1      16.125   8.122  10.220  1.00  0.00     0.018 A 
ENDBRANCH   2  14
TORSDOF 4
ENDMDL
MODEL 4
REMARK VINA RESULT:      -8.3      4.043      6.551
REMARK  4 active torsions:
REMARK  status: ('A' for Active; 'I' for Inactive)
REMARK    1  A    between atoms: C14_20  and  N1_6 
REMARK    2  A    between atoms: C3_9  and  C8_14 
REMARK    3  A    between atoms: C10_16  and  C8_14 
REMARK    4  A    between atoms: C11_17  and  C9_15 
ROOT
HETATM    1  O3  UNK     1      17.714  -1.607  32.398  1.00  0.00    -0.288 OA
HETATM    2  C8  UNK     1      18.678  -1.270  33.101  1.00  0.00     0.182 C 
ENDROOT
BRANCH   2   3
HETATM    3  C10 UNK     1      20.062  -1.768  32.788  1.00  0.00     0.056 C 
HETATM    4  C11 UNK     1      20.642  -1.477  31.614  1.00  0.00     0.015 C 
BRANCH   4   5
HETATM    5  C9  UNK     1      20.017  -0.674  30.549  1.00  0.00    -0.034 A 
HETATM    6  C12 UNK     1      19.473   0.576  30.845  1.00  0.00     0.047 A 
HETATM    7  C14 UNK     1      18.881   1.336  29.836  1.00  0.00     0.103 A 
HETATM    8  C16 UNK     1      18.833   0.846  28.531  1.00  0.00     0.036 A 
HETATM    9  C15 UNK     1      19.376  -0.404  28.235  1.00  0.00     0.003 A 
HETATM   10  C13 UNK     1      19.969  -1.164  29.244  1.00  0.00     0.011 A 
BRANCH   7  11
HETATM   11  N1  UNK     1      18.326   2.608  30.137  1.00  0.00    -0.116 N 
HETATM   12  O4  UNK     1      17.240   2.665  30.761  1.00  0.00    -0.532 OA
HETATM   13  O5  UNK     1      18.938   3.640  29.770  1.00  0.00    -0.532 OA
ENDBRANCH   7  11
ENDBRANCH   4   5
ENDBRANCH   2   3
BRANCH   2  14
HETATM   14  C3  UNK     1      18.493  -0.414  34.262  1.00  0.00     0.017 A 
HETATM   15  C4  UNK     1      18.298  -0.987  35.521  1.00  0.00     0.055 A 
HETATM   16  C1  UNK     1      18.128  -0.135  36.593  1.00  0.00     0.105 A 
HETATM   17  O1  UNK     1      17.926  -0.509  37.886  1.00  0.00    -0.323 OA
HETATM   18  C2  UNK     1      18.147   1.233  36.441  1.00  0.00     0.105 A 
HETATM   19  C7  UNK     1      17.820   0.778  38.531  1.00  0.00     0.352 A 
HETATM   20  O2  UNK     1      17.960   1.887  37.620  1.00  0.00    -0.323 OA
HETATM   21  C5  UNK     1      18.339   1.824  35.209  1.00  0.00     0.040 A 
HETATM   22  C6  UNK     1      18.513   0.983  34.107  1.00  0.00     0.018 A 
ENDBRANCH   2  14
TORSDOF 4
ENDMDL
MODEL 5
REMARK VINA RESULT:      -8.3      4.364      7.058
REMARK  4 active torsions:
REMARK  status: ('A' for Active; 'I' for Inactive)
REMARK    1  A    between atoms: C14_20  and  N1_6 
REMARK    2  A    between atoms: C3_9  and  C8_14 
REMARK    3  A    between atoms: C10_16  and  C8_14 
REMARK    4  A    between atoms: C11_17  and  C9_15 
ROOT
HETATM    1  O3  UNK     1      16.627   1.134  34.091  1.00  0.00    -0.288 OA
HETATM    2  C8  UNK     1      17.779   1.521  33.844  1.00  0.00     0.182 C 
ENDROOT
BRANCH   2   3
HETATM    3  C10 UNK     1      18.557   2.304  34.865  1.00  0.00     0.056 C 
HETATM    4  C11 UNK     1      19.004   1.712  35.983  1.00  0.00     0.015 C 
BRANCH   4   5
HETATM    5  C9  UNK     1      18.793   0.294  36.319  1.00  0.00    -0.034 A 
HETATM    6  C12 UNK     1      19.568  -0.692  35.709  1.00  0.00     0.047 A 
HETATM    7  C14 UNK     1      19.367  -2.035  36.028  1.00  0.00     0.103 A 
HETATM    8  C16 UNK     1      18.390  -2.391  36.958  1.00  0.00     0.036 A 
HETATM    9  C15 UNK     1      17.614  -1.406  37.568  1.00  0.00     0.003 A 
HETATM   10  C13 UNK     1      17.815  -0.063  37.249  1.00  0.00     0.011 A 
BRANCH   7  11
HETATM   11  N1  UNK     1      20.155  -3.038  35.407  1.00  0.00    -0.116 N 
HETATM   12  O4  UNK     1      20.489  -4.049  36.071  1.00  0.00    -0.532 OA
HETATM   13  O5  UNK     1      20.498  -2.887  34.208  1.00  0.00    -0.532 OA
ENDBRANCH   7  11
ENDBRANCH   4   5
ENDBRANCH   2   3
BRANCH   2  14
HETATM   14  C3  UNK     1      18.395   1.256  32.553  1.00  0.00     0.017 A 
HETATM   15  C4  UNK     1      18.998   0.019  32.314  1.00  0.00     0.055 A 
HETATM   16  C1  UNK     1      19.569  -0.185  31.073  1.00  0.00     0.105 A 
HETATM   17  O1  UNK     1      20.199  -1.320  30.662  1.00  0.00    -0.323 OA
HETATM   18  C2  UNK     1      19.550   0.785  30.098  1.00  0.00     0.105 A 
HETATM   19  C7  UNK     1      20.575  -0.954  29.318  1.00  0.00     0.352 A 
HETATM   20  O2  UNK     1      20.166   0.381  28.954  1.00  0.00    -0.323 OA
HETATM   21  C5  UNK     1      18.959   2.014  30.309  1.00  0.00     0.040 A 
HETATM   22  C6  UNK     1      18.375   2.248  31.556  1.00  0.00     0.018 A 
ENDBRANCH   2  14
TORSDOF 4
ENDMDL
MODEL 6
REMARK VINA RESULT:      -8.3     22.770     24.693
REMARK  4 active torsions:
REMARK  status: ('A' for Active; 'I' for Inactive)
REMARK    1  A    between atoms: C14_20  and  N1_6 
REMARK    2  A    between atoms: C3_9  and  C8_14 
REMARK    3  A    between atoms: C10_16  and  C8_14 
REMARK    4  A    between atoms: C11_17  and  C9_15 
ROOT
HETATM    1  O3  UNK     1      11.915   4.422   8.173  1.00  0.00    -0.288 OA
HETATM    2  C8  UNK     1      12.110   5.556   7.711  1.00  0.00     0.182 C 
ENDROOT
BRANCH   2   3
HETATM    3  C10 UNK     1      11.454   5.979   6.425  1.00  0.00     0.056 C 
HETATM    4  C11 UNK     1      10.189   6.426   6.420  1.00  0.00     0.015 C 
BRANCH   4   5
HETATM    5  C9  UNK     1       9.341   6.546   7.618  1.00  0.00    -0.034 A 
HETATM    6  C12 UNK     1       8.473   5.512   7.966  1.00  0.00     0.047 A 
HETATM    7  C14 UNK     1       7.670   5.628   9.101  1.00  0.00     0.103 A 
HETATM    8  C16 UNK     1       7.735   6.778   9.887  1.00  0.00     0.036 A 
HETATM    9  C15 UNK     1       8.602   7.813   9.539  1.00  0.00     0.003 A 
HETATM   10  C13 UNK     1       9.406   7.697   8.405  1.00  0.00     0.011 A 
BRANCH   7  11
HETATM   11  N1  UNK     1       6.785   4.575   9.455  1.00  0.00    -0.116 N 
HETATM   12  O4  UNK     1       5.757   4.843  10.122  1.00  0.00    -0.532 OA
HETATM   13  O5  UNK     1       7.057   3.404   9.094  1.00  0.00    -0.532 OA
ENDBRANCH   7  11
ENDBRANCH   4   5
ENDBRANCH   2   3
BRANCH   2  14
HETATM   14  C3  UNK     1      13.001   6.492   8.378  1.00  0.00     0.017 A 
HETATM   15  C4  UNK     1      13.660   6.107   9.548  1.00  0.00     0.055 A 
HETATM   16  C1  UNK     1      14.495   7.029  10.145  1.00  0.00     0.105 A 
HETATM   17  O1  UNK     1      15.215   6.834  11.284  1.00  0.00    -0.323 OA
HETATM   18  C2  UNK     1      14.682   8.287   9.617  1.00  0.00     0.105 A 
HETATM   19  C7  UNK     1      15.876   8.110  11.413  1.00  0.00     0.352 A 
HETATM   20  O2  UNK     1      15.542   9.036  10.359  1.00  0.00    -0.323 OA
HETATM   21  C5  UNK     1      14.044   8.691   8.463  1.00  0.00     0.040 A 
HETATM   22  C6  UNK     1      13.191   7.777   7.839  1.00  0.00     0.018 A 
ENDBRANCH   2  14
TORSDOF 4
ENDMDL
MODEL 7
REMARK VINA RESULT:      -8.2      3.245      8.475
REMARK  4 active torsions:
REMARK  status: ('A' for Active; 'I' for Inactive)
REMARK    1  A    between atoms: C14_20  and  N1_6 
REMARK    2  A    between atoms: C3_9  and  C8_14 
REMARK    3  A    between atoms: C10_16  and  C8_14 
REMARK    4  A    between atoms: C11_17  and  C9_15 
ROOT
HETATM    1  O3  UNK     1      15.976   6.430  32.364  1.00  0.00    -0.288 OA
HETATM    2  C8  UNK     1      16.640   6.875  33.313  1.00  0.00     0.182 C 
ENDROOT
BRANCH   2   3
HETATM    3  C10 UNK     1      17.421   5.946  34.200  1.00  0.00     0.056 C 
HETATM    4  C11 UNK     1      18.312   5.091  33.676  1.00  0.00     0.015 C 
BRANCH   4   5
HETATM    5  C9  UNK     1      18.610   4.972  32.238  1.00  0.00    -0.034 A 
HETATM    6  C12 UNK     1      18.265   3.811  31.547  1.00  0.00     0.047 A 
HETATM    7  C14 UNK     1      18.548   3.700  30.185  1.00  0.00     0.103 A 
HETATM    8  C16 UNK     1      19.175   4.750  29.516  1.00  0.00     0.036 A 
HETATM    9  C15 UNK     1      19.521   5.911  30.206  1.00  0.00     0.003 A 
HETATM   10  C13 UNK     1      19.238   6.022  31.568  1.00  0.00     0.011 A 
BRANCH   7  11
HETATM   11  N1  UNK     1      18.197   2.518  29.481  1.00  0.00    -0.116 N 
HETATM   12  O4  UNK     1      18.079   1.443  30.117  1.00  0.00    -0.532 OA
HETATM   13  O5  UNK     1      18.017   2.580  28.240  1.00  0.00    -0.532 OA
ENDBRANCH   7  11
ENDBRANCH   4   5
ENDBRANCH   2   3
BRANCH   2  14
HETATM   14  C3  UNK     1      16.653   8.298  33.612  1.00  0.00     0.017 A 
HETATM   15  C4  UNK     1      17.835   9.028  33.456  1.00  0.00     0.055 A 
HETATM   16  C1  UNK     1      17.798  10.376  33.751  1.00  0.00     0.105 A 
HETATM   17  O1  UNK     1      18.845  11.241  33.661  1.00  0.00    -0.323 OA
HETATM   18  C2  UNK     1      16.647  10.992  34.184  1.00  0.00     0.105 A 
HETATM   19  C7  UNK     1      18.223  12.471  34.085  1.00  0.00     0.352 A 
HETATM   20  O2  UNK     1      16.827  12.320  34.419  1.00  0.00    -0.323 OA
HETATM   21  C5  UNK     1      15.467  10.294  34.345  1.00  0.00     0.040 A 
HETATM   22  C6  UNK     1      15.476   8.928  34.054  1.00  0.00     0.018 A 
ENDBRANCH   2  14
TORSDOF 4
ENDMDL
MODEL 8
REMARK VINA RESULT:      -8.2     14.972     16.623
REMARK  4 active torsions:
REMARK  status: ('A' for Active; 'I' for Inactive)
REMARK    1  A    between atoms: C14_20  and  N1_6 
REMARK    2  A    between atoms: C3_9  and  C8_14 
REMARK    3  A    between atoms: C10_16  and  C8_14 
REMARK    4  A    between atoms: C11_17  and  C9_15 
ROOT
HETATM    1  O3  UNK     1      30.836  -8.614  35.459  1.00  0.00    -0.288 OA
HETATM    2  C8  UNK     1      30.851  -8.673  36.698  1.00  0.00     0.182 C 
ENDROOT
BRANCH   2   3
HETATM    3  C10 UNK     1      32.154  -8.658  37.447  1.00  0.00     0.056 C 
HETATM    4  C11 UNK     1      32.669  -7.504  37.898  1.00  0.00     0.015 C 
BRANCH   4   5
HETATM    5  C9  UNK     1      32.043  -6.184  37.717  1.00  0.00    -0.034 A 
HETATM    6  C12 UNK     1      30.974  -5.800  38.527  1.00  0.00     0.047 A 
HETATM    7  C14 UNK     1      30.382  -4.549  38.355  1.00  0.00     0.103 A 
HETATM    8  C16 UNK     1      30.859  -3.681  37.372  1.00  0.00     0.036 A 
HETATM    9  C15 UNK     1      31.927  -4.064  36.562  1.00  0.00     0.003 A 
HETATM   10  C13 UNK     1      32.519  -5.315  36.734  1.00  0.00     0.011 A 
BRANCH   7  11
HETATM   11  N1  UNK     1      29.293  -4.159  39.179  1.00  0.00    -0.116 N 
HETATM   12  O4  UNK     1      29.520  -3.464  40.198  1.00  0.00    -0.532 OA
HETATM   13  O5  UNK     1      28.133  -4.522  38.865  1.00  0.00    -0.532 OA
ENDBRANCH   7  11
ENDBRANCH   4   5
ENDBRANCH   2   3
BRANCH   2  14
HETATM   14  C3  UNK     1      29.614  -8.792  37.454  1.00  0.00     0.017 A 
HETATM   15  C4  UNK     1      28.492  -8.055  37.068  1.00  0.00     0.055 A 
HETATM   16  C1  UNK     1      27.342  -8.202  37.816  1.00  0.00     0.105 A 
HETATM   17  O1  UNK     1      26.158  -7.568  37.592  1.00  0.00    -0.323 OA
HETATM   18  C2  UNK     1      27.288  -9.041  38.906  1.00  0.00     0.105 A 
HETATM   19  C7  UNK     1      25.353  -8.102  38.664  1.00  0.00     0.352 A 
HETATM   20  O2  UNK     1      26.064  -9.037  39.501  1.00  0.00    -0.323 OA
HETATM   21  C5  UNK     1      28.381  -9.780  39.307  1.00  0.00     0.040 A 
HETATM   22  C6  UNK     1      29.559  -9.649  38.567  1.00  0.00     0.018 A 
ENDBRANCH   2  14
TORSDOF 4
ENDMDL
MODEL 9
REMARK VINA RESULT:      -8.1      2.463      3.957
REMARK  4 active torsions:
REMARK  status: ('A' for Active; 'I' for Inactive)
REMARK    1  A    between atoms: C14_20  and  N1_6 
REMARK    2  A    between atoms: C3_9  and  C8_14 
REMARK    3  A    between atoms: C10_16  and  C8_14 
REMARK    4  A    between atoms: C11_17  and  C9_15 
ROOT
HETATM    1  O3  UNK     1      18.574   7.176  30.799  1.00  0.00    -0.288 OA
HETATM    2  C8  UNK     1      19.163   6.232  31.347  1.00  0.00     0.182 C 
ENDROOT
BRANCH   2   3
HETATM    3  C10 UNK     1      20.254   6.492  32.348  1.00  0.00     0.056 C 
HETATM    4  C11 UNK     1      19.990   7.142  33.492  1.00  0.00     0.015 C 
BRANCH   4   5
HETATM    5  C9  UNK     1      18.662   7.650  33.876  1.00  0.00    -0.034 A 
HETATM    6  C12 UNK     1      18.396   9.018  33.827  1.00  0.00     0.047 A 
HETATM    7  C14 UNK     1      17.138   9.498  34.192  1.00  0.00     0.103 A 
HETATM    8  C16 UNK     1      16.145   8.609  34.604  1.00  0.00     0.036 A 
HETATM    9  C15 UNK     1      16.410   7.240  34.653  1.00  0.00     0.003 A 
HETATM   10  C13 UNK     1      17.668   6.761  34.288  1.00  0.00     0.011 A 
BRANCH   7  11
HETATM   11  N1  UNK     1      16.867  10.891  34.144  1.00  0.00    -0.116 N 
HETATM   12  O4  UNK     1      15.755  11.309  34.546  1.00  0.00    -0.532 OA
HETATM   13  O5  UNK     1      17.749  11.666  33.698  1.00  0.00    -0.532 OA
ENDBRANCH   7  11
ENDBRANCH   4   5
ENDBRANCH   2   3
BRANCH   2  14
HETATM   14  C3  UNK     1      18.839   4.854  31.012  1.00  0.00     0.017 A 
HETATM   15  C4  UNK     1      18.737   4.472  29.672  1.00  0.00     0.055 A 
HETATM   16  C1  UNK     1      18.429   3.154  29.404  1.00  0.00     0.105 A 
HETATM   17  O1  UNK     1      18.287   2.603  28.168  1.00  0.00    -0.323 OA
HETATM   18  C2  UNK     1      18.228   2.238  30.411  1.00  0.00     0.105 A 
HETATM   19  C7  UNK     1      17.974   1.236  28.509  1.00  0.00     0.352 A 
HETATM   20  O2  UNK     1      17.935   0.998  29.932  1.00  0.00    -0.323 OA
HETATM   21  C5  UNK     1      18.324   2.589  31.742  1.00  0.00     0.040 A 
HETATM   22  C6  UNK     1      18.634   3.918  32.041  1.00  0.00     0.018 A 
ENDBRANCH   2  14
TORSDOF 4
ENDMDL
MODEL 10
REMARK VINA RESULT:      -8.1      2.836      5.123
REMARK  4 active torsions:
REMARK  status: ('A' for Active; 'I' for Inactive)
REMARK    1  A    between atoms: C14_20  and  N1_6 
REMARK    2  A    between atoms: C3_9  and  C8_14 
REMARK    3  A    between atoms: C10_16  and  C8_14 
REMARK    4  A    between atoms: C11_17  and  C9_15 
ROOT
HETATM    1  O3  UNK     1      18.313   6.496  34.850  1.00  0.00    -0.288 OA
HETATM    2  C8  UNK     1      18.794   6.871  33.769  1.00  0.00     0.182 C 
ENDROOT
BRANCH   2   3
HETATM    3  C10 UNK     1      19.302   8.276  33.606  1.00  0.00     0.056 C 
HETATM    4  C11 UNK     1      18.451   9.313  33.600  1.00  0.00     0.015 C 
BRANCH   4   5
HETATM    5  C9  UNK     1      16.990   9.195  33.745  1.00  0.00    -0.034 A 
HETATM    6  C12 UNK     1      16.274   8.329  32.919  1.00  0.00     0.047 A 
HETATM    7  C14 UNK     1      14.890   8.218  33.057  1.00  0.00     0.103 A 
HETATM    8  C16 UNK     1      14.223   8.973  34.022  1.00  0.00     0.036 A 
HETATM    9  C15 UNK     1      14.939   9.839  34.848  1.00  0.00     0.003 A 
HETATM   10  C13 UNK     1      16.322   9.950  34.710  1.00  0.00     0.011 A 
BRANCH   7  11
HETATM   11  N1  UNK     1      14.160   7.338  32.215  1.00  0.00    -0.116 N 
HETATM   12  O4  UNK     1      14.638   7.029  31.097  1.00  0.00    -0.532 OA
HETATM   13  O5  UNK     1      13.055   6.894  32.612  1.00  0.00    -0.532 OA
ENDBRANCH   7  11
ENDBRANCH   4   5
ENDBRANCH   2   3
BRANCH   2  14
HETATM   14  C3  UNK     1      18.850   5.973  32.626  1.00  0.00     0.017 A 
HETATM   15  C4  UNK     1      18.105   4.791  32.636  1.00  0.00     0.055 A 
HETATM   16  C1  UNK     1      18.189   3.972  31.528  1.00  0.00     0.105 A 
HETATM   17  O1  UNK     1      17.540   2.788  31.361  1.00  0.00    -0.323 OA
HETATM   18  C2  UNK     1      18.973   4.297  30.445  1.00  0.00     0.105 A 
HETATM   19  C7  UNK     1      18.004   2.403  30.050  1.00  0.00     0.352 A 
HETATM   20  O2  UNK     1      18.914   3.357  29.463  1.00  0.00    -0.323 OA
HETATM   21  C5  UNK     1      19.716   5.459  30.410  1.00  0.00     0.040 A 
HETATM   22  C6  UNK     1      19.650   6.306  31.519  1.00  0.00     0.018 A 
ENDBRANCH   2  14
TORSDOF 4
ENDMDL
