MODEL 1
REMARK VINA RESULT:     -10.0      0.000      0.000
REMARK  5 active torsions:
REMARK  status: ('A' for Active; 'I' for Inactive)
REMARK    1  A    between atoms: C13_18  and  O2_3 
REMARK    2  A    between atoms: C7_12  and  O2_3 
REMARK    3  A    between atoms: C2_7  and  C4_9 
REMARK    4  A    between atoms: C13_18  and  C16_21 
REMARK    5  A    between atoms: C16_21  and  C17_22 
ROOT
HETATM    1  O1  UNK     1      20.362   7.824  33.505  1.00  0.00    -0.275 OA
HETATM    2  O3  UNK     1      20.947   9.644  34.759  1.00  0.00    -0.260 OA
HETATM    3  C1  UNK     1      18.020   7.492  32.913  1.00  0.00     0.009 A 
HETATM    4  C2  UNK     1      17.673   8.723  33.641  1.00  0.00    -0.007 A 
HETATM    5  C3  UNK     1      19.350   7.081  32.868  1.00  0.00     0.093 A 
HETATM    6  C5  UNK     1      17.066   6.706  32.255  1.00  0.00     0.018 A 
HETATM    7  C6  UNK     1      19.747   5.924  32.196  1.00  0.00     0.075 A 
HETATM    8  C7  UNK     1      18.786   5.153  31.548  1.00  0.00     0.072 A 
HETATM    9  C8  UNK     1      18.661   9.408  34.238  1.00  0.00     0.095 A 
HETATM   10  C9  UNK     1      17.448   5.544  31.576  1.00  0.00     0.038 A 
HETATM   11  C10 UNK     1      20.074   8.989  34.200  1.00  0.00     0.289 A 
ENDROOT
BRANCH   8  12
HETATM   12  O2  UNK     1      19.152   4.021  30.888  1.00  0.00    -0.344 OA
BRANCH  12  13
HETATM   13  C13 UNK     1      18.173   2.988  30.777  1.00  0.00     0.259 C 
BRANCH  13  14
HETATM   14  C16 UNK     1      18.450   2.139  29.552  1.00  0.00     0.183 C 
HETATM   15  O4  UNK     1      18.132   2.510  28.424  1.00  0.00    -0.290 OA
BRANCH  14  16
HETATM   16  C17 UNK     1      19.124   0.821  29.731  1.00  0.00     0.012 A 
HETATM   17  C19 UNK     1      19.391   0.385  31.008  1.00  0.00     0.018 A 
HETATM   18  C21 UNK     1      20.022  -0.849  31.175  1.00  0.00     0.043 A 
HETATM   19  C23 UNK     1      20.369  -1.611  30.060  1.00  0.00     0.116 A 
HETATM   20  C22 UNK     1      20.086  -1.141  28.777  1.00  0.00     0.043 A 
HETATM   21  F1  UNK     1      20.976  -2.795  30.220  1.00  0.00    -0.206 F 
HETATM   22  C20 UNK     1      19.455   0.092  28.611  1.00  0.00     0.018 A 
ENDBRANCH  14  16
ENDBRANCH  13  14
ENDBRANCH  12  13
ENDBRANCH   8  12
BRANCH   4  23
HETATM   23  C4  UNK     1      16.335   9.290  33.784  1.00  0.00    -0.025 A 
HETATM   24  C11 UNK     1      15.909   9.751  35.027  1.00  0.00     0.012 A 
HETATM   25  C14 UNK     1      14.631  10.293  35.165  1.00  0.00     0.001 A 
HETATM   26  C18 UNK     1      13.784  10.373  34.059  1.00  0.00     0.000 A 
HETATM   27  C15 UNK     1      14.215   9.910  32.816  1.00  0.00     0.001 A 
HETATM   28  C12 UNK     1      15.493   9.367  32.678  1.00  0.00     0.012 A 
ENDBRANCH   4  23
TORSDOF 5
ENDMDL
MODEL 2
REMARK VINA RESULT:      -9.6      4.099      8.034
REMARK  5 active torsions:
REMARK  status: ('A' for Active; 'I' for Inactive)
REMARK    1  A    between atoms: C13_18  and  O2_3 
REMARK    2  A    between atoms: C7_12  and  O2_3 
REMARK    3  A    between atoms: C2_7  and  C4_9 
REMARK    4  A    between atoms: C13_18  and  C16_21 
REMARK    5  A    between atoms: C16_21  and  C17_22 
ROOT
HETATM    1  O1  UNK     1      19.578  -0.484  31.322  1.00  0.00    -0.275 OA
HETATM    2  O3  UNK     1      19.935  -2.534  32.270  1.00  0.00    -0.260 OA
HETATM    3  C1  UNK     1      18.462   1.249  32.625  1.00  0.00     0.009 A 
HETATM    4  C2  UNK     1      18.353   0.313  33.755  1.00  0.00    -0.007 A 
HETATM    5  C3  UNK     1      19.068   0.822  31.445  1.00  0.00     0.093 A 
HETATM    6  C5  UNK     1      17.979   2.563  32.678  1.00  0.00     0.018 A 
HETATM    7  C6  UNK     1      19.203   1.658  30.336  1.00  0.00     0.075 A 
HETATM    8  C7  UNK     1      18.717   2.960  30.405  1.00  0.00     0.072 A 
HETATM    9  C8  UNK     1      18.849  -0.926  33.605  1.00  0.00     0.095 A 
HETATM   10  C9  UNK     1      18.107   3.412  31.575  1.00  0.00     0.038 A 
HETATM   11  C10 UNK     1      19.495  -1.394  32.366  1.00  0.00     0.289 A 
ENDROOT
BRANCH   8  12
HETATM   12  O2  UNK     1      18.837   3.791  29.334  1.00  0.00    -0.344 OA
BRANCH  12  13
HETATM   13  C13 UNK     1      18.434   5.148  29.515  1.00  0.00     0.259 C 
BRANCH  13  14
HETATM   14  C16 UNK     1      19.545   5.936  30.179  1.00  0.00     0.183 C 
HETATM   15  O4  UNK     1      20.607   6.166  29.603  1.00  0.00    -0.290 OA
BRANCH  14  16
HETATM   16  C17 UNK     1      19.337   6.439  31.568  1.00  0.00     0.012 A 
HETATM   17  C19 UNK     1      18.119   6.987  31.895  1.00  0.00     0.018 A 
HETATM   18  C21 UNK     1      17.925   7.458  33.195  1.00  0.00     0.043 A 
HETATM   19  C23 UNK     1      18.955   7.367  34.131  1.00  0.00     0.116 A 
HETATM   20  C22 UNK     1      20.180   6.807  33.768  1.00  0.00     0.043 A 
HETATM   21  F1  UNK     1      18.769   7.820  35.377  1.00  0.00    -0.206 F 
HETATM   22  C20 UNK     1      20.374   6.335  32.469  1.00  0.00     0.018 A 
ENDBRANCH  14  16
ENDBRANCH  13  14
ENDBRANCH  12  13
ENDBRANCH   8  12
BRANCH   4  23
HETATM   23  C4  UNK     1      17.750   0.599  35.054  1.00  0.00    -0.025 A 
HETATM   24  C11 UNK     1      16.408   0.300  35.274  1.00  0.00     0.012 A 
HETATM   25  C14 UNK     1      15.830   0.574  36.514  1.00  0.00     0.001 A 
HETATM   26  C18 UNK     1      16.597   1.144  37.530  1.00  0.00     0.000 A 
HETATM   27  C15 UNK     1      17.942   1.440  37.306  1.00  0.00     0.001 A 
HETATM   28  C12 UNK     1      18.519   1.168  36.065  1.00  0.00     0.012 A 
ENDBRANCH   4  23
TORSDOF 5
ENDMDL
MODEL 3
REMARK VINA RESULT:      -9.6      7.251     10.709
REMARK  5 active torsions:
REMARK  status: ('A' for Active; 'I' for Inactive)
REMARK    1  A    between atoms: C13_18  and  O2_3 
REMARK    2  A    between atoms: C7_12  and  O2_3 
REMARK    3  A    between atoms: C2_7  and  C4_9 
REMARK    4  A    between atoms: C13_18  and  C16_21 
REMARK    5  A    between atoms: C16_21  and  C17_22 
ROOT
HETATM    1  O1  UNK     1      17.231  -0.744  35.723  1.00  0.00    -0.275 OA
HETATM    2  O3  UNK     1      15.742   0.632  34.666  1.00  0.00    -0.260 OA
HETATM    3  C1  UNK     1      19.136  -1.615  34.474  1.00  0.00     0.009 A 
HETATM    4  C2  UNK     1      18.671  -0.892  33.281  1.00  0.00    -0.007 A 
HETATM    5  C3  UNK     1      18.403  -1.521  35.656  1.00  0.00     0.093 A 
HETATM    6  C5  UNK     1      20.294  -2.404  34.480  1.00  0.00     0.018 A 
HETATM    7  C6  UNK     1      18.788  -2.182  36.823  1.00  0.00     0.075 A 
HETATM    8  C7  UNK     1      19.940  -2.963  36.811  1.00  0.00     0.072 A 
HETATM    9  C8  UNK     1      17.549  -0.160  33.378  1.00  0.00     0.095 A 
HETATM   10  C9  UNK     1      20.692  -3.073  35.642  1.00  0.00     0.038 A 
HETATM   11  C10 UNK     1      16.762  -0.047  34.619  1.00  0.00     0.289 A 
ENDROOT
BRANCH   8  12
HETATM   12  O2  UNK     1      20.332  -3.617  37.938  1.00  0.00    -0.344 OA
BRANCH  12  13
HETATM   13  C13 UNK     1      21.366  -4.590  37.798  1.00  0.00     0.259 C 
BRANCH  13  14
HETATM   14  C16 UNK     1      20.816  -5.976  38.071  1.00  0.00     0.183 C 
HETATM   15  O4  UNK     1      20.170  -6.226  39.087  1.00  0.00    -0.290 OA
BRANCH  14  16
HETATM   16  C17 UNK     1      21.072  -7.058  37.078  1.00  0.00     0.012 A 
HETATM   17  C19 UNK     1      20.477  -6.973  35.840  1.00  0.00     0.018 A 
HETATM   18  C21 UNK     1      20.717  -7.985  34.911  1.00  0.00     0.043 A 
HETATM   19  C23 UNK     1      21.546  -9.056  35.244  1.00  0.00     0.116 A 
HETATM   20  C22 UNK     1      22.135  -9.116  36.507  1.00  0.00     0.043 A 
HETATM   21  F1  UNK     1      21.775 -10.029  34.353  1.00  0.00    -0.206 F 
HETATM   22  C20 UNK     1      21.896  -8.103  37.437  1.00  0.00     0.018 A 
ENDBRANCH  14  16
ENDBRANCH  13  14
ENDBRANCH  12  13
ENDBRANCH   8  12
BRANCH   4  23
HETATM   23  C4  UNK     1      19.318  -0.884  31.972  1.00  0.00    -0.025 A 
HETATM   24  C11 UNK     1      19.778  -2.078  31.421  1.00  0.00     0.012 A 
HETATM   25  C14 UNK     1      20.397  -2.072  30.172  1.00  0.00     0.001 A 
HETATM   26  C18 UNK     1      20.554  -0.872  29.476  1.00  0.00     0.000 A 
HETATM   27  C15 UNK     1      20.091   0.321  30.031  1.00  0.00     0.001 A 
HETATM   28  C12 UNK     1      19.473   0.315  31.282  1.00  0.00     0.012 A 
ENDBRANCH   4  23
TORSDOF 5
ENDMDL
MODEL 4
REMARK VINA RESULT:      -9.6      5.088     10.098
REMARK  5 active torsions:
REMARK  status: ('A' for Active; 'I' for Inactive)
REMARK    1  A    between atoms: C13_18  and  O2_3 
REMARK    2  A    between atoms: C7_12  and  O2_3 
REMARK    3  A    between atoms: C2_7  and  C4_9 
REMARK    4  A    between atoms: C13_18  and  C16_21 
REMARK    5  A    between atoms: C16_21  and  C17_22 
ROOT
HETATM    1  O1  UNK     1      17.855   0.138  35.816  1.00  0.00    -0.275 OA
HETATM    2  O3  UNK     1      17.361   0.189  38.048  1.00  0.00    -0.260 OA
HETATM    3  C1  UNK     1      19.123  -1.744  34.923  1.00  0.00     0.009 A 
HETATM    4  C2  UNK     1      19.180  -2.331  36.271  1.00  0.00    -0.007 A 
HETATM    5  C3  UNK     1      18.464  -0.530  34.737  1.00  0.00     0.093 A 
HETATM    6  C5  UNK     1      19.704  -2.355  33.804  1.00  0.00     0.018 A 
HETATM    7  C6  UNK     1      18.374   0.081  33.486  1.00  0.00     0.075 A 
HETATM    8  C7  UNK     1      18.958  -0.539  32.385  1.00  0.00     0.072 A 
HETATM    9  C8  UNK     1      18.590  -1.668  37.279  1.00  0.00     0.095 A 
HETATM   10  C9  UNK     1      19.621  -1.755  32.544  1.00  0.00     0.038 A 
HETATM   11  C10 UNK     1      17.888  -0.384  37.101  1.00  0.00     0.289 A 
ENDROOT
BRANCH   8  12
HETATM   12  O2  UNK     1      18.882   0.041  31.156  1.00  0.00    -0.344 OA
BRANCH  12  13
HETATM   13  C13 UNK     1      19.492   1.322  31.003  1.00  0.00     0.259 C 
BRANCH  13  14
HETATM   14  C16 UNK     1      18.459   2.340  30.561  1.00  0.00     0.183 C 
HETATM   15  O4  UNK     1      17.547   2.042  29.792  1.00  0.00    -0.290 OA
BRANCH  14  16
HETATM   16  C17 UNK     1      18.561   3.736  31.076  1.00  0.00     0.012 A 
HETATM   17  C19 UNK     1      19.098   4.703  30.258  1.00  0.00     0.018 A 
HETATM   18  C21 UNK     1      19.193   6.009  30.740  1.00  0.00     0.043 A 
HETATM   19  C23 UNK     1      18.749   6.312  32.027  1.00  0.00     0.116 A 
HETATM   20  C22 UNK     1      18.211   5.309  32.833  1.00  0.00     0.043 A 
HETATM   21  F1  UNK     1      18.842   7.565  32.490  1.00  0.00    -0.206 F 
HETATM   22  C20 UNK     1      18.115   4.003  32.351  1.00  0.00     0.018 A 
ENDBRANCH  14  16
ENDBRANCH  13  14
ENDBRANCH  12  13
ENDBRANCH   8  12
BRANCH   4  23
HETATM   23  C4  UNK     1      19.827  -3.589  36.636  1.00  0.00    -0.025 A 
HETATM   24  C11 UNK     1      19.353  -4.787  36.108  1.00  0.00     0.012 A 
HETATM   25  C14 UNK     1      19.969  -5.989  36.456  1.00  0.00     0.001 A 
HETATM   26  C18 UNK     1      21.057  -5.989  37.330  1.00  0.00     0.000 A 
HETATM   27  C15 UNK     1      21.528  -4.785  37.855  1.00  0.00     0.001 A 
HETATM   28  C12 UNK     1      20.911  -3.583  37.508  1.00  0.00     0.012 A 
ENDBRANCH   4  23
TORSDOF 5
ENDMDL
MODEL 5
REMARK VINA RESULT:      -9.4      8.144     13.441
REMARK  5 active torsions:
REMARK  status: ('A' for Active; 'I' for Inactive)
REMARK    1  A    between atoms: C13_18  and  O2_3 
REMARK    2  A    between atoms: C7_12  and  O2_3 
REMARK    3  A    between atoms: C2_7  and  C4_9 
REMARK    4  A    between atoms: C13_18  and  C16_21 
REMARK    5  A    between atoms: C16_21  and  C17_22 
ROOT
HETATM    1  O1  UNK     1      22.516  -4.703  38.181  1.00  0.00    -0.275 OA
HETATM    2  O3  UNK     1      24.301  -5.748  39.154  1.00  0.00    -0.260 OA
HETATM    3  C1  UNK     1      20.578  -6.027  37.523  1.00  0.00     0.009 A 
HETATM    4  C2  UNK     1      21.250  -7.238  38.021  1.00  0.00    -0.007 A 
HETATM    5  C3  UNK     1      21.231  -4.800  37.617  1.00  0.00     0.093 A 
HETATM    6  C5  UNK     1      19.299  -6.050  36.953  1.00  0.00     0.018 A 
HETATM    7  C6  UNK     1      20.650  -3.614  37.163  1.00  0.00     0.075 A 
HETATM    8  C7  UNK     1      19.379  -3.655  36.598  1.00  0.00     0.072 A 
HETATM    9  C8  UNK     1      22.477  -7.111  38.553  1.00  0.00     0.095 A 
HETATM   10  C9  UNK     1      18.704  -4.870  36.494  1.00  0.00     0.038 A 
HETATM   11  C10 UNK     1      23.181  -5.820  38.661  1.00  0.00     0.289 A 
ENDROOT
BRANCH   8  12
HETATM   12  O2  UNK     1      18.796  -2.510  36.148  1.00  0.00    -0.344 OA
BRANCH  12  13
HETATM   13  C13 UNK     1      19.561  -1.697  35.260  1.00  0.00     0.259 C 
BRANCH  13  14
HETATM   14  C16 UNK     1      18.679  -1.172  34.145  1.00  0.00     0.183 C 
HETATM   15  O4  UNK     1      17.497  -0.889  34.335  1.00  0.00    -0.290 OA
BRANCH  14  16
HETATM   16  C17 UNK     1      19.267  -1.001  32.785  1.00  0.00     0.012 A 
HETATM   17  C19 UNK     1      20.033  -2.017  32.265  1.00  0.00     0.018 A 
HETATM   18  C21 UNK     1      20.584  -1.857  30.992  1.00  0.00     0.043 A 
HETATM   19  C23 UNK     1      20.352  -0.683  30.276  1.00  0.00     0.116 A 
HETATM   20  C22 UNK     1      19.572   0.331  30.831  1.00  0.00     0.043 A 
HETATM   21  F1  UNK     1      20.882  -0.528  29.055  1.00  0.00    -0.206 F 
HETATM   22  C20 UNK     1      19.021   0.170  32.102  1.00  0.00     0.018 A 
ENDBRANCH  14  16
ENDBRANCH  13  14
ENDBRANCH  12  13
ENDBRANCH   8  12
BRANCH   4  23
HETATM   23  C4  UNK     1      20.709  -8.594  37.998  1.00  0.00    -0.025 A 
HETATM   24  C11 UNK     1      19.955  -9.055  39.075  1.00  0.00     0.012 A 
HETATM   25  C14 UNK     1      19.439 -10.351  39.054  1.00  0.00     0.001 A 
HETATM   26  C18 UNK     1      19.676 -11.180  37.958  1.00  0.00     0.000 A 
HETATM   27  C15 UNK     1      20.431 -10.713  36.881  1.00  0.00     0.001 A 
HETATM   28  C12 UNK     1      20.948  -9.417  36.902  1.00  0.00     0.012 A 
ENDBRANCH   4  23
TORSDOF 5
ENDMDL
MODEL 6
REMARK VINA RESULT:      -9.4      4.684      7.743
REMARK  5 active torsions:
REMARK  status: ('A' for Active; 'I' for Inactive)
REMARK    1  A    between atoms: C13_18  and  O2_3 
REMARK    2  A    between atoms: C7_12  and  O2_3 
REMARK    3  A    between atoms: C2_7  and  C4_9 
REMARK    4  A    between atoms: C13_18  and  C16_21 
REMARK    5  A    between atoms: C16_21  and  C17_22 
ROOT
HETATM    1  O1  UNK     1      19.264  -0.346  30.511  1.00  0.00    -0.275 OA
HETATM    2  O3  UNK     1      19.697   0.178  28.328  1.00  0.00    -0.260 OA
HETATM    3  C1  UNK     1      18.661   1.435  32.063  1.00  0.00     0.009 A 
HETATM    4  C2  UNK     1      18.781   2.413  30.971  1.00  0.00    -0.007 A 
HETATM    5  C3  UNK     1      18.906   0.089  31.801  1.00  0.00     0.093 A 
HETATM    6  C5  UNK     1      18.307   1.797  33.369  1.00  0.00     0.018 A 
HETATM    7  C6  UNK     1      18.811  -0.890  32.791  1.00  0.00     0.075 A 
HETATM    8  C7  UNK     1      18.460  -0.513  34.084  1.00  0.00     0.072 A 
HETATM    9  C8  UNK     1      19.124   1.965  29.752  1.00  0.00     0.095 A 
HETATM   10  C9  UNK     1      18.207   0.827  34.373  1.00  0.00     0.038 A 
HETATM   11  C10 UNK     1      19.386   0.545  29.456  1.00  0.00     0.289 A 
ENDROOT
BRANCH   8  12
HETATM   12  O2  UNK     1      18.362  -1.451  35.065  1.00  0.00    -0.344 OA
BRANCH  12  13
HETATM   13  C13 UNK     1      19.312  -1.381  36.128  1.00  0.00     0.259 C 
BRANCH  13  14
HETATM   14  C16 UNK     1      20.454  -2.343  35.870  1.00  0.00     0.183 C 
HETATM   15  O4  UNK     1      21.480  -1.988  35.293  1.00  0.00    -0.290 OA
BRANCH  14  16
HETATM   16  C17 UNK     1      20.319  -3.756  36.328  1.00  0.00     0.012 A 
HETATM   17  C19 UNK     1      19.868  -4.700  35.435  1.00  0.00     0.018 A 
HETATM   18  C21 UNK     1      19.742  -6.022  35.864  1.00  0.00     0.043 A 
HETATM   19  C23 UNK     1      20.070  -6.363  37.176  1.00  0.00     0.116 A 
HETATM   20  C22 UNK     1      20.525  -5.384  38.059  1.00  0.00     0.043 A 
HETATM   21  F1  UNK     1      19.948  -7.632  37.588  1.00  0.00    -0.206 F 
HETATM   22  C20 UNK     1      20.651  -4.062  37.630  1.00  0.00     0.018 A 
ENDBRANCH  14  16
ENDBRANCH  13  14
ENDBRANCH  12  13
ENDBRANCH   8  12
BRANCH   4  23
HETATM   23  C4  UNK     1      18.559   3.852  31.075  1.00  0.00    -0.025 A 
HETATM   24  C11 UNK     1      19.119   4.708  30.130  1.00  0.00     0.012 A 
HETATM   25  C14 UNK     1      18.909   6.084  30.230  1.00  0.00     0.001 A 
HETATM   26  C18 UNK     1      18.138   6.598  31.273  1.00  0.00     0.000 A 
HETATM   27  C15 UNK     1      17.578   5.736  32.217  1.00  0.00     0.001 A 
HETATM   28  C12 UNK     1      17.790   4.361  32.118  1.00  0.00     0.012 A 
ENDBRANCH   4  23
TORSDOF 5
ENDMDL
MODEL 7
REMARK VINA RESULT:      -9.3      3.718      8.986
REMARK  5 active torsions:
REMARK  status: ('A' for Active; 'I' for Inactive)
REMARK    1  A    between atoms: C13_18  and  O2_3 
REMARK    2  A    between atoms: C7_12  and  O2_3 
REMARK    3  A    between atoms: C2_7  and  C4_9 
REMARK    4  A    between atoms: C13_18  and  C16_21 
REMARK    5  A    between atoms: C16_21  and  C17_22 
ROOT
HETATM    1  O1  UNK     1      19.798  -0.048  30.065  1.00  0.00    -0.275 OA
HETATM    2  O3  UNK     1      20.454  -2.232  29.906  1.00  0.00    -0.260 OA
HETATM    3  C1  UNK     1      18.814   0.748  32.149  1.00  0.00     0.009 A 
HETATM    4  C2  UNK     1      18.969  -0.597  32.723  1.00  0.00    -0.007 A 
HETATM    5  C3  UNK     1      19.231   0.981  30.840  1.00  0.00     0.093 A 
HETATM    6  C5  UNK     1      18.260   1.819  32.863  1.00  0.00     0.018 A 
HETATM    7  C6  UNK     1      19.112   2.233  30.235  1.00  0.00     0.075 A 
HETATM    8  C7  UNK     1      18.559   3.285  30.958  1.00  0.00     0.072 A 
HETATM    9  C8  UNK     1      19.513  -1.557  31.958  1.00  0.00     0.095 A 
HETATM   10  C9  UNK     1      18.135   3.080  32.270  1.00  0.00     0.038 A 
HETATM   11  C10 UNK     1      19.961  -1.328  30.572  1.00  0.00     0.289 A 
ENDROOT
BRANCH   8  12
HETATM   12  O2  UNK     1      18.432   4.514  30.385  1.00  0.00    -0.344 OA
BRANCH  12  13
HETATM   13  C13 UNK     1      19.555   5.390  30.472  1.00  0.00     0.259 C 
BRANCH  13  14
HETATM   14  C16 UNK     1      19.486   6.198  31.752  1.00  0.00     0.183 C 
HETATM   15  O4  UNK     1      20.488   6.422  32.429  1.00  0.00    -0.290 OA
BRANCH  14  16
HETATM   16  C17 UNK     1      18.165   6.729  32.195  1.00  0.00     0.012 A 
HETATM   17  C19 UNK     1      17.786   6.548  33.505  1.00  0.00     0.018 A 
HETATM   18  C21 UNK     1      16.550   7.046  33.919  1.00  0.00     0.043 A 
HETATM   19  C23 UNK     1      15.725   7.710  33.011  1.00  0.00     0.116 A 
HETATM   20  C22 UNK     1      16.137   7.876  31.688  1.00  0.00     0.043 A 
HETATM   21  F1  UNK     1      14.538   8.185  33.408  1.00  0.00    -0.206 F 
HETATM   22  C20 UNK     1      17.373   7.380  31.275  1.00  0.00     0.018 A 
ENDBRANCH  14  16
ENDBRANCH  13  14
ENDBRANCH  12  13
ENDBRANCH   8  12
BRANCH   4  23
HETATM   23  C4  UNK     1      18.585  -1.007  34.072  1.00  0.00    -0.025 A 
HETATM   24  C11 UNK     1      19.516  -1.637  34.893  1.00  0.00     0.012 A 
HETATM   25  C14 UNK     1      19.151  -2.030  36.181  1.00  0.00     0.001 A 
HETATM   26  C18 UNK     1      17.857  -1.790  36.643  1.00  0.00     0.000 A 
HETATM   27  C15 UNK     1      16.928  -1.157  35.817  1.00  0.00     0.001 A 
HETATM   28  C12 UNK     1      17.293  -0.765  34.528  1.00  0.00     0.012 A 
ENDBRANCH   4  23
TORSDOF 5
ENDMDL
MODEL 8
REMARK VINA RESULT:      -9.3     16.909     18.933
REMARK  5 active torsions:
REMARK  status: ('A' for Active; 'I' for Inactive)
REMARK    1  A    between atoms: C13_18  and  O2_3 
REMARK    2  A    between atoms: C7_12  and  O2_3 
REMARK    3  A    between atoms: C2_7  and  C4_9 
REMARK    4  A    between atoms: C13_18  and  C16_21 
REMARK    5  A    between atoms: C16_21  and  C17_22 
ROOT
HETATM    1  O1  UNK     1      30.807  -4.482  38.957  1.00  0.00    -0.275 OA
HETATM    2  O3  UNK     1      28.898  -3.528  39.775  1.00  0.00    -0.260 OA
HETATM    3  C1  UNK     1      30.735  -6.782  38.151  1.00  0.00     0.009 A 
HETATM    4  C2  UNK     1      29.304  -6.843  38.486  1.00  0.00    -0.007 A 
HETATM    5  C3  UNK     1      31.442  -5.607  38.397  1.00  0.00     0.093 A 
HETATM    6  C5  UNK     1      31.429  -7.862  37.589  1.00  0.00     0.018 A 
HETATM    7  C6  UNK     1      32.800  -5.483  38.104  1.00  0.00     0.075 A 
HETATM    8  C7  UNK     1      33.475  -6.565  37.547  1.00  0.00     0.072 A 
HETATM    9  C8  UNK     1      28.729  -5.753  39.020  1.00  0.00     0.095 A 
HETATM   10  C9  UNK     1      32.791  -7.752  37.289  1.00  0.00     0.038 A 
HETATM   11  C10 UNK     1      29.461  -4.501  39.286  1.00  0.00     0.289 A 
ENDROOT
BRANCH   8  12
HETATM   12  O2  UNK     1      34.801  -6.466  37.255  1.00  0.00    -0.344 OA
BRANCH  12  13
HETATM   13  C13 UNK     1      35.172  -6.563  35.880  1.00  0.00     0.259 C 
BRANCH  13  14
HETATM   14  C16 UNK     1      34.466  -5.491  35.074  1.00  0.00     0.183 C 
HETATM   15  O4  UNK     1      34.815  -4.313  35.120  1.00  0.00    -0.290 OA
BRANCH  14  16
HETATM   16  C17 UNK     1      33.319  -5.885  34.206  1.00  0.00     0.012 A 
HETATM   17  C19 UNK     1      32.131  -5.203  34.334  1.00  0.00     0.018 A 
HETATM   18  C21 UNK     1      31.057  -5.572  33.522  1.00  0.00     0.043 A 
HETATM   19  C23 UNK     1      31.202  -6.613  32.605  1.00  0.00     0.116 A 
HETATM   20  C22 UNK     1      32.419  -7.286  32.500  1.00  0.00     0.043 A 
HETATM   21  F1  UNK     1      30.171  -6.967  31.827  1.00  0.00    -0.206 F 
HETATM   22  C20 UNK     1      33.492  -6.917  33.311  1.00  0.00     0.018 A 
ENDBRANCH  14  16
ENDBRANCH  13  14
ENDBRANCH  12  13
ENDBRANCH   8  12
BRANCH   4  23
HETATM   23  C4  UNK     1      28.422  -7.991  38.293  1.00  0.00    -0.025 A 
HETATM   24  C11 UNK     1      27.917  -8.269  37.025  1.00  0.00     0.012 A 
HETATM   25  C14 UNK     1      27.075  -9.365  36.839  1.00  0.00     0.001 A 
HETATM   26  C18 UNK     1      26.741 -10.179  37.922  1.00  0.00     0.000 A 
HETATM   27  C15 UNK     1      27.250  -9.897  39.190  1.00  0.00     0.001 A 
HETATM   28  C12 UNK     1      28.091  -8.801  39.375  1.00  0.00     0.012 A 
ENDBRANCH   4  23
TORSDOF 5
ENDMDL
MODEL 9
REMARK VINA RESULT:      -9.3      4.762      6.729
REMARK  5 active torsions:
REMARK  status: ('A' for Active; 'I' for Inactive)
REMARK    1  A    between atoms: C13_18  and  O2_3 
REMARK    2  A    between atoms: C7_12  and  O2_3 
REMARK    3  A    between atoms: C2_7  and  C4_9 
REMARK    4  A    between atoms: C13_18  and  C16_21 
REMARK    5  A    between atoms: C16_21  and  C17_22 
ROOT
HETATM    1  O1  UNK     1      18.228   1.629  31.742  1.00  0.00    -0.275 OA
HETATM    2  O3  UNK     1      18.077   2.637  29.696  1.00  0.00    -0.260 OA
HETATM    3  C1  UNK     1      18.410   3.015  33.740  1.00  0.00     0.009 A 
HETATM    4  C2  UNK     1      18.360   4.219  32.895  1.00  0.00    -0.007 A 
HETATM    5  C3  UNK     1      18.344   1.760  33.139  1.00  0.00     0.093 A 
HETATM    6  C5  UNK     1      18.522   3.071  35.135  1.00  0.00     0.018 A 
HETATM    7  C6  UNK     1      18.387   0.579  33.881  1.00  0.00     0.075 A 
HETATM    8  C7  UNK     1      18.499   0.653  35.266  1.00  0.00     0.072 A 
HETATM    9  C8  UNK     1      18.250   4.059  31.566  1.00  0.00     0.095 A 
HETATM   10  C9  UNK     1      18.566   1.896  35.893  1.00  0.00     0.038 A 
HETATM   11  C10 UNK     1      18.178   2.739  30.914  1.00  0.00     0.289 A 
ENDROOT
BRANCH   8  12
HETATM   12  O2  UNK     1      18.544  -0.487  36.009  1.00  0.00    -0.344 OA
BRANCH  12  13
HETATM   13  C13 UNK     1      18.809  -1.706  35.314  1.00  0.00     0.259 C 
BRANCH  13  14
HETATM   14  C16 UNK     1      20.153  -2.264  35.737  1.00  0.00     0.183 C 
HETATM   15  O4  UNK     1      21.181  -1.594  35.667  1.00  0.00    -0.290 OA
BRANCH  14  16
HETATM   16  C17 UNK     1      20.219  -3.664  36.248  1.00  0.00     0.012 A 
HETATM   17  C19 UNK     1      20.662  -3.876  37.533  1.00  0.00     0.018 A 
HETATM   18  C21 UNK     1      20.724  -5.186  38.011  1.00  0.00     0.043 A 
HETATM   19  C23 UNK     1      20.342  -6.247  37.190  1.00  0.00     0.116 A 
HETATM   20  C22 UNK     1      19.898  -5.999  35.891  1.00  0.00     0.043 A 
HETATM   21  F1  UNK     1      20.402  -7.504  37.649  1.00  0.00    -0.206 F 
HETATM   22  C20 UNK     1      19.835  -4.690  35.414  1.00  0.00     0.018 A 
ENDBRANCH  14  16
ENDBRANCH  13  14
ENDBRANCH  12  13
ENDBRANCH   8  12
BRANCH   4  23
HETATM   23  C4  UNK     1      18.418   5.601  33.363  1.00  0.00    -0.025 A 
HETATM   24  C11 UNK     1      19.649   6.240  33.482  1.00  0.00     0.012 A 
HETATM   25  C14 UNK     1      19.705   7.560  33.929  1.00  0.00     0.001 A 
HETATM   26  C18 UNK     1      18.529   8.237  34.253  1.00  0.00     0.000 A 
HETATM   27  C15 UNK     1      17.298   7.593  34.131  1.00  0.00     0.001 A 
HETATM   28  C12 UNK     1      17.242   6.273  33.686  1.00  0.00     0.012 A 
ENDBRANCH   4  23
TORSDOF 5
ENDMDL
MODEL 10
REMARK VINA RESULT:      -9.3      8.996     14.211
REMARK  5 active torsions:
REMARK  status: ('A' for Active; 'I' for Inactive)
REMARK    1  A    between atoms: C13_18  and  O2_3 
REMARK    2  A    between atoms: C7_12  and  O2_3 
REMARK    3  A    between atoms: C2_7  and  C4_9 
REMARK    4  A    between atoms: C13_18  and  C16_21 
REMARK    5  A    between atoms: C16_21  and  C17_22 
ROOT
HETATM    1  O1  UNK     1      22.749  -5.055  38.325  1.00  0.00    -0.275 OA
HETATM    2  O3  UNK     1      24.528  -6.167  39.232  1.00  0.00    -0.260 OA
HETATM    3  C1  UNK     1      20.749  -6.310  37.714  1.00  0.00     0.009 A 
HETATM    4  C2  UNK     1      21.397  -7.546  38.179  1.00  0.00    -0.007 A 
HETATM    5  C3  UNK     1      21.444  -5.105  37.800  1.00  0.00     0.093 A 
HETATM    6  C5  UNK     1      19.453  -6.285  37.184  1.00  0.00     0.018 A 
HETATM    7  C6  UNK     1      20.889  -3.897  37.376  1.00  0.00     0.075 A 
HETATM    8  C7  UNK     1      19.600  -3.890  36.850  1.00  0.00     0.072 A 
HETATM    9  C8  UNK     1      22.643  -7.464  38.674  1.00  0.00     0.095 A 
HETATM   10  C9  UNK     1      18.883  -5.082  36.755  1.00  0.00     0.038 A 
HETATM   11  C10 UNK     1      23.392  -6.198  38.774  1.00  0.00     0.289 A 
ENDROOT
BRANCH   8  12
HETATM   12  O2  UNK     1      19.041  -2.723  36.429  1.00  0.00    -0.344 OA
BRANCH  12  13
HETATM   13  C13 UNK     1      19.866  -1.846  35.664  1.00  0.00     0.259 C 
BRANCH  13  14
HETATM   14  C16 UNK     1      19.007  -0.961  34.783  1.00  0.00     0.183 C 
HETATM   15  O4  UNK     1      19.296  -0.742  33.608  1.00  0.00    -0.290 OA
BRANCH  14  16
HETATM   16  C17 UNK     1      17.781  -0.342  35.367  1.00  0.00     0.012 A 
HETATM   17  C19 UNK     1      16.567  -0.595  34.771  1.00  0.00     0.018 A 
HETATM   18  C21 UNK     1      15.421  -0.016  35.318  1.00  0.00     0.043 A 
HETATM   19  C23 UNK     1      15.520   0.800  36.444  1.00  0.00     0.116 A 
HETATM   20  C22 UNK     1      16.766   1.038  37.025  1.00  0.00     0.043 A 
HETATM   21  F1  UNK     1      14.420   1.356  36.967  1.00  0.00    -0.206 F 
HETATM   22  C20 UNK     1      17.912   0.459  36.479  1.00  0.00     0.018 A 
ENDBRANCH  14  16
ENDBRANCH  13  14
ENDBRANCH  12  13
ENDBRANCH   8  12
BRANCH   4  23
HETATM   23  C4  UNK     1      20.812  -8.884  38.160  1.00  0.00    -0.025 A 
HETATM   24  C11 UNK     1      21.153  -9.773  37.144  1.00  0.00     0.012 A 
HETATM   25  C14 UNK     1      20.594 -11.051  37.125  1.00  0.00     0.001 A 
HETATM   26  C18 UNK     1      19.697 -11.436  38.122  1.00  0.00     0.000 A 
HETATM   27  C15 UNK     1      19.359 -10.542  39.138  1.00  0.00     0.001 A 
HETATM   28  C12 UNK     1      19.917  -9.263  39.156  1.00  0.00     0.012 A 
ENDBRANCH   4  23
TORSDOF 5
ENDMDL
