MODEL 1
REMARK VINA RESULT:      -8.7      0.000      0.000
REMARK  3 active torsions:
REMARK  status: ('A' for Active; 'I' for Inactive)
REMARK    1  A    between atoms: C7_15  and  N1_7 
REMARK    2  A    between atoms: C1_9  and  C3_11 
REMARK    3  A    between atoms: C12_20  and  C19_27 
ROOT
HETATM    1  O1  UNK     1      20.821  -2.612  15.331  1.00  0.00    -0.291 OA
HETATM    2  O2  UNK     1      22.624  -6.234  16.393  1.00  0.00    -0.274 OA
HETATM    3  O3  UNK     1      21.649  -7.250  14.600  1.00  0.00    -0.259 OA
HETATM    4  N2  UNK     1      18.549  -3.136  11.115  1.00  0.00    -0.191 NA
HETATM    5  C1  UNK     1      20.196  -4.918  13.738  1.00  0.00     0.109 C 
HETATM    6  C2  UNK     1      21.136  -4.952  14.929  1.00  0.00     0.066 A 
HETATM    7  C4  UNK     1      21.377  -3.840  15.640  1.00  0.00     0.104 A 
HETATM    8  C5  UNK     1      19.804  -3.495  13.353  1.00  0.00     0.086 C 
HETATM    9  C6  UNK     1      22.257  -3.865  16.806  1.00  0.00     0.033 A 
HETATM   10  C7  UNK     1      20.113  -2.440  14.142  1.00  0.00     0.159 C 
HETATM   11  C8  UNK     1      21.805  -6.234  15.270  1.00  0.00     0.298 A 
HETATM   12  C10 UNK     1      22.854  -5.073  17.154  1.00  0.00     0.092 A 
HETATM   13  C13 UNK     1      22.528  -2.741  17.596  1.00  0.00     0.017 A 
HETATM   14  C16 UNK     1      23.703  -5.191  18.255  1.00  0.00     0.038 A 
HETATM   15  C17 UNK     1      19.111  -3.297  12.117  1.00  0.00     0.100 C 
HETATM   16  C18 UNK     1      23.378  -2.843  18.703  1.00  0.00     0.001 A 
HETATM   17  C20 UNK     1      23.964  -4.065  19.032  1.00  0.00     0.003 A 
ENDROOT
BRANCH   5  18
HETATM   18  C3  UNK     1      18.968  -5.735  14.015  1.00  0.00    -0.043 A 
HETATM   19  C11 UNK     1      18.607  -6.752  13.139  1.00  0.00     0.008 A 
HETATM   20  C14 UNK     1      17.465  -7.511  13.395  1.00  0.00     0.001 A 
HETATM   21  C15 UNK     1      16.693  -7.248  14.527  1.00  0.00     0.016 A 
HETATM   22  C12 UNK     1      17.062  -6.227  15.402  1.00  0.00     0.048 A 
HETATM   23  C9  UNK     1      18.204  -5.468  15.145  1.00  0.00     0.024 A 
BRANCH  22  24
HETATM   24  C19 UNK     1      16.237  -5.947  16.612  1.00  0.00     0.417 C 
HETATM   25  F1  UNK     1      16.190  -4.624  16.918  1.00  0.00    -0.166 F 
HETATM   26  F2  UNK     1      14.946  -6.348  16.469  1.00  0.00    -0.166 F 
HETATM   27  F3  UNK     1      16.724  -6.585  17.707  1.00  0.00    -0.166 F 
ENDBRANCH  22  24
ENDBRANCH   5  18
BRANCH  10  28
HETATM   28  N1  UNK     1      19.786  -1.138  13.880  1.00  0.00    -0.379 N 
HETATM   29  H10 UNK     1      20.148  -0.703  13.040  1.00  0.00     0.158 HD
HETATM   30  H9  UNK     1      19.194  -0.612  14.510  1.00  0.00     0.158 HD
ENDBRANCH  10  28
TORSDOF 3
ENDMDL
MODEL 2
REMARK VINA RESULT:      -8.7     19.848     23.044
REMARK  3 active torsions:
REMARK  status: ('A' for Active; 'I' for Inactive)
REMARK    1  A    between atoms: C7_15  and  N1_7 
REMARK    2  A    between atoms: C1_9  and  C3_11 
REMARK    3  A    between atoms: C12_20  and  C19_27 
ROOT
HETATM    1  O1  UNK     1      30.689  -4.998  37.056  1.00  0.00    -0.291 OA
HETATM    2  O2  UNK     1      30.407  -9.170  36.936  1.00  0.00    -0.274 OA
HETATM    3  O3  UNK     1      32.106  -9.246  35.418  1.00  0.00    -0.259 OA
HETATM    4  N2  UNK     1      34.465  -3.578  34.422  1.00  0.00    -0.191 NA
HETATM    5  C1  UNK     1      32.410  -6.389  35.225  1.00  0.00     0.109 C 
HETATM    6  C2  UNK     1      31.418  -7.086  36.138  1.00  0.00     0.066 A 
HETATM    7  C4  UNK     1      30.633  -6.377  36.963  1.00  0.00     0.104 A 
HETATM    8  C5  UNK     1      32.545  -4.904  35.549  1.00  0.00     0.086 C 
HETATM    9  C6  UNK     1      29.654  -7.034  37.825  1.00  0.00     0.033 A 
HETATM   10  C7  UNK     1      31.704  -4.291  36.412  1.00  0.00     0.159 C 
HETATM   11  C8  UNK     1      31.358  -8.571  36.118  1.00  0.00     0.298 A 
HETATM   12  C10 UNK     1      29.565  -8.423  37.781  1.00  0.00     0.092 A 
HETATM   13  C13 UNK     1      28.796  -6.344  38.690  1.00  0.00     0.017 A 
HETATM   14  C16 UNK     1      28.656  -9.133  38.565  1.00  0.00     0.038 A 
HETATM   15  C17 UNK     1      33.606  -4.171  34.927  1.00  0.00     0.100 C 
HETATM   16  C18 UNK     1      27.879  -7.042  39.483  1.00  0.00     0.001 A 
HETATM   17  C20 UNK     1      27.808  -8.434  39.420  1.00  0.00     0.003 A 
ENDROOT
BRANCH   5  18
HETATM   18  C3  UNK     1      32.019  -6.570  33.788  1.00  0.00    -0.043 A 
HETATM   19  C11 UNK     1      32.799  -7.366  32.958  1.00  0.00     0.008 A 
HETATM   20  C14 UNK     1      32.437  -7.534  31.622  1.00  0.00     0.001 A 
HETATM   21  C15 UNK     1      31.295  -6.906  31.125  1.00  0.00     0.016 A 
HETATM   22  C12 UNK     1      30.515  -6.109  31.964  1.00  0.00     0.048 A 
HETATM   23  C9  UNK     1      30.879  -5.941  33.301  1.00  0.00     0.024 A 
BRANCH  22  24
HETATM   24  C19 UNK     1      29.295  -5.438  31.432  1.00  0.00     0.417 C 
HETATM   25  F1  UNK     1      28.671  -6.171  30.473  1.00  0.00    -0.166 F 
HETATM   26  F2  UNK     1      28.364  -5.204  32.395  1.00  0.00    -0.166 F 
HETATM   27  F3  UNK     1      29.590  -4.235  30.876  1.00  0.00    -0.166 F 
ENDBRANCH  22  24
ENDBRANCH   5  18
BRANCH  10  28
HETATM   28  N1  UNK     1      31.746  -2.965  36.745  1.00  0.00    -0.379 N 
HETATM   29  H10 UNK     1      32.443  -2.373  36.309  1.00  0.00     0.158 HD
HETATM   30  H9  UNK     1      31.096  -2.574  37.414  1.00  0.00     0.158 HD
ENDBRANCH  10  28
TORSDOF 3
ENDMDL
MODEL 3
REMARK VINA RESULT:      -8.5     19.462     22.573
REMARK  3 active torsions:
REMARK  status: ('A' for Active; 'I' for Inactive)
REMARK    1  A    between atoms: C7_15  and  N1_7 
REMARK    2  A    between atoms: C1_9  and  C3_11 
REMARK    3  A    between atoms: C12_20  and  C19_27 
ROOT
HETATM    1  O1  UNK     1      32.572  -4.763  35.856  1.00  0.00    -0.291 OA
HETATM    2  O2  UNK     1      29.879  -7.843  36.728  1.00  0.00    -0.274 OA
HETATM    3  O3  UNK     1      30.842  -9.145  35.123  1.00  0.00    -0.259 OA
HETATM    4  N2  UNK     1      35.799  -6.327  32.640  1.00  0.00    -0.191 NA
HETATM    5  C1  UNK     1      32.714  -7.139  34.250  1.00  0.00     0.109 C 
HETATM    6  C2  UNK     1      31.723  -6.952  35.384  1.00  0.00     0.066 A 
HETATM    7  C4  UNK     1      31.700  -5.811  36.090  1.00  0.00     0.104 A 
HETATM    8  C5  UNK     1      33.759  -6.028  34.209  1.00  0.00     0.086 C 
HETATM    9  C6  UNK     1      30.731  -5.607  37.164  1.00  0.00     0.033 A 
HETATM   10  C7  UNK     1      33.644  -4.922  34.979  1.00  0.00     0.159 C 
HETATM   11  C8  UNK     1      30.800  -8.070  35.713  1.00  0.00     0.298 A 
HETATM   12  C10 UNK     1      29.838  -6.636  37.449  1.00  0.00     0.092 A 
HETATM   13  C13 UNK     1      30.648  -4.431  37.919  1.00  0.00     0.017 A 
HETATM   14  C16 UNK     1      28.876  -6.525  38.454  1.00  0.00     0.038 A 
HETATM   15  C17 UNK     1      34.886  -6.193  33.342  1.00  0.00     0.100 C 
HETATM   16  C18 UNK     1      29.690  -4.305  38.930  1.00  0.00     0.001 A 
HETATM   17  C20 UNK     1      28.805  -5.350  39.197  1.00  0.00     0.003 A 
ENDROOT
BRANCH   5  18
HETATM   18  C3  UNK     1      31.997  -7.223  32.934  1.00  0.00    -0.043 A 
HETATM   19  C11 UNK     1      32.247  -8.292  32.082  1.00  0.00     0.008 A 
HETATM   20  C14 UNK     1      31.582  -8.370  30.859  1.00  0.00     0.001 A 
HETATM   21  C15 UNK     1      30.671  -7.378  30.496  1.00  0.00     0.016 A 
HETATM   22  C12 UNK     1      30.425  -6.307  31.356  1.00  0.00     0.048 A 
HETATM   23  C9  UNK     1      31.091  -6.230  32.580  1.00  0.00     0.024 A 
BRANCH  22  24
HETATM   24  C19 UNK     1      29.452  -5.247  30.968  1.00  0.00     0.417 C 
HETATM   25  F1  UNK     1      30.031  -4.238  30.266  1.00  0.00    -0.166 F 
HETATM   26  F2  UNK     1      28.444  -5.721  30.189  1.00  0.00    -0.166 F 
HETATM   27  F3  UNK     1      28.869  -4.682  32.057  1.00  0.00    -0.166 F 
ENDBRANCH  22  24
ENDBRANCH   5  18
BRANCH  10  28
HETATM   28  N1  UNK     1      34.524  -3.876  34.991  1.00  0.00    -0.379 N 
HETATM   29  H10 UNK     1      34.471  -3.184  34.254  1.00  0.00     0.158 HD
HETATM   30  H9  UNK     1      35.220  -3.788  35.720  1.00  0.00     0.158 HD
ENDBRANCH  10  28
TORSDOF 3
ENDMDL
MODEL 4
REMARK VINA RESULT:      -8.5     13.224     15.645
REMARK  3 active torsions:
REMARK  status: ('A' for Active; 'I' for Inactive)
REMARK    1  A    between atoms: C7_15  and  N1_7 
REMARK    2  A    between atoms: C1_9  and  C3_11 
REMARK    3  A    between atoms: C12_20  and  C19_27 
ROOT
HETATM    1  O1  UNK     1      16.927   8.377   9.984  1.00  0.00    -0.291 OA
HETATM    2  O2  UNK     1      13.762  10.604  11.571  1.00  0.00    -0.274 OA
HETATM    3  O3  UNK     1      12.456   8.736  11.599  1.00  0.00    -0.259 OA
HETATM    4  N2  UNK     1      15.691   3.723   9.842  1.00  0.00    -0.191 NA
HETATM    5  C1  UNK     1      14.430   7.021  10.393  1.00  0.00     0.109 C 
HETATM    6  C2  UNK     1      14.651   8.485  10.722  1.00  0.00     0.066 A 
HETATM    7  C4  UNK     1      15.841   9.063  10.496  1.00  0.00     0.104 A 
HETATM    8  C5  UNK     1      15.730   6.306  10.038  1.00  0.00     0.086 C 
HETATM    9  C6  UNK     1      16.059  10.480  10.779  1.00  0.00     0.033 A 
HETATM   10  C7  UNK     1      16.881   6.990   9.846  1.00  0.00     0.159 C 
HETATM   11  C8  UNK     1      13.533   9.255  11.326  1.00  0.00     0.298 A 
HETATM   12  C10 UNK     1      15.002  11.215  11.308  1.00  0.00     0.092 A 
HETATM   13  C13 UNK     1      17.271  11.139  10.545  1.00  0.00     0.017 A 
HETATM   14  C16 UNK     1      15.119  12.573  11.604  1.00  0.00     0.038 A 
HETATM   15  C17 UNK     1      15.708   4.879   9.930  1.00  0.00     0.100 C 
HETATM   16  C18 UNK     1      17.405  12.501  10.837  1.00  0.00     0.001 A 
HETATM   17  C20 UNK     1      16.330  13.217  11.366  1.00  0.00     0.003 A 
ENDROOT
BRANCH   5  18
HETATM   18  C3  UNK     1      13.439   6.877   9.275  1.00  0.00    -0.043 A 
HETATM   19  C11 UNK     1      13.828   7.161   7.971  1.00  0.00     0.008 A 
HETATM   20  C14 UNK     1      12.908   7.029   6.931  1.00  0.00     0.001 A 
HETATM   21  C15 UNK     1      11.605   6.611   7.203  1.00  0.00     0.016 A 
HETATM   22  C12 UNK     1      11.222   6.327   8.514  1.00  0.00     0.048 A 
HETATM   23  C9  UNK     1      12.143   6.460   9.553  1.00  0.00     0.024 A 
BRANCH  22  24
HETATM   24  C19 UNK     1       9.829   5.881   8.803  1.00  0.00     0.417 C 
HETATM   25  F1  UNK     1       9.102   6.827   9.455  1.00  0.00    -0.166 F 
HETATM   26  F2  UNK     1       9.131   5.577   7.677  1.00  0.00    -0.166 F 
HETATM   27  F3  UNK     1       9.813   4.770   9.583  1.00  0.00    -0.166 F 
ENDBRANCH  22  24
ENDBRANCH   5  18
BRANCH  10  28
HETATM   28  N1  UNK     1      18.083   6.430   9.510  1.00  0.00    -0.379 N 
HETATM   29  H10 UNK     1      18.827   7.033   9.181  1.00  0.00     0.158 HD
HETATM   30  H9  UNK     1      18.233   5.433   9.585  1.00  0.00     0.158 HD
ENDBRANCH  10  28
TORSDOF 3
ENDMDL
MODEL 5
REMARK VINA RESULT:      -8.4     18.361     21.616
REMARK  3 active torsions:
REMARK  status: ('A' for Active; 'I' for Inactive)
REMARK    1  A    between atoms: C7_15  and  N1_7 
REMARK    2  A    between atoms: C1_9  and  C3_11 
REMARK    3  A    between atoms: C12_20  and  C19_27 
ROOT
HETATM    1  O1  UNK     1      34.869  -6.725  33.120  1.00  0.00    -0.291 OA
HETATM    2  O2  UNK     1      32.180  -9.523  34.684  1.00  0.00    -0.274 OA
HETATM    3  O3  UNK     1      31.878 -10.402  32.602  1.00  0.00    -0.259 OA
HETATM    4  N2  UNK     1      35.637  -7.680  28.461  1.00  0.00    -0.191 NA
HETATM    5  C1  UNK     1      33.584  -8.505  31.268  1.00  0.00     0.109 C 
HETATM    6  C2  UNK     1      33.337  -8.532  32.765  1.00  0.00     0.066 A 
HETATM    7  C4  UNK     1      33.961  -7.664  33.576  1.00  0.00     0.104 A 
HETATM    8  C5  UNK     1      34.744  -7.588  30.892  1.00  0.00     0.086 C 
HETATM    9  C6  UNK     1      33.710  -7.661  35.015  1.00  0.00     0.033 A 
HETATM   10  C7  UNK     1      35.312  -6.760  31.798  1.00  0.00     0.159 C 
HETATM   11  C8  UNK     1      32.413  -9.559  33.314  1.00  0.00     0.298 A 
HETATM   12  C10 UNK     1      32.815  -8.594  35.529  1.00  0.00     0.092 A 
HETATM   13  C13 UNK     1      34.316  -6.767  35.905  1.00  0.00     0.017 A 
HETATM   14  C16 UNK     1      32.510  -8.659  36.889  1.00  0.00     0.038 A 
HETATM   15  C17 UNK     1      35.237  -7.639  29.549  1.00  0.00     0.100 C 
HETATM   16  C18 UNK     1      34.022  -6.819  37.272  1.00  0.00     0.001 A 
HETATM   17  C20 UNK     1      33.120  -7.764  37.763  1.00  0.00     0.003 A 
ENDROOT
BRANCH   5  18
HETATM   18  C3  UNK     1      32.341  -8.089  30.537  1.00  0.00    -0.043 A 
HETATM   19  C11 UNK     1      31.886  -8.850  29.467  1.00  0.00     0.008 A 
HETATM   20  C14 UNK     1      30.731  -8.464  28.787  1.00  0.00     0.001 A 
HETATM   21  C15 UNK     1      30.038  -7.320  29.184  1.00  0.00     0.016 A 
HETATM   22  C12 UNK     1      30.500  -6.562  30.260  1.00  0.00     0.048 A 
HETATM   23  C9  UNK     1      31.656  -6.949  30.939  1.00  0.00     0.024 A 
BRANCH  22  24
HETATM   24  C19 UNK     1      29.759  -5.340  30.683  1.00  0.00     0.417 C 
HETATM   25  F1  UNK     1      29.788  -5.150  32.029  1.00  0.00    -0.166 F 
HETATM   26  F2  UNK     1      30.262  -4.204  30.130  1.00  0.00    -0.166 F 
HETATM   27  F3  UNK     1      28.451  -5.401  30.326  1.00  0.00    -0.166 F 
ENDBRANCH  22  24
ENDBRANCH   5  18
BRANCH  10  28
HETATM   28  N1  UNK     1      36.342  -5.897  31.541  1.00  0.00    -0.379 N 
HETATM   29  H10 UNK     1      37.081  -6.192  30.915  1.00  0.00     0.158 HD
HETATM   30  H9  UNK     1      36.372  -4.980  31.967  1.00  0.00     0.158 HD
ENDBRANCH  10  28
TORSDOF 3
ENDMDL
MODEL 6
REMARK VINA RESULT:      -8.3     19.769     23.498
REMARK  3 active torsions:
REMARK  status: ('A' for Active; 'I' for Inactive)
REMARK    1  A    between atoms: C7_15  and  N1_7 
REMARK    2  A    between atoms: C1_9  and  C3_11 
REMARK    3  A    between atoms: C12_20  and  C19_27 
ROOT
HETATM    1  O1  UNK     1      31.534  -5.480  34.252  1.00  0.00    -0.291 OA
HETATM    2  O2  UNK     1      27.588  -6.799  33.813  1.00  0.00    -0.274 OA
HETATM    3  O3  UNK     1      27.387  -6.964  36.078  1.00  0.00    -0.259 OA
HETATM    4  N2  UNK     1      32.505  -4.879  38.932  1.00  0.00    -0.191 NA
HETATM    5  C1  UNK     1      30.108  -6.204  36.637  1.00  0.00     0.109 C 
HETATM    6  C2  UNK     1      29.506  -6.276  35.246  1.00  0.00     0.066 A 
HETATM    7  C4  UNK     1      30.230  -5.934  34.169  1.00  0.00     0.104 A 
HETATM    8  C5  UNK     1      31.461  -5.500  36.643  1.00  0.00     0.086 C 
HETATM    9  C6  UNK     1      29.672  -6.028  32.823  1.00  0.00     0.033 A 
HETATM   10  C7  UNK     1      32.099  -5.187  35.492  1.00  0.00     0.159 C 
HETATM   11  C8  UNK     1      28.089  -6.705  35.106  1.00  0.00     0.298 A 
HETATM   12  C10 UNK     1      28.358  -6.467  32.683  1.00  0.00     0.092 A 
HETATM   13  C13 UNK     1      30.387  -5.704  31.663  1.00  0.00     0.017 A 
HETATM   14  C16 UNK     1      27.746  -6.591  31.436  1.00  0.00     0.038 A 
HETATM   15  C17 UNK     1      32.038  -5.157  37.908  1.00  0.00     0.100 C 
HETATM   16  C18 UNK     1      29.788  -5.823  30.405  1.00  0.00     0.001 A 
HETATM   17  C20 UNK     1      28.469  -6.266  30.291  1.00  0.00     0.003 A 
ENDROOT
BRANCH   5  18
HETATM   18  C3  UNK     1      30.238  -7.579  37.225  1.00  0.00    -0.043 A 
HETATM   19  C11 UNK     1      31.332  -8.368  36.890  1.00  0.00     0.008 A 
HETATM   20  C14 UNK     1      31.454  -9.646  37.436  1.00  0.00     0.001 A 
HETATM   21  C15 UNK     1      30.480 -10.125  38.313  1.00  0.00     0.016 A 
HETATM   22  C12 UNK     1      29.385  -9.327  38.644  1.00  0.00     0.048 A 
HETATM   23  C9  UNK     1      29.265  -8.049  38.098  1.00  0.00     0.024 A 
BRANCH  22  24
HETATM   24  C19 UNK     1      28.346  -9.839  39.582  1.00  0.00     0.417 C 
HETATM   25  F1  UNK     1      27.725  -8.844  40.269  1.00  0.00    -0.166 F 
HETATM   26  F2  UNK     1      27.363 -10.531  38.947  1.00  0.00    -0.166 F 
HETATM   27  F3  UNK     1      28.878 -10.680  40.506  1.00  0.00    -0.166 F 
ENDBRANCH  22  24
ENDBRANCH   5  18
BRANCH  10  28
HETATM   28  N1  UNK     1      33.318  -4.572  35.409  1.00  0.00    -0.379 N 
HETATM   29  H10 UNK     1      33.375  -3.575  35.578  1.00  0.00     0.158 HD
HETATM   30  H9  UNK     1      34.153  -5.097  35.182  1.00  0.00     0.158 HD
ENDBRANCH  10  28
TORSDOF 3
ENDMDL
MODEL 7
REMARK VINA RESULT:      -8.3      1.764      2.291
REMARK  3 active torsions:
REMARK  status: ('A' for Active; 'I' for Inactive)
REMARK    1  A    between atoms: C7_15  and  N1_7 
REMARK    2  A    between atoms: C1_9  and  C3_11 
REMARK    3  A    between atoms: C12_20  and  C19_27 
ROOT
HETATM    1  O1  UNK     1      20.925  -2.611  15.347  1.00  0.00    -0.291 OA
HETATM    2  O2  UNK     1      22.672  -6.221  16.537  1.00  0.00    -0.274 OA
HETATM    3  O3  UNK     1      21.640  -7.294  14.810  1.00  0.00    -0.259 OA
HETATM    4  N2  UNK     1      18.559  -3.272  11.203  1.00  0.00    -0.191 NA
HETATM    5  C1  UNK     1      20.220  -4.972  13.872  1.00  0.00     0.109 C 
HETATM    6  C2  UNK     1      21.183  -4.973  15.045  1.00  0.00     0.066 A 
HETATM    7  C4  UNK     1      21.461  -3.836  15.701  1.00  0.00     0.104 A 
HETATM    8  C5  UNK     1      19.850  -3.559  13.431  1.00  0.00     0.086 C 
HETATM    9  C6  UNK     1      22.363  -3.829  16.850  1.00  0.00     0.033 A 
HETATM   10  C7  UNK     1      20.197  -2.477  14.165  1.00  0.00     0.159 C 
HETATM   11  C8  UNK     1      21.831  -6.254  15.431  1.00  0.00     0.298 A 
HETATM   12  C10 UNK     1      22.941  -5.033  17.241  1.00  0.00     0.092 A 
HETATM   13  C13 UNK     1      22.674  -2.677  17.584  1.00  0.00     0.017 A 
HETATM   14  C16 UNK     1      23.809  -5.120  18.329  1.00  0.00     0.038 A 
HETATM   15  C17 UNK     1      19.137  -3.400  12.200  1.00  0.00     0.100 C 
HETATM   16  C18 UNK     1      23.543  -2.748  18.678  1.00  0.00     0.001 A 
HETATM   17  C20 UNK     1      24.110  -3.968  19.050  1.00  0.00     0.003 A 
ENDROOT
BRANCH   5  18
HETATM   18  C3  UNK     1      18.981  -5.749  14.208  1.00  0.00    -0.043 A 
HETATM   19  C11 UNK     1      18.211  -5.374  15.302  1.00  0.00     0.008 A 
HETATM   20  C14 UNK     1      17.059  -6.097  15.616  1.00  0.00     0.001 A 
HETATM   21  C15 UNK     1      16.686  -7.188  14.830  1.00  0.00     0.016 A 
HETATM   22  C12 UNK     1      17.464  -7.557  13.733  1.00  0.00     0.048 A 
HETATM   23  C9  UNK     1      18.615  -6.834  13.420  1.00  0.00     0.024 A 
BRANCH  22  24
HETATM   24  C19 UNK     1      17.064  -8.723  12.895  1.00  0.00     0.417 C 
HETATM   25  F1  UNK     1      15.751  -9.044  13.037  1.00  0.00    -0.166 F 
HETATM   26  F2  UNK     1      17.258  -8.505  11.567  1.00  0.00    -0.166 F 
HETATM   27  F3  UNK     1      17.775  -9.835  13.215  1.00  0.00    -0.166 F 
ENDBRANCH  22  24
ENDBRANCH   5  18
BRANCH  10  28
HETATM   28  N1  UNK     1      19.893  -1.181  13.852  1.00  0.00    -0.379 N 
HETATM   29  H10 UNK     1      20.156  -0.447  14.498  1.00  0.00     0.158 HD
HETATM   30  H9  UNK     1      19.411  -0.952  12.992  1.00  0.00     0.158 HD
ENDBRANCH  10  28
TORSDOF 3
ENDMDL
MODEL 8
REMARK VINA RESULT:      -8.2     18.342     21.658
REMARK  3 active torsions:
REMARK  status: ('A' for Active; 'I' for Inactive)
REMARK    1  A    between atoms: C7_15  and  N1_7 
REMARK    2  A    between atoms: C1_9  and  C3_11 
REMARK    3  A    between atoms: C12_20  and  C19_27 
ROOT
HETATM    1  O1  UNK     1      32.140  -5.268  35.362  1.00  0.00    -0.291 OA
HETATM    2  O2  UNK     1      28.570  -7.160  36.447  1.00  0.00    -0.274 OA
HETATM    3  O3  UNK     1      28.789  -8.592  34.687  1.00  0.00    -0.259 OA
HETATM    4  N2  UNK     1      34.172  -7.666  31.711  1.00  0.00    -0.191 NA
HETATM    5  C1  UNK     1      31.192  -7.379  33.662  1.00  0.00     0.109 C 
HETATM    6  C2  UNK     1      30.469  -6.925  34.917  1.00  0.00     0.066 A 
HETATM    7  C4  UNK     1      30.960  -5.923  35.663  1.00  0.00     0.104 A 
HETATM    8  C5  UNK     1      32.574  -6.748  33.533  1.00  0.00     0.086 C 
HETATM    9  C6  UNK     1      30.258  -5.457  36.857  1.00  0.00     0.033 A 
HETATM   10  C7  UNK     1      32.973  -5.748  34.352  1.00  0.00     0.159 C 
HETATM   11  C8  UNK     1      29.225  -7.634  35.316  1.00  0.00     0.298 A 
HETATM   12  C10 UNK     1      29.072  -6.091  37.213  1.00  0.00     0.092 A 
HETATM   13  C13 UNK     1      30.712  -4.404  37.660  1.00  0.00     0.017 A 
HETATM   14  C16 UNK     1      28.333  -5.708  38.333  1.00  0.00     0.038 A 
HETATM   15  C17 UNK     1      33.457  -7.255  32.527  1.00  0.00     0.100 C 
HETATM   16  C18 UNK     1      29.984  -4.009  38.787  1.00  0.00     0.001 A 
HETATM   17  C20 UNK     1      28.796  -4.659  39.123  1.00  0.00     0.003 A 
ENDROOT
BRANCH   5  18
HETATM   18  C3  UNK     1      30.370  -7.076  32.444  1.00  0.00    -0.043 A 
HETATM   19  C11 UNK     1      29.983  -5.767  32.184  1.00  0.00     0.008 A 
HETATM   20  C14 UNK     1      29.218  -5.485  31.052  1.00  0.00     0.001 A 
HETATM   21  C15 UNK     1      28.847  -6.515  30.187  1.00  0.00     0.016 A 
HETATM   22  C12 UNK     1      29.239  -7.827  30.455  1.00  0.00     0.048 A 
HETATM   23  C9  UNK     1      30.004  -8.108  31.587  1.00  0.00     0.024 A 
BRANCH  22  24
HETATM   24  C19 UNK     1      28.841  -8.927  29.531  1.00  0.00     0.417 C 
HETATM   25  F1  UNK     1      27.496  -9.001  29.355  1.00  0.00    -0.166 F 
HETATM   26  F2  UNK     1      29.378  -8.788  28.289  1.00  0.00    -0.166 F 
HETATM   27  F3  UNK     1      29.243 -10.138  29.995  1.00  0.00    -0.166 F 
ENDBRANCH  22  24
ENDBRANCH   5  18
BRANCH  10  28
HETATM   28  N1  UNK     1      34.186  -5.118  34.294  1.00  0.00    -0.379 N 
HETATM   29  H10 UNK     1      34.284  -4.208  34.727  1.00  0.00     0.158 HD
HETATM   30  H9  UNK     1      34.974  -5.546  33.827  1.00  0.00     0.158 HD
ENDBRANCH  10  28
TORSDOF 3
ENDMDL
MODEL 9
REMARK VINA RESULT:      -8.2     17.960     21.296
REMARK  3 active torsions:
REMARK  status: ('A' for Active; 'I' for Inactive)
REMARK    1  A    between atoms: C7_15  and  N1_7 
REMARK    2  A    between atoms: C1_9  and  C3_11 
REMARK    3  A    between atoms: C12_20  and  C19_27 
ROOT
HETATM    1  O1  UNK     1      30.768  -6.137  35.416  1.00  0.00    -0.291 OA
HETATM    2  O2  UNK     1      28.072  -9.167  36.440  1.00  0.00    -0.274 OA
HETATM    3  O3  UNK     1      28.535 -10.245  34.486  1.00  0.00    -0.259 OA
HETATM    4  N2  UNK     1      33.051  -7.339  31.347  1.00  0.00    -0.191 NA
HETATM    5  C1  UNK     1      30.339  -8.230  33.498  1.00  0.00     0.109 C 
HETATM    6  C2  UNK     1      29.644  -8.173  34.845  1.00  0.00     0.066 A 
HETATM    7  C4  UNK     1      29.880  -7.160  35.693  1.00  0.00     0.104 A 
HETATM    8  C5  UNK     1      31.443  -7.185  33.374  1.00  0.00     0.086 C 
HETATM    9  C6  UNK     1      29.195  -7.078  36.981  1.00  0.00     0.033 A 
HETATM   10  C7  UNK     1      31.601  -6.212  34.300  1.00  0.00     0.159 C 
HETATM   11  C8  UNK     1      28.721  -9.278  35.216  1.00  0.00     0.298 A 
HETATM   12  C10 UNK     1      28.300  -8.089  37.316  1.00  0.00     0.092 A 
HETATM   13  C13 UNK     1      29.387  -6.035  37.896  1.00  0.00     0.017 A 
HETATM   14  C16 UNK     1      27.598  -8.089  38.522  1.00  0.00     0.038 A 
HETATM   15  C17 UNK     1      32.331  -7.270  32.254  1.00  0.00     0.100 C 
HETATM   16  C18 UNK     1      28.692  -6.021  39.109  1.00  0.00     0.001 A 
HETATM   17  C20 UNK     1      27.798  -7.046  39.422  1.00  0.00     0.003 A 
ENDROOT
BRANCH   5  18
HETATM   18  C3  UNK     1      29.344  -8.063  32.386  1.00  0.00    -0.043 A 
HETATM   19  C11 UNK     1      28.341  -7.107  32.498  1.00  0.00     0.008 A 
HETATM   20  C14 UNK     1      27.416  -6.952  31.466  1.00  0.00     0.001 A 
HETATM   21  C15 UNK     1      27.501  -7.755  30.328  1.00  0.00     0.016 A 
HETATM   22  C12 UNK     1      28.511  -8.712  30.222  1.00  0.00     0.048 A 
HETATM   23  C9  UNK     1      29.436  -8.866  31.255  1.00  0.00     0.024 A 
BRANCH  22  24
HETATM   24  C19 UNK     1      28.601  -9.568  29.005  1.00  0.00     0.417 C 
HETATM   25  F1  UNK     1      29.388  -9.024  28.040  1.00  0.00    -0.166 F 
HETATM   26  F2  UNK     1      29.119 -10.797  29.267  1.00  0.00    -0.166 F 
HETATM   27  F3  UNK     1      27.380  -9.771  28.447  1.00  0.00    -0.166 F 
ENDBRANCH  22  24
ENDBRANCH   5  18
BRANCH  10  28
HETATM   28  N1  UNK     1      32.552  -5.230  34.257  1.00  0.00    -0.379 N 
HETATM   29  H10 UNK     1      33.528  -5.492  34.322  1.00  0.00     0.158 HD
HETATM   30  H9  UNK     1      32.293  -4.256  34.164  1.00  0.00     0.158 HD
ENDBRANCH  10  28
TORSDOF 3
ENDMDL
MODEL 10
REMARK VINA RESULT:      -8.1     21.208     23.710
REMARK  3 active torsions:
REMARK  status: ('A' for Active; 'I' for Inactive)
REMARK    1  A    between atoms: C7_15  and  N1_7 
REMARK    2  A    between atoms: C1_9  and  C3_11 
REMARK    3  A    between atoms: C12_20  and  C19_27 
ROOT
HETATM    1  O1  UNK     1      30.543  -5.213  37.079  1.00  0.00    -0.291 OA
HETATM    2  O2  UNK     1      30.692  -9.393  37.167  1.00  0.00    -0.274 OA
HETATM    3  O3  UNK     1      32.497  -9.362  35.774  1.00  0.00    -0.259 OA
HETATM    4  N2  UNK     1      34.339  -3.532  34.635  1.00  0.00    -0.191 NA
HETATM    5  C1  UNK     1      32.524  -6.501  35.447  1.00  0.00     0.109 C 
HETATM    6  C2  UNK     1      31.544  -7.255  36.327  1.00  0.00     0.066 A 
HETATM    7  C4  UNK     1      30.633  -6.593  37.057  1.00  0.00     0.104 A 
HETATM    8  C5  UNK     1      32.486  -4.997  35.698  1.00  0.00     0.086 C 
HETATM    9  C6  UNK     1      29.665  -7.308  37.885  1.00  0.00     0.033 A 
HETATM   10  C7  UNK     1      31.526  -4.435  36.468  1.00  0.00     0.159 C 
HETATM   11  C8  UNK     1      31.635  -8.737  36.384  1.00  0.00     0.298 A 
HETATM   12  C10 UNK     1      29.720  -8.699  37.910  1.00  0.00     0.092 A 
HETATM   13  C13 UNK     1      28.681  -6.672  38.651  1.00  0.00     0.017 A 
HETATM   14  C16 UNK     1      28.832  -9.463  38.668  1.00  0.00     0.038 A 
HETATM   15  C17 UNK     1      33.509  -4.187  35.111  1.00  0.00     0.100 C 
HETATM   16  C18 UNK     1      27.783  -7.423  39.416  1.00  0.00     0.001 A 
HETATM   17  C20 UNK     1      27.858  -8.817  39.424  1.00  0.00     0.003 A 
ENDROOT
BRANCH   5  18
HETATM   18  C3  UNK     1      32.260  -6.790  33.999  1.00  0.00    -0.043 A 
HETATM   19  C11 UNK     1      30.971  -6.658  33.495  1.00  0.00     0.008 A 
HETATM   20  C14 UNK     1      30.725  -6.927  32.149  1.00  0.00     0.001 A 
HETATM   21  C15 UNK     1      31.770  -7.325  31.315  1.00  0.00     0.016 A 
HETATM   22  C12 UNK     1      33.061  -7.454  31.827  1.00  0.00     0.048 A 
HETATM   23  C9  UNK     1      33.307  -7.185  33.174  1.00  0.00     0.024 A 
BRANCH  22  24
HETATM   24  C19 UNK     1      34.177  -7.880  30.935  1.00  0.00     0.417 C 
HETATM   25  F1  UNK     1      35.395  -7.758  31.527  1.00  0.00    -0.166 F 
HETATM   26  F2  UNK     1      34.073  -9.179  30.548  1.00  0.00    -0.166 F 
HETATM   27  F3  UNK     1      34.219  -7.137  29.799  1.00  0.00    -0.166 F 
ENDBRANCH  22  24
ENDBRANCH   5  18
BRANCH  10  28
HETATM   28  N1  UNK     1      31.409  -3.098  36.730  1.00  0.00    -0.379 N 
HETATM   29  H10 UNK     1      31.408  -2.446  35.955  1.00  0.00     0.158 HD
HETATM   30  H9  UNK     1      31.326  -2.757  37.679  1.00  0.00     0.158 HD
ENDBRANCH  10  28
TORSDOF 3
ENDMDL
