MODEL 1
REMARK VINA RESULT:     -10.5      0.000      0.000
REMARK  8 active torsions:
REMARK  status: ('A' for Active; 'I' for Inactive)
REMARK    1  A    between atoms: C18_26  and  O3_3 
REMARK    2  A    between atoms: C23_31  and  O3_3 
REMARK    3  A    between atoms: C26_34  and  O5_5 
REMARK    4  A    between atoms: C5_13  and  N1_6 
REMARK    5  A    between atoms: C6_14  and  N2_7 
REMARK    6  A    between atoms: C5_13  and  C7_15 
REMARK    7  A    between atoms: C6_14  and  C8_16 
REMARK    8  A    between atoms: C14_22  and  C20_28 
ROOT
HETATM    1  N1  UNK     1      19.009  -0.971  35.141  1.00  0.00     0.096 N 
HETATM    2  N2  UNK     1      19.620  -3.417  36.556  1.00  0.00     0.097 N 
HETATM    3  C1  UNK     1      19.598  -2.125  34.450  1.00  0.00     0.303 C 
HETATM    4  C2  UNK     1      18.195  -1.416  36.279  1.00  0.00     0.303 C 
HETATM    5  C3  UNK     1      20.433  -2.971  35.418  1.00  0.00     0.303 C 
HETATM    6  C4  UNK     1      19.029  -2.264  37.247  1.00  0.00     0.303 C 
ENDROOT
BRANCH   1   7
HETATM    7  C5  UNK     1      18.213  -0.164  34.218  1.00  0.00     0.312 C 
BRANCH   7   8
HETATM    8  C7  UNK     1      18.760  -0.189  32.833  1.00  0.00    -0.011 A 
HETATM    9  C11 UNK     1      19.304  -1.303  32.324  1.00  0.00     0.092 A 
HETATM   10  C15 UNK     1      19.858  -1.376  30.961  1.00  0.00     0.288 A 
HETATM   11  O2  UNK     1      19.796  -0.218  30.201  1.00  0.00    -0.275 OA
HETATM   12  O4  UNK     1      20.348  -2.414  30.528  1.00  0.00    -0.260 OA
HETATM   13  C12 UNK     1      19.231   0.968  30.709  1.00  0.00     0.090 A 
HETATM   14  C9  UNK     1      18.711   1.022  32.003  1.00  0.00     0.009 A 
HETATM   15  C17 UNK     1      19.224   2.073  29.856  1.00  0.00     0.041 A 
HETATM   16  C13 UNK     1      18.168   2.240  32.435  1.00  0.00     0.051 A 
HETATM   17  C18 UNK     1      18.154   3.356  31.590  1.00  0.00     0.069 A 
HETATM   18  C19 UNK     1      18.681   3.272  30.303  1.00  0.00     0.039 A 
BRANCH  17  19
HETATM   19  O3  UNK     1      17.622   4.531  32.029  1.00  0.00    -0.351 OA
BRANCH  19  20
HETATM   20  C23 UNK     1      18.291   5.184  33.107  1.00  0.00     0.171 C 
HETATM   21  C27 UNK     1      19.448   5.988  32.555  1.00  0.00     0.034 C 
ENDBRANCH  19  20
ENDBRANCH  17  19
ENDBRANCH   7   8
ENDBRANCH   1   7
BRANCH   2  22
HETATM   22  C6  UNK     1      20.417  -4.222  37.480  1.00  0.00     0.334 C 
BRANCH  22  23
HETATM   23  C8  UNK     1      20.351  -5.656  37.065  1.00  0.00     0.095 A 
HETATM   24  C10 UNK     1      19.248  -6.427  36.794  1.00  0.00     0.078 A 
HETATM   25  O1  UNK     1      19.681  -7.673  36.455  1.00  0.00    -0.294 OA
HETATM   26  C16 UNK     1      17.798  -6.200  36.793  1.00  0.00     0.079 C 
HETATM   27  C14 UNK     1      21.035  -7.576  36.544  1.00  0.00     0.180 A 
HETATM   28  N3  UNK     1      21.493  -6.398  36.903  1.00  0.00    -0.224 NA
BRANCH  27  29
HETATM   29  C20 UNK     1      21.757  -8.777  36.232  1.00  0.00     0.017 A 
HETATM   30  C21 UNK     1      23.020  -8.995  36.783  1.00  0.00     0.018 A 
HETATM   31  C24 UNK     1      23.721 -10.163  36.481  1.00  0.00     0.037 A 
HETATM   32  C26 UNK     1      23.158 -11.113  35.629  1.00  0.00     0.068 A 
HETATM   33  C25 UNK     1      21.894 -10.896  35.078  1.00  0.00     0.037 A 
HETATM   34  C22 UNK     1      21.194  -9.728  35.380  1.00  0.00     0.018 A 
BRANCH  32  35
HETATM   35  O5  UNK     1      23.842 -12.252  35.335  1.00  0.00    -0.356 OA
HETATM   36  C28 UNK     1      24.817 -12.687  36.283  1.00  0.00     0.210 C 
ENDBRANCH  32  35
ENDBRANCH  27  29
ENDBRANCH  22  23
ENDBRANCH   2  22
TORSDOF 8
ENDMDL
MODEL 2
REMARK VINA RESULT:     -10.3      7.016     10.863
REMARK  8 active torsions:
REMARK  status: ('A' for Active; 'I' for Inactive)
REMARK    1  A    between atoms: C18_26  and  O3_3 
REMARK    2  A    between atoms: C23_31  and  O3_3 
REMARK    3  A    between atoms: C26_34  and  O5_5 
REMARK    4  A    between atoms: C5_13  and  N1_6 
REMARK    5  A    between atoms: C6_14  and  N2_7 
REMARK    6  A    between atoms: C5_13  and  C7_15 
REMARK    7  A    between atoms: C6_14  and  C8_16 
REMARK    8  A    between atoms: C14_22  and  C20_28 
ROOT
HETATM    1  N1  UNK     1      25.196  -8.023  38.705  1.00  0.00     0.096 N 
HETATM    2  N2  UNK     1      28.062  -7.706  38.917  1.00  0.00     0.097 N 
HETATM    3  C1  UNK     1      26.034  -9.059  39.321  1.00  0.00     0.303 C 
HETATM    4  C2  UNK     1      25.805  -6.699  38.883  1.00  0.00     0.303 C 
HETATM    5  C3  UNK     1      27.451  -9.030  38.740  1.00  0.00     0.303 C 
HETATM    6  C4  UNK     1      27.224  -6.669  38.303  1.00  0.00     0.303 C 
ENDROOT
BRANCH   1   7
HETATM    7  C5  UNK     1      23.844  -8.050  39.260  1.00  0.00     0.312 C 
BRANCH   7   8
HETATM    8  C7  UNK     1      22.832  -7.525  38.302  1.00  0.00    -0.011 A 
HETATM    9  C11 UNK     1      22.253  -6.331  38.491  1.00  0.00     0.092 A 
HETATM   10  C15 UNK     1      21.248  -5.771  37.572  1.00  0.00     0.288 A 
HETATM   11  O2  UNK     1      20.911  -6.543  36.472  1.00  0.00    -0.275 OA
HETATM   12  O4  UNK     1      20.739  -4.674  37.778  1.00  0.00    -0.260 OA
HETATM   13  C12 UNK     1      21.502  -7.802  36.246  1.00  0.00     0.090 A 
HETATM   14  C9  UNK     1      22.452  -8.321  37.127  1.00  0.00     0.009 A 
HETATM   15  C17 UNK     1      21.085  -8.493  35.107  1.00  0.00     0.041 A 
HETATM   16  C13 UNK     1      22.992  -9.581  36.833  1.00  0.00     0.051 A 
HETATM   17  C18 UNK     1      22.583 -10.285  35.693  1.00  0.00     0.069 A 
HETATM   18  C19 UNK     1      21.633  -9.742  34.832  1.00  0.00     0.039 A 
BRANCH  17  19
HETATM   19  O3  UNK     1      23.120 -11.508  35.426  1.00  0.00    -0.351 OA
BRANCH  19  20
HETATM   20  C23 UNK     1      24.412 -11.782  35.964  1.00  0.00     0.171 C 
HETATM   21  C27 UNK     1      24.629 -13.280  35.991  1.00  0.00     0.034 C 
ENDBRANCH  19  20
ENDBRANCH  17  19
ENDBRANCH   7   8
ENDBRANCH   1   7
BRANCH   2  22
HETATM   22  C6  UNK     1      29.413  -7.679  38.361  1.00  0.00     0.334 C 
BRANCH  22  23
HETATM   23  C8  UNK     1      29.352  -7.211  36.943  1.00  0.00     0.095 A 
HETATM   24  C10 UNK     1      29.753  -6.010  36.412  1.00  0.00     0.078 A 
HETATM   25  O1  UNK     1      29.501  -6.040  35.073  1.00  0.00    -0.294 OA
HETATM   26  C16 UNK     1      30.355  -4.786  36.952  1.00  0.00     0.079 C 
HETATM   27  C14 UNK     1      28.958  -7.272  34.877  1.00  0.00     0.180 A 
HETATM   28  N3  UNK     1      28.844  -8.014  35.955  1.00  0.00    -0.224 NA
BRANCH  27  29
HETATM   29  C20 UNK     1      28.591  -7.570  33.521  1.00  0.00     0.017 A 
HETATM   30  C21 UNK     1      28.884  -8.822  32.980  1.00  0.00     0.018 A 
HETATM   31  C24 UNK     1      28.526  -9.113  31.662  1.00  0.00     0.037 A 
HETATM   32  C26 UNK     1      27.875  -8.152  30.889  1.00  0.00     0.068 A 
HETATM   33  C25 UNK     1      27.582  -6.900  31.431  1.00  0.00     0.037 A 
HETATM   34  C22 UNK     1      27.940  -6.609  32.747  1.00  0.00     0.018 A 
BRANCH  32  35
HETATM   35  O5  UNK     1      27.527  -8.436  29.604  1.00  0.00    -0.356 OA
HETATM   36  C28 UNK     1      28.256  -9.473  28.949  1.00  0.00     0.210 C 
ENDBRANCH  32  35
ENDBRANCH  27  29
ENDBRANCH  22  23
ENDBRANCH   2  22
TORSDOF 8
ENDMDL
MODEL 3
REMARK VINA RESULT:     -10.1      6.267     13.888
REMARK  8 active torsions:
REMARK  status: ('A' for Active; 'I' for Inactive)
REMARK    1  A    between atoms: C18_26  and  O3_3 
REMARK    2  A    between atoms: C23_31  and  O3_3 
REMARK    3  A    between atoms: C26_34  and  O5_5 
REMARK    4  A    between atoms: C5_13  and  N1_6 
REMARK    5  A    between atoms: C6_14  and  N2_7 
REMARK    6  A    between atoms: C5_13  and  C7_15 
REMARK    7  A    between atoms: C6_14  and  C8_16 
REMARK    8  A    between atoms: C14_22  and  C20_28 
ROOT
HETATM    1  N1  UNK     1      18.841   3.635  31.452  1.00  0.00     0.096 N 
HETATM    2  N2  UNK     1      19.208   6.239  32.652  1.00  0.00     0.097 N 
HETATM    3  C1  UNK     1      18.061   4.051  32.624  1.00  0.00     0.303 C 
HETATM    4  C2  UNK     1      19.210   4.801  30.642  1.00  0.00     0.303 C 
HETATM    5  C3  UNK     1      18.839   5.071  33.462  1.00  0.00     0.303 C 
HETATM    6  C4  UNK     1      19.987   5.824  31.479  1.00  0.00     0.303 C 
ENDROOT
BRANCH   1   7
HETATM    7  C5  UNK     1      18.099   2.661  30.653  1.00  0.00     0.312 C 
BRANCH   7   8
HETATM    8  C7  UNK     1      18.817   1.361  30.541  1.00  0.00    -0.011 A 
HETATM    9  C11 UNK     1      19.402   0.990  29.393  1.00  0.00     0.092 A 
HETATM   10  C15 UNK     1      20.122  -0.286  29.235  1.00  0.00     0.288 A 
HETATM   11  O2  UNK     1      20.176  -1.112  30.346  1.00  0.00    -0.275 OA
HETATM   12  O4  UNK     1      20.645  -0.592  28.169  1.00  0.00    -0.260 OA
HETATM   13  C12 UNK     1      19.571  -0.749  31.566  1.00  0.00     0.090 A 
HETATM   14  C9  UNK     1      18.891   0.462  31.700  1.00  0.00     0.009 A 
HETATM   15  C17 UNK     1      19.687  -1.660  32.617  1.00  0.00     0.041 A 
HETATM   16  C13 UNK     1      18.315   0.749  32.946  1.00  0.00     0.051 A 
HETATM   17  C18 UNK     1      18.424  -0.155  34.009  1.00  0.00     0.069 A 
HETATM   18  C19 UNK     1      19.109  -1.357  33.845  1.00  0.00     0.039 A 
BRANCH  17  19
HETATM   19  O3  UNK     1      17.856   0.143  35.211  1.00  0.00    -0.351 OA
BRANCH  19  20
HETATM   20  C23 UNK     1      18.622   0.943  36.109  1.00  0.00     0.171 C 
HETATM   21  C27 UNK     1      17.695   1.563  37.132  1.00  0.00     0.034 C 
ENDBRANCH  19  20
ENDBRANCH  17  19
ENDBRANCH   7   8
ENDBRANCH   1   7
BRANCH   2  22
HETATM   22  C6  UNK     1      19.952   7.211  33.451  1.00  0.00     0.334 C 
BRANCH  22  23
HETATM   23  C8  UNK     1      19.078   8.392  33.728  1.00  0.00     0.095 A 
HETATM   24  C10 UNK     1      19.423   9.624  34.226  1.00  0.00     0.078 A 
HETATM   25  O1  UNK     1      18.290  10.376  34.305  1.00  0.00    -0.294 OA
HETATM   26  C16 UNK     1      20.675  10.253  34.661  1.00  0.00     0.079 C 
HETATM   27  C14 UNK     1      17.320   9.541  33.844  1.00  0.00     0.180 A 
HETATM   28  N3  UNK     1      17.730   8.345  33.485  1.00  0.00    -0.224 NA
BRANCH  27  29
HETATM   29  C20 UNK     1      15.996  10.096  33.821  1.00  0.00     0.017 A 
HETATM   30  C21 UNK     1      15.725  11.282  34.503  1.00  0.00     0.018 A 
HETATM   31  C24 UNK     1      14.438  11.822  34.479  1.00  0.00     0.037 A 
HETATM   32  C26 UNK     1      13.424  11.175  33.773  1.00  0.00     0.068 A 
HETATM   33  C25 UNK     1      13.695   9.989  33.090  1.00  0.00     0.037 A 
HETATM   34  C22 UNK     1      14.981   9.449  33.114  1.00  0.00     0.018 A 
BRANCH  32  35
HETATM   35  O5  UNK     1      12.169  11.702  33.751  1.00  0.00    -0.356 OA
HETATM   36  C28 UNK     1      11.898  12.769  34.658  1.00  0.00     0.210 C 
ENDBRANCH  32  35
ENDBRANCH  27  29
ENDBRANCH  22  23
ENDBRANCH   2  22
TORSDOF 8
ENDMDL
MODEL 4
REMARK VINA RESULT:     -10.0      6.217     11.764
REMARK  8 active torsions:
REMARK  status: ('A' for Active; 'I' for Inactive)
REMARK    1  A    between atoms: C18_26  and  O3_3 
REMARK    2  A    between atoms: C23_31  and  O3_3 
REMARK    3  A    between atoms: C26_34  and  O5_5 
REMARK    4  A    between atoms: C5_13  and  N1_6 
REMARK    5  A    between atoms: C6_14  and  N2_7 
REMARK    6  A    between atoms: C5_13  and  C7_15 
REMARK    7  A    between atoms: C6_14  and  C8_16 
REMARK    8  A    between atoms: C14_22  and  C20_28 
ROOT
HETATM    1  N1  UNK     1      16.300   8.859  33.577  1.00  0.00     0.096 N 
HETATM    2  N2  UNK     1      17.582   6.443  32.642  1.00  0.00     0.097 N 
HETATM    3  C1  UNK     1      15.530   7.633  33.333  1.00  0.00     0.303 C 
HETATM    4  C2  UNK     1      17.677   8.530  33.961  1.00  0.00     0.303 C 
HETATM    5  C3  UNK     1      16.203   6.772  32.259  1.00  0.00     0.303 C 
HETATM    6  C4  UNK     1      18.352   7.668  32.888  1.00  0.00     0.303 C 
ENDROOT
BRANCH   1   7
HETATM    7  C5  UNK     1      15.657   9.680  34.601  1.00  0.00     0.312 C 
BRANCH   7   8
HETATM    8  C7  UNK     1      14.810  10.754  34.012  1.00  0.00    -0.011 A 
HETATM    9  C11 UNK     1      13.543  10.514  33.647  1.00  0.00     0.092 A 
HETATM   10  C15 UNK     1      12.668  11.543  33.060  1.00  0.00     0.288 A 
HETATM   11  O2  UNK     1      13.216  12.805  32.893  1.00  0.00    -0.275 OA
HETATM   12  O4  UNK     1      11.512  11.287  32.738  1.00  0.00    -0.260 OA
HETATM   13  C12 UNK     1      14.545  13.088  33.267  1.00  0.00     0.090 A 
HETATM   14  C9  UNK     1      15.363  12.102  33.821  1.00  0.00     0.009 A 
HETATM   15  C17 UNK     1      14.990  14.393  33.052  1.00  0.00     0.041 A 
HETATM   16  C13 UNK     1      16.673  12.462  34.165  1.00  0.00     0.051 A 
HETATM   17  C18 UNK     1      17.134  13.767  33.955  1.00  0.00     0.069 A 
HETATM   18  C19 UNK     1      16.294  14.730  33.400  1.00  0.00     0.039 A 
BRANCH  17  19
HETATM   19  O3  UNK     1      18.411  14.097  34.296  1.00  0.00    -0.351 OA
BRANCH  19  20
HETATM   20  C23 UNK     1      19.187  14.785  33.316  1.00  0.00     0.171 C 
HETATM   21  C27 UNK     1      19.675  16.092  33.902  1.00  0.00     0.034 C 
ENDBRANCH  19  20
ENDBRANCH  17  19
ENDBRANCH   7   8
ENDBRANCH   1   7
BRANCH   2  22
HETATM   22  C6  UNK     1      18.224   5.623  31.616  1.00  0.00     0.334 C 
BRANCH  22  23
HETATM   23  C8  UNK     1      18.216   4.193  32.052  1.00  0.00     0.095 A 
HETATM   24  C10 UNK     1      18.271   3.056  31.284  1.00  0.00     0.078 A 
HETATM   25  O1  UNK     1      18.237   1.983  32.123  1.00  0.00    -0.294 OA
HETATM   26  C16 UNK     1      18.353   2.778  29.846  1.00  0.00     0.079 C 
HETATM   27  C14 UNK     1      18.163   2.546  33.359  1.00  0.00     0.180 A 
HETATM   28  N3  UNK     1      18.147   3.860  33.380  1.00  0.00    -0.224 NA
BRANCH  27  29
HETATM   29  C20 UNK     1      18.113   1.617  34.453  1.00  0.00     0.017 A 
HETATM   30  C21 UNK     1      18.025   0.248  34.201  1.00  0.00     0.018 A 
HETATM   31  C24 UNK     1      17.978  -0.655  35.264  1.00  0.00     0.037 A 
HETATM   32  C26 UNK     1      18.019  -0.188  36.578  1.00  0.00     0.068 A 
HETATM   33  C25 UNK     1      18.108   1.182  36.830  1.00  0.00     0.037 A 
HETATM   34  C22 UNK     1      18.155   2.084  35.767  1.00  0.00     0.018 A 
BRANCH  32  35
HETATM   35  O5  UNK     1      17.973  -1.069  37.614  1.00  0.00    -0.356 OA
HETATM   36  C28 UNK     1      18.799  -2.229  37.516  1.00  0.00     0.210 C 
ENDBRANCH  32  35
ENDBRANCH  27  29
ENDBRANCH  22  23
ENDBRANCH   2  22
TORSDOF 8
ENDMDL
MODEL 5
REMARK VINA RESULT:      -9.9      2.866     11.383
REMARK  8 active torsions:
REMARK  status: ('A' for Active; 'I' for Inactive)
REMARK    1  A    between atoms: C18_26  and  O3_3 
REMARK    2  A    between atoms: C23_31  and  O3_3 
REMARK    3  A    between atoms: C26_34  and  O5_5 
REMARK    4  A    between atoms: C5_13  and  N1_6 
REMARK    5  A    between atoms: C6_14  and  N2_7 
REMARK    6  A    between atoms: C5_13  and  C7_15 
REMARK    7  A    between atoms: C6_14  and  C8_16 
REMARK    8  A    between atoms: C14_22  and  C20_28 
ROOT
HETATM    1  N1  UNK     1      19.588  -3.624  36.221  1.00  0.00     0.096 N 
HETATM    2  N2  UNK     1      19.052  -0.876  36.943  1.00  0.00     0.097 N 
HETATM    3  C1  UNK     1      19.997  -2.513  35.352  1.00  0.00     0.303 C 
HETATM    4  C2  UNK     1      19.568  -3.195  37.624  1.00  0.00     0.303 C 
HETATM    5  C3  UNK     1      19.072  -1.306  35.539  1.00  0.00     0.303 C 
HETATM    6  C4  UNK     1      18.644  -1.986  37.813  1.00  0.00     0.303 C 
ENDROOT
BRANCH   1   7
HETATM    7  C5  UNK     1      20.470  -4.775  36.042  1.00  0.00     0.312 C 
BRANCH   7   8
HETATM    8  C7  UNK     1      19.768  -6.065  36.290  1.00  0.00    -0.011 A 
HETATM    9  C11 UNK     1      18.684  -6.411  35.581  1.00  0.00     0.092 A 
HETATM   10  C15 UNK     1      17.956  -7.674  35.790  1.00  0.00     0.288 A 
HETATM   11  O2  UNK     1      18.446  -8.519  36.773  1.00  0.00    -0.275 OA
HETATM   12  O4  UNK     1      16.967  -7.957  35.121  1.00  0.00    -0.260 OA
HETATM   13  C12 UNK     1      19.582  -8.183  37.535  1.00  0.00     0.090 A 
HETATM   14  C9  UNK     1      20.261  -6.982  37.327  1.00  0.00     0.009 A 
HETATM   15  C17 UNK     1      19.984  -9.109  38.499  1.00  0.00     0.041 A 
HETATM   16  C13 UNK     1      21.382  -6.721  38.127  1.00  0.00     0.051 A 
HETATM   17  C18 UNK     1      21.796  -7.640  39.098  1.00  0.00     0.069 A 
HETATM   18  C19 UNK     1      21.099  -8.832  39.283  1.00  0.00     0.039 A 
BRANCH  17  19
HETATM   19  O3  UNK     1      22.889  -7.367  39.865  1.00  0.00    -0.351 OA
BRANCH  19  20
HETATM   20  C23 UNK     1      24.059  -6.911  39.189  1.00  0.00     0.171 C 
HETATM   21  C27 UNK     1      24.873  -8.108  38.748  1.00  0.00     0.034 C 
ENDBRANCH  19  20
ENDBRANCH  17  19
ENDBRANCH   7   8
ENDBRANCH   1   7
BRANCH   2  22
HETATM   22  C6  UNK     1      18.168   0.274  37.121  1.00  0.00     0.334 C 
BRANCH  22  23
HETATM   23  C8  UNK     1      17.784   0.812  35.781  1.00  0.00     0.095 A 
HETATM   24  C10 UNK     1      16.745   0.439  34.965  1.00  0.00     0.078 A 
HETATM   25  O1  UNK     1      16.794   1.212  33.844  1.00  0.00    -0.294 OA
HETATM   26  C16 UNK     1      15.668  -0.554  35.047  1.00  0.00     0.079 C 
HETATM   27  C14 UNK     1      17.872   2.014  34.056  1.00  0.00     0.180 A 
HETATM   28  N3  UNK     1      18.502   1.822  35.193  1.00  0.00    -0.224 NA
BRANCH  27  29
HETATM   29  C20 UNK     1      18.157   2.947  33.003  1.00  0.00     0.017 A 
HETATM   30  C21 UNK     1      18.229   4.312  33.281  1.00  0.00     0.018 A 
HETATM   31  C24 UNK     1      18.507   5.219  32.258  1.00  0.00     0.037 A 
HETATM   32  C26 UNK     1      18.714   4.760  30.957  1.00  0.00     0.068 A 
HETATM   33  C25 UNK     1      18.643   3.395  30.678  1.00  0.00     0.037 A 
HETATM   34  C22 UNK     1      18.364   2.488  31.701  1.00  0.00     0.018 A 
BRANCH  32  35
HETATM   35  O5  UNK     1      18.985   5.645  29.959  1.00  0.00    -0.356 OA
HETATM   36  C28 UNK     1      20.345   6.045  29.799  1.00  0.00     0.210 C 
ENDBRANCH  32  35
ENDBRANCH  27  29
ENDBRANCH  22  23
ENDBRANCH   2  22
TORSDOF 8
ENDMDL
MODEL 6
REMARK VINA RESULT:      -9.9      5.986     14.287
REMARK  8 active torsions:
REMARK  status: ('A' for Active; 'I' for Inactive)
REMARK    1  A    between atoms: C18_26  and  O3_3 
REMARK    2  A    between atoms: C23_31  and  O3_3 
REMARK    3  A    between atoms: C26_34  and  O5_5 
REMARK    4  A    between atoms: C5_13  and  N1_6 
REMARK    5  A    between atoms: C6_14  and  N2_7 
REMARK    6  A    between atoms: C5_13  and  C7_15 
REMARK    7  A    between atoms: C6_14  and  C8_16 
REMARK    8  A    between atoms: C14_22  and  C20_28 
ROOT
HETATM    1  N1  UNK     1      18.739   3.182  31.294  1.00  0.00     0.096 N 
HETATM    2  N2  UNK     1      18.732   5.883  32.324  1.00  0.00     0.097 N 
HETATM    3  C1  UNK     1      17.886   3.563  32.426  1.00  0.00     0.303 C 
HETATM    4  C2  UNK     1      18.966   4.334  30.413  1.00  0.00     0.303 C 
HETATM    5  C3  UNK     1      18.505   4.730  33.204  1.00  0.00     0.303 C 
HETATM    6  C4  UNK     1      19.582   5.502  31.190  1.00  0.00     0.303 C 
ENDROOT
BRANCH   1   7
HETATM    7  C5  UNK     1      18.149   2.069  30.551  1.00  0.00     0.312 C 
BRANCH   7   8
HETATM    8  C7  UNK     1      19.065   0.897  30.473  1.00  0.00    -0.011 A 
HETATM    9  C11 UNK     1      19.794   0.661  29.373  1.00  0.00     0.092 A 
HETATM   10  C15 UNK     1      20.713  -0.484  29.248  1.00  0.00     0.288 A 
HETATM   11  O2  UNK     1      20.799  -1.333  30.340  1.00  0.00    -0.275 OA
HETATM   12  O4  UNK     1      21.364  -0.668  28.226  1.00  0.00    -0.260 OA
HETATM   13  C12 UNK     1      20.045  -1.112  31.509  1.00  0.00     0.090 A 
HETATM   14  C9  UNK     1      19.178  -0.023  31.612  1.00  0.00     0.009 A 
HETATM   15  C17 UNK     1      20.212  -2.033  32.544  1.00  0.00     0.041 A 
HETATM   16  C13 UNK     1      18.462   0.127  32.808  1.00  0.00     0.051 A 
HETATM   17  C18 UNK     1      18.619  -0.789  33.855  1.00  0.00     0.069 A 
HETATM   18  C19 UNK     1      19.492  -1.867  33.723  1.00  0.00     0.039 A 
BRANCH  17  19
HETATM   19  O3  UNK     1      17.914  -0.626  35.009  1.00  0.00    -0.351 OA
BRANCH  19  20
HETATM   20  C23 UNK     1      17.140   0.567  35.132  1.00  0.00     0.171 C 
HETATM   21  C27 UNK     1      15.712   0.196  35.468  1.00  0.00     0.034 C 
ENDBRANCH  19  20
ENDBRANCH  17  19
ENDBRANCH   7   8
ENDBRANCH   1   7
BRANCH   2  22
HETATM   22  C6  UNK     1      19.323   6.994  33.066  1.00  0.00     0.334 C 
BRANCH  22  23
HETATM   23  C8  UNK     1      18.327   8.104  33.168  1.00  0.00     0.095 A 
HETATM   24  C10 UNK     1      17.078   8.197  32.606  1.00  0.00     0.078 A 
HETATM   25  O1  UNK     1      16.539   9.392  32.978  1.00  0.00    -0.294 OA
HETATM   26  C16 UNK     1      16.260   7.334  31.747  1.00  0.00     0.079 C 
HETATM   27  C14 UNK     1      17.509   9.952  33.750  1.00  0.00     0.180 A 
HETATM   28  N3  UNK     1      18.598   9.231  33.899  1.00  0.00    -0.224 NA
BRANCH  27  29
HETATM   29  C20 UNK     1      17.195  11.248  34.284  1.00  0.00     0.017 A 
HETATM   30  C21 UNK     1      15.938  11.486  34.840  1.00  0.00     0.018 A 
HETATM   31  C24 UNK     1      15.632  12.745  35.360  1.00  0.00     0.037 A 
HETATM   32  C26 UNK     1      16.585  13.764  35.323  1.00  0.00     0.068 A 
HETATM   33  C25 UNK     1      17.842  13.526  34.767  1.00  0.00     0.037 A 
HETATM   34  C22 UNK     1      18.147  12.268  34.247  1.00  0.00     0.018 A 
BRANCH  32  35
HETATM   35  O5  UNK     1      16.286  14.991  35.830  1.00  0.00    -0.356 OA
HETATM   36  C28 UNK     1      15.570  15.887  34.980  1.00  0.00     0.210 C 
ENDBRANCH  32  35
ENDBRANCH  27  29
ENDBRANCH  22  23
ENDBRANCH   2  22
TORSDOF 8
ENDMDL
MODEL 7
REMARK VINA RESULT:      -9.9     24.830     28.352
REMARK  8 active torsions:
REMARK  status: ('A' for Active; 'I' for Inactive)
REMARK    1  A    between atoms: C18_26  and  O3_3 
REMARK    2  A    between atoms: C23_31  and  O3_3 
REMARK    3  A    between atoms: C26_34  and  O5_5 
REMARK    4  A    between atoms: C5_13  and  N1_6 
REMARK    5  A    between atoms: C6_14  and  N2_7 
REMARK    6  A    between atoms: C5_13  and  C7_15 
REMARK    7  A    between atoms: C6_14  and  C8_16 
REMARK    8  A    between atoms: C14_22  and  C20_28 
ROOT
HETATM    1  N1  UNK     1      11.810   6.277   7.471  1.00  0.00     0.096 N 
HETATM    2  N2  UNK     1       9.006   6.116   8.158  1.00  0.00     0.097 N 
HETATM    3  C1  UNK     1      10.776   6.838   6.592  1.00  0.00     0.303 C 
HETATM    4  C2  UNK     1      11.365   6.309   8.869  1.00  0.00     0.303 C 
HETATM    5  C3  UNK     1       9.452   6.084   6.759  1.00  0.00     0.303 C 
HETATM    6  C4  UNK     1      10.040   5.557   9.038  1.00  0.00     0.303 C 
ENDROOT
BRANCH   1   7
HETATM    7  C5  UNK     1      13.073   6.996   7.312  1.00  0.00     0.312 C 
BRANCH   7   8
HETATM    8  C7  UNK     1      14.046   6.669   8.391  1.00  0.00    -0.011 A 
HETATM    9  C11 UNK     1      14.393   5.400   8.648  1.00  0.00     0.092 A 
HETATM   10  C15 UNK     1      15.350   5.027   9.704  1.00  0.00     0.288 A 
HETATM   11  O2  UNK     1      15.895   6.064  10.444  1.00  0.00    -0.275 OA
HETATM   12  O4  UNK     1      15.644   3.854   9.911  1.00  0.00    -0.260 OA
HETATM   13  C12 UNK     1      15.550   7.408  10.197  1.00  0.00     0.090 A 
HETATM   14  C9  UNK     1      14.640   7.746   9.194  1.00  0.00     0.009 A 
HETATM   15  C17 UNK     1      16.160   8.369  11.005  1.00  0.00     0.041 A 
HETATM   16  C13 UNK     1      14.348   9.104   9.012  1.00  0.00     0.051 A 
HETATM   17  C18 UNK     1      14.952  10.079   9.815  1.00  0.00     0.069 A 
HETATM   18  C19 UNK     1      15.856   9.712  10.808  1.00  0.00     0.039 A 
BRANCH  17  19
HETATM   19  O3  UNK     1      14.654  11.394   9.622  1.00  0.00    -0.351 OA
BRANCH  19  20
HETATM   20  C23 UNK     1      15.693  12.227   9.110  1.00  0.00     0.171 C 
HETATM   21  C27 UNK     1      15.519  12.371   7.614  1.00  0.00     0.034 C 
ENDBRANCH  19  20
ENDBRANCH  17  19
ENDBRANCH   7   8
ENDBRANCH   1   7
BRANCH   2  22
HETATM   22  C6  UNK     1       7.744   5.395   8.317  1.00  0.00     0.334 C 
BRANCH  22  23
HETATM   23  C8  UNK     1       7.266   5.544   9.725  1.00  0.00     0.095 A 
HETATM   24  C10 UNK     1       7.171   6.681  10.489  1.00  0.00     0.078 A 
HETATM   25  O1  UNK     1       6.681   6.325  11.709  1.00  0.00    -0.294 OA
HETATM   26  C16 UNK     1       7.468   8.102  10.276  1.00  0.00     0.079 C 
HETATM   27  C14 UNK     1       6.508   4.980  11.604  1.00  0.00     0.180 A 
HETATM   28  N3  UNK     1       6.840   4.458  10.444  1.00  0.00    -0.224 NA
BRANCH  27  29
HETATM   29  C20 UNK     1       5.990   4.336  12.778  1.00  0.00     0.017 A 
HETATM   30  C21 UNK     1       5.976   5.014  13.996  1.00  0.00     0.018 A 
HETATM   31  C24 UNK     1       5.471   4.389  15.138  1.00  0.00     0.037 A 
HETATM   32  C26 UNK     1       4.979   3.086  15.058  1.00  0.00     0.068 A 
HETATM   33  C25 UNK     1       4.993   2.407  13.839  1.00  0.00     0.037 A 
HETATM   34  C22 UNK     1       5.498   3.032  12.699  1.00  0.00     0.018 A 
BRANCH  32  35
HETATM   35  O5  UNK     1       4.487   2.476  16.171  1.00  0.00    -0.356 OA
HETATM   36  C28 UNK     1       5.310   1.485  16.785  1.00  0.00     0.210 C 
ENDBRANCH  32  35
ENDBRANCH  27  29
ENDBRANCH  22  23
ENDBRANCH   2  22
TORSDOF 8
ENDMDL
MODEL 8
REMARK VINA RESULT:      -9.8     10.939     14.149
REMARK  8 active torsions:
REMARK  status: ('A' for Active; 'I' for Inactive)
REMARK    1  A    between atoms: C18_26  and  O3_3 
REMARK    2  A    between atoms: C23_31  and  O3_3 
REMARK    3  A    between atoms: C26_34  and  O5_5 
REMARK    4  A    between atoms: C5_13  and  N1_6 
REMARK    5  A    between atoms: C6_14  and  N2_7 
REMARK    6  A    between atoms: C5_13  and  C7_15 
REMARK    7  A    between atoms: C6_14  and  C8_16 
REMARK    8  A    between atoms: C14_22  and  C20_28 
ROOT
HETATM    1  N1  UNK     1      32.833  -8.317  29.112  1.00  0.00     0.096 N 
HETATM    2  N2  UNK     1      33.997  -8.320  31.759  1.00  0.00     0.097 N 
HETATM    3  C1  UNK     1      32.296  -9.169  30.180  1.00  0.00     0.303 C 
HETATM    4  C2  UNK     1      33.439  -7.106  29.679  1.00  0.00     0.303 C 
HETATM    5  C3  UNK     1      33.390  -9.530  31.191  1.00  0.00     0.303 C 
HETATM    6  C4  UNK     1      34.533  -7.466  30.692  1.00  0.00     0.303 C 
ENDROOT
BRANCH   1   7
HETATM    7  C5  UNK     1      31.790  -7.972  28.148  1.00  0.00     0.312 C 
BRANCH   7   8
HETATM    8  C7  UNK     1      30.448  -8.460  28.573  1.00  0.00    -0.011 A 
HETATM    9  C11 UNK     1      29.967  -9.632  28.134  1.00  0.00     0.092 A 
HETATM   10  C15 UNK     1      28.647 -10.155  28.525  1.00  0.00     0.288 A 
HETATM   11  O2  UNK     1      27.898  -9.371  29.388  1.00  0.00    -0.275 OA
HETATM   12  O4  UNK     1      28.240 -11.233  28.104  1.00  0.00    -0.260 OA
HETATM   13  C12 UNK     1      28.376  -8.135  29.865  1.00  0.00     0.090 A 
HETATM   14  C9  UNK     1      29.628  -7.651  29.485  1.00  0.00     0.009 A 
HETATM   15  C17 UNK     1      27.535  -7.430  30.728  1.00  0.00     0.041 A 
HETATM   16  C13 UNK     1      30.032  -6.412  30.002  1.00  0.00     0.051 A 
HETATM   17  C18 UNK     1      29.198  -5.694  30.868  1.00  0.00     0.069 A 
HETATM   18  C19 UNK     1      27.953  -6.202  31.230  1.00  0.00     0.039 A 
BRANCH  17  19
HETATM   19  O3  UNK     1      29.609  -4.491  31.359  1.00  0.00    -0.351 OA
BRANCH  19  20
HETATM   20  C23 UNK     1      30.039  -3.516  30.411  1.00  0.00     0.171 C 
HETATM   21  C27 UNK     1      30.099  -2.163  31.088  1.00  0.00     0.034 C 
ENDBRANCH  19  20
ENDBRANCH  17  19
ENDBRANCH   7   8
ENDBRANCH   1   7
BRANCH   2  22
HETATM   22  C6  UNK     1      35.041  -8.665  32.721  1.00  0.00     0.334 C 
BRANCH  22  23
HETATM   23  C8  UNK     1      34.894  -7.807  33.936  1.00  0.00     0.095 A 
HETATM   24  C10 UNK     1      35.872  -7.240  34.716  1.00  0.00     0.078 A 
HETATM   25  O1  UNK     1      35.259  -6.542  35.713  1.00  0.00    -0.294 OA
HETATM   26  C16 UNK     1      37.339  -7.231  34.697  1.00  0.00     0.079 C 
HETATM   27  C14 UNK     1      33.934  -6.734  35.469  1.00  0.00     0.180 A 
HETATM   28  N3  UNK     1      33.656  -7.479  34.424  1.00  0.00    -0.224 NA
BRANCH  27  29
HETATM   29  C20 UNK     1      33.043  -6.092  36.394  1.00  0.00     0.017 A 
HETATM   30  C21 UNK     1      31.772  -5.697  35.978  1.00  0.00     0.018 A 
HETATM   31  C24 UNK     1      30.905  -5.075  36.878  1.00  0.00     0.037 A 
HETATM   32  C26 UNK     1      31.310  -4.849  38.193  1.00  0.00     0.068 A 
HETATM   33  C25 UNK     1      32.582  -5.245  38.610  1.00  0.00     0.037 A 
HETATM   34  C22 UNK     1      33.448  -5.866  37.711  1.00  0.00     0.018 A 
BRANCH  32  35
HETATM   35  O5  UNK     1      30.464  -4.242  39.070  1.00  0.00    -0.356 OA
HETATM   36  C28 UNK     1      29.081  -4.580  38.976  1.00  0.00     0.210 C 
ENDBRANCH  32  35
ENDBRANCH  27  29
ENDBRANCH  22  23
ENDBRANCH   2  22
TORSDOF 8
ENDMDL
MODEL 9
REMARK VINA RESULT:      -9.8      7.908     12.743
REMARK  8 active torsions:
REMARK  status: ('A' for Active; 'I' for Inactive)
REMARK    1  A    between atoms: C18_26  and  O3_3 
REMARK    2  A    between atoms: C23_31  and  O3_3 
REMARK    3  A    between atoms: C26_34  and  O5_5 
REMARK    4  A    between atoms: C5_13  and  N1_6 
REMARK    5  A    between atoms: C6_14  and  N2_7 
REMARK    6  A    between atoms: C5_13  and  C7_15 
REMARK    7  A    between atoms: C6_14  and  C8_16 
REMARK    8  A    between atoms: C14_22  and  C20_28 
ROOT
HETATM    1  N1  UNK     1      27.028  -9.497  37.432  1.00  0.00     0.096 N 
HETATM    2  N2  UNK     1      29.881  -9.064  37.603  1.00  0.00     0.097 N 
HETATM    3  C1  UNK     1      27.697  -9.332  38.728  1.00  0.00     0.303 C 
HETATM    4  C2  UNK     1      27.751  -8.767  36.385  1.00  0.00     0.303 C 
HETATM    5  C3  UNK     1      29.156  -9.794  38.650  1.00  0.00     0.303 C 
HETATM    6  C4  UNK     1      29.211  -9.227  36.307  1.00  0.00     0.303 C 
ENDROOT
BRANCH   1   7
HETATM    7  C5  UNK     1      25.636  -9.056  37.506  1.00  0.00     0.312 C 
BRANCH   7   8
HETATM    8  C7  UNK     1      24.714  -9.980  36.788  1.00  0.00    -0.011 A 
HETATM    9  C11 UNK     1      25.138 -11.171  36.341  1.00  0.00     0.092 A 
HETATM   10  C15 UNK     1      24.264 -12.117  35.626  1.00  0.00     0.288 A 
HETATM   11  O2  UNK     1      22.951 -11.723  35.427  1.00  0.00    -0.275 OA
HETATM   12  O4  UNK     1      24.687 -13.199  35.231  1.00  0.00    -0.260 OA
HETATM   13  C12 UNK     1      22.476 -10.478  35.885  1.00  0.00     0.090 A 
HETATM   14  C9  UNK     1      23.316  -9.591  36.560  1.00  0.00     0.009 A 
HETATM   15  C17 UNK     1      21.136 -10.186  35.627  1.00  0.00     0.041 A 
HETATM   16  C13 UNK     1      22.769  -8.371  36.982  1.00  0.00     0.051 A 
HETATM   17  C18 UNK     1      21.427  -8.065  36.731  1.00  0.00     0.069 A 
HETATM   18  C19 UNK     1      20.612  -8.970  36.055  1.00  0.00     0.039 A 
BRANCH  17  19
HETATM   19  O3  UNK     1      20.914  -6.874  37.149  1.00  0.00    -0.351 OA
BRANCH  19  20
HETATM   20  C23 UNK     1      21.139  -6.514  38.511  1.00  0.00     0.171 C 
HETATM   21  C27 UNK     1      20.075  -7.159  39.374  1.00  0.00     0.034 C 
ENDBRANCH  19  20
ENDBRANCH  17  19
ENDBRANCH   7   8
ENDBRANCH   1   7
BRANCH   2  22
HETATM   22  C6  UNK     1      31.272  -9.507  37.528  1.00  0.00     0.334 C 
BRANCH  22  23
HETATM   23  C8  UNK     1      32.049  -8.547  36.687  1.00  0.00     0.095 A 
HETATM   24  C10 UNK     1      32.453  -7.269  36.983  1.00  0.00     0.078 A 
HETATM   25  O1  UNK     1      33.136  -6.786  35.908  1.00  0.00    -0.294 OA
HETATM   26  C16 UNK     1      32.309  -6.378  38.139  1.00  0.00     0.079 C 
HETATM   27  C14 UNK     1      33.102  -7.815  35.019  1.00  0.00     0.180 A 
HETATM   28  N3  UNK     1      32.468  -8.891  35.427  1.00  0.00    -0.224 NA
BRANCH  27  29
HETATM   29  C20 UNK     1      33.764  -7.567  33.769  1.00  0.00     0.017 A 
HETATM   30  C21 UNK     1      35.106  -7.187  33.755  1.00  0.00     0.018 A 
HETATM   31  C24 UNK     1      35.751  -6.947  32.540  1.00  0.00     0.037 A 
HETATM   32  C26 UNK     1      35.051  -7.088  31.341  1.00  0.00     0.068 A 
HETATM   33  C25 UNK     1      33.709  -7.469  31.355  1.00  0.00     0.037 A 
HETATM   34  C22 UNK     1      33.066  -7.708  32.569  1.00  0.00     0.018 A 
BRANCH  32  35
HETATM   35  O5  UNK     1      35.680  -6.853  30.157  1.00  0.00    -0.356 OA
HETATM   36  C28 UNK     1      35.097  -7.428  28.988  1.00  0.00     0.210 C 
ENDBRANCH  32  35
ENDBRANCH  27  29
ENDBRANCH  22  23
ENDBRANCH   2  22
TORSDOF 8
ENDMDL
MODEL 10
REMARK VINA RESULT:      -9.8      7.897     12.068
REMARK  8 active torsions:
REMARK  status: ('A' for Active; 'I' for Inactive)
REMARK    1  A    between atoms: C18_26  and  O3_3 
REMARK    2  A    between atoms: C23_31  and  O3_3 
REMARK    3  A    between atoms: C26_34  and  O5_5 
REMARK    4  A    between atoms: C5_13  and  N1_6 
REMARK    5  A    between atoms: C6_14  and  N2_7 
REMARK    6  A    between atoms: C5_13  and  C7_15 
REMARK    7  A    between atoms: C6_14  and  C8_16 
REMARK    8  A    between atoms: C14_22  and  C20_28 
ROOT
HETATM    1  N1  UNK     1      30.357  -7.000  34.823  1.00  0.00     0.096 N 
HETATM    2  N2  UNK     1      28.998  -7.100  37.373  1.00  0.00     0.097 N 
HETATM    3  C1  UNK     1      31.106  -7.081  36.084  1.00  0.00     0.303 C 
HETATM    4  C2  UNK     1      29.047  -7.647  34.963  1.00  0.00     0.303 C 
HETATM    5  C3  UNK     1      30.308  -6.453  37.232  1.00  0.00     0.303 C 
HETATM    6  C4  UNK     1      28.249  -7.021  36.113  1.00  0.00     0.303 C 
ENDROOT
BRANCH   1   7
HETATM    7  C5  UNK     1      31.117  -7.598  33.728  1.00  0.00     0.312 C 
BRANCH   7   8
HETATM    8  C7  UNK     1      30.632  -7.148  32.394  1.00  0.00    -0.011 A 
HETATM    9  C11 UNK     1      30.472  -5.846  32.119  1.00  0.00     0.092 A 
HETATM   10  C15 UNK     1      29.994  -5.353  30.816  1.00  0.00     0.288 A 
HETATM   11  O2  UNK     1      29.708  -6.310  29.856  1.00  0.00    -0.275 OA
HETATM   12  O4  UNK     1      29.860  -4.153  30.600  1.00  0.00    -0.260 OA
HETATM   13  C12 UNK     1      29.865  -7.686  30.115  1.00  0.00     0.090 A 
HETATM   14  C9  UNK     1      30.317  -8.138  31.355  1.00  0.00     0.009 A 
HETATM   15  C17 UNK     1      29.545  -8.559  29.074  1.00  0.00     0.041 A 
HETATM   16  C13 UNK     1      30.446  -9.522  31.535  1.00  0.00     0.051 A 
HETATM   17  C18 UNK     1      30.129 -10.410  30.500  1.00  0.00     0.069 A 
HETATM   18  C19 UNK     1      29.679  -9.929  29.272  1.00  0.00     0.039 A 
BRANCH  17  19
HETATM   19  O3  UNK     1      30.260 -11.752  30.695  1.00  0.00    -0.351 OA
BRANCH  19  20
HETATM   20  C23 UNK     1      30.348 -12.205  32.044  1.00  0.00     0.171 C 
HETATM   21  C27 UNK     1      30.737 -13.668  32.049  1.00  0.00     0.034 C 
ENDBRANCH  19  20
ENDBRANCH  17  19
ENDBRANCH   7   8
ENDBRANCH   1   7
BRANCH   2  22
HETATM   22  C6  UNK     1      28.237  -6.499  38.467  1.00  0.00     0.334 C 
BRANCH  22  23
HETATM   23  C8  UNK     1      27.011  -7.316  38.721  1.00  0.00     0.095 A 
HETATM   24  C10 UNK     1      26.905  -8.558  39.295  1.00  0.00     0.078 A 
HETATM   25  O1  UNK     1      25.585  -8.898  39.315  1.00  0.00    -0.294 OA
HETATM   26  C16 UNK     1      27.853  -9.528  39.853  1.00  0.00     0.079 C 
HETATM   27  C14 UNK     1      24.971  -7.826  38.745  1.00  0.00     0.180 A 
HETATM   28  N3  UNK     1      25.770  -6.852  38.370  1.00  0.00    -0.224 NA
BRANCH  27  29
HETATM   29  C20 UNK     1      23.542  -7.925  38.638  1.00  0.00     0.017 A 
HETATM   30  C21 UNK     1      22.730  -7.385  39.635  1.00  0.00     0.018 A 
HETATM   31  C24 UNK     1      21.341  -7.480  39.532  1.00  0.00     0.037 A 
HETATM   32  C26 UNK     1      20.767  -8.114  38.430  1.00  0.00     0.068 A 
HETATM   33  C25 UNK     1      21.579  -8.653  37.432  1.00  0.00     0.037 A 
HETATM   34  C22 UNK     1      22.967  -8.559  37.536  1.00  0.00     0.018 A 
BRANCH  32  35
HETATM   35  O5  UNK     1      19.413  -8.206  38.329  1.00  0.00    -0.356 OA
HETATM   36  C28 UNK     1      18.729  -7.101  37.739  1.00  0.00     0.210 C 
ENDBRANCH  32  35
ENDBRANCH  27  29
ENDBRANCH  22  23
ENDBRANCH   2  22
TORSDOF 8
ENDMDL
