MODEL 1
REMARK VINA RESULT:      -7.8      0.000      0.000
REMARK  7 active torsions:
REMARK  status: ('A' for Active; 'I' for Inactive)
REMARK    1  A    between atoms: C3_8  and  O1_1 
REMARK    2  A    between atoms: C5_10  and  O2_2 
REMARK    3  A    between atoms: C9_14  and  O3_3 
REMARK    4  A    between atoms: C11_16  and  O4_4 
REMARK    5  A    between atoms: C1_6  and  C7_12 
REMARK    6  A    between atoms: C2_7  and  C8_13 
REMARK    7  A    between atoms: C12_17  and  C8_13 
ROOT
HETATM    1  O5  UNK     1      20.893   6.848  32.949  1.00  0.00    -0.288 OA
HETATM    2  C8  UNK     1      19.681   6.583  32.912  1.00  0.00     0.182 C 
ENDROOT
BRANCH   2   3
HETATM    3  C12 UNK     1      18.687   7.457  33.624  1.00  0.00     0.056 C 
HETATM    4  C7  UNK     1      17.644   7.983  32.966  1.00  0.00     0.018 C 
BRANCH   4   5
HETATM    5  C1  UNK     1      16.629   8.861  33.575  1.00  0.00    -0.000 A 
HETATM    6  C3  UNK     1      15.303   8.459  33.644  1.00  0.00     0.078 A 
HETATM    7  C14 UNK     1      14.361   9.307  34.226  1.00  0.00     0.040 A 
HETATM    8  C15 UNK     1      14.754  10.547  34.730  1.00  0.00     0.039 A 
HETATM    9  C11 UNK     1      16.091  10.939  34.652  1.00  0.00     0.069 A 
HETATM   10  C6  UNK     1      17.033  10.091  34.071  1.00  0.00     0.051 A 
BRANCH   6  11
HETATM   11  O1  UNK     1      14.893   7.252  33.161  1.00  0.00    -0.355 OA
HETATM   12  C16 UNK     1      13.751   7.252  32.306  1.00  0.00     0.210 C 
ENDBRANCH   6  11
BRANCH   9  13
HETATM   13  O4  UNK     1      16.473  12.149  35.143  1.00  0.00    -0.356 OA
HETATM   14  C19 UNK     1      17.593  12.777  34.521  1.00  0.00     0.210 C 
ENDBRANCH   9  13
ENDBRANCH   4   5
ENDBRANCH   2   3
BRANCH   2  15
HETATM   15  C2  UNK     1      19.196   5.407  32.208  1.00  0.00     0.017 A 
HETATM   16  C10 UNK     1      19.343   5.312  30.824  1.00  0.00     0.018 A 
HETATM   17  C13 UNK     1      18.878   4.184  30.149  1.00  0.00     0.040 A 
HETATM   18  C9  UNK     1      18.266   3.150  30.858  1.00  0.00     0.101 A 
HETATM   19  C5  UNK     1      18.118   3.245  32.242  1.00  0.00     0.102 A 
HETATM   20  C4  UNK     1      18.583   4.373  32.917  1.00  0.00     0.055 A 
BRANCH  18  21
HETATM   21  O3  UNK     1      17.815   2.053  30.188  1.00  0.00    -0.353 OA
HETATM   22  C18 UNK     1      17.960   2.055  28.769  1.00  0.00     0.210 C 
ENDBRANCH  18  21
BRANCH  19  23
HETATM   23  O2  UNK     1      17.523   2.241  32.945  1.00  0.00    -0.353 OA
HETATM   24  C17 UNK     1      18.189   1.796  34.126  1.00  0.00     0.210 C 
ENDBRANCH  19  23
ENDBRANCH   2  15
TORSDOF 7
ENDMDL
MODEL 2
REMARK VINA RESULT:      -7.7      2.836      5.446
REMARK  7 active torsions:
REMARK  status: ('A' for Active; 'I' for Inactive)
REMARK    1  A    between atoms: C3_8  and  O1_1 
REMARK    2  A    between atoms: C5_10  and  O2_2 
REMARK    3  A    between atoms: C9_14  and  O3_3 
REMARK    4  A    between atoms: C11_16  and  O4_4 
REMARK    5  A    between atoms: C1_6  and  C7_12 
REMARK    6  A    between atoms: C2_7  and  C8_13 
REMARK    7  A    between atoms: C12_17  and  C8_13 
ROOT
HETATM    1  O5  UNK     1      18.236   2.313  28.351  1.00  0.00    -0.288 OA
HETATM    2  C8  UNK     1      18.487   2.124  29.552  1.00  0.00     0.182 C 
ENDROOT
BRANCH   2   3
HETATM    3  C12 UNK     1      18.190   3.189  30.569  1.00  0.00     0.056 C 
HETATM    4  C7  UNK     1      18.897   4.329  30.594  1.00  0.00     0.018 C 
BRANCH   4   5
HETATM    5  C1  UNK     1      18.687   5.421  31.560  1.00  0.00    -0.000 A 
HETATM    6  C3  UNK     1      19.761   6.166  32.023  1.00  0.00     0.078 A 
HETATM    7  C14 UNK     1      19.537   7.196  32.937  1.00  0.00     0.040 A 
HETATM    8  C15 UNK     1      18.242   7.468  33.377  1.00  0.00     0.039 A 
HETATM    9  C11 UNK     1      17.170   6.711  32.904  1.00  0.00     0.069 A 
HETATM   10  C6  UNK     1      17.395   5.681  31.990  1.00  0.00     0.051 A 
BRANCH   6  11
HETATM   11  O1  UNK     1      21.036   5.921  31.607  1.00  0.00    -0.355 OA
HETATM   12  C16 UNK     1      22.070   6.047  32.582  1.00  0.00     0.210 C 
ENDBRANCH   6  11
BRANCH   9  13
HETATM   13  O4  UNK     1      15.907   6.977  33.335  1.00  0.00    -0.356 OA
HETATM   14  C19 UNK     1      14.898   7.123  32.337  1.00  0.00     0.210 C 
ENDBRANCH   9  13
ENDBRANCH   4   5
ENDBRANCH   2   3
BRANCH   2  15
HETATM   15  C2  UNK     1      19.103   0.886  30.000  1.00  0.00     0.017 A 
HETATM   16  C10 UNK     1      19.842   0.111  29.105  1.00  0.00     0.018 A 
HETATM   17  C13 UNK     1      20.433  -1.077  29.535  1.00  0.00     0.040 A 
HETATM   18  C9  UNK     1      20.285  -1.491  30.859  1.00  0.00     0.101 A 
HETATM   19  C5  UNK     1      19.546  -0.716  31.753  1.00  0.00     0.102 A 
HETATM   20  C4  UNK     1      18.955   0.472  31.324  1.00  0.00     0.055 A 
BRANCH  18  21
HETATM   21  O3  UNK     1      20.865  -2.653  31.267  1.00  0.00    -0.353 OA
HETATM   22  C18 UNK     1      21.286  -3.560  30.250  1.00  0.00     0.210 C 
ENDBRANCH  18  21
BRANCH  19  23
HETATM   23  O2  UNK     1      19.396  -1.108  33.049  1.00  0.00    -0.353 OA
HETATM   24  C17 UNK     1      18.369  -0.467  33.805  1.00  0.00     0.210 C 
ENDBRANCH  19  23
ENDBRANCH   2  15
TORSDOF 7
ENDMDL
MODEL 3
REMARK VINA RESULT:      -7.5      7.952     12.110
REMARK  7 active torsions:
REMARK  status: ('A' for Active; 'I' for Inactive)
REMARK    1  A    between atoms: C3_8  and  O1_1 
REMARK    2  A    between atoms: C5_10  and  O2_2 
REMARK    3  A    between atoms: C9_14  and  O3_3 
REMARK    4  A    between atoms: C11_16  and  O4_4 
REMARK    5  A    between atoms: C1_6  and  C7_12 
REMARK    6  A    between atoms: C2_7  and  C8_13 
REMARK    7  A    between atoms: C12_17  and  C8_13 
ROOT
HETATM    1  O5  UNK     1      22.223  -4.443  37.616  1.00  0.00    -0.288 OA
HETATM    2  C8  UNK     1      20.993  -4.598  37.565  1.00  0.00     0.182 C 
ENDROOT
BRANCH   2   3
HETATM    3  C12 UNK     1      20.087  -3.429  37.300  1.00  0.00     0.056 C 
HETATM    4  C7  UNK     1      19.991  -2.904  36.070  1.00  0.00     0.018 C 
BRANCH   4   5
HETATM    5  C1  UNK     1      19.142  -1.752  35.718  1.00  0.00    -0.000 A 
HETATM    6  C3  UNK     1      19.094  -1.288  34.412  1.00  0.00     0.078 A 
HETATM    7  C14 UNK     1      18.283  -0.196  34.103  1.00  0.00     0.040 A 
HETATM    8  C15 UNK     1      17.531   0.420  35.103  1.00  0.00     0.039 A 
HETATM    9  C11 UNK     1      17.589  -0.056  36.413  1.00  0.00     0.069 A 
HETATM   10  C6  UNK     1      18.400  -1.149  36.722  1.00  0.00     0.051 A 
BRANCH   6  11
HETATM   11  O1  UNK     1      19.818  -1.872  33.415  1.00  0.00    -0.355 OA
HETATM   12  C16 UNK     1      19.493  -1.502  32.077  1.00  0.00     0.210 C 
ENDBRANCH   6  11
BRANCH   9  13
HETATM   13  O4  UNK     1      16.856   0.545  37.389  1.00  0.00    -0.356 OA
HETATM   14  C19 UNK     1      17.561   1.364  38.320  1.00  0.00     0.210 C 
ENDBRANCH   9  13
ENDBRANCH   4   5
ENDBRANCH   2   3
BRANCH   2  15
HETATM   15  C2  UNK     1      20.396  -5.905  37.791  1.00  0.00     0.017 A 
HETATM   16  C10 UNK     1      20.581  -6.555  39.011  1.00  0.00     0.018 A 
HETATM   17  C13 UNK     1      20.008  -7.808  39.227  1.00  0.00     0.040 A 
HETATM   18  C9  UNK     1      19.251  -8.411  38.223  1.00  0.00     0.101 A 
HETATM   19  C5  UNK     1      19.066  -7.761  37.003  1.00  0.00     0.102 A 
HETATM   20  C4  UNK     1      19.638  -6.508  36.787  1.00  0.00     0.055 A 
BRANCH  18  21
HETATM   21  O3  UNK     1      18.697  -9.636  38.445  1.00  0.00    -0.353 OA
HETATM   22  C18 UNK     1      19.547 -10.770  38.289  1.00  0.00     0.210 C 
ENDBRANCH  18  21
BRANCH  19  23
HETATM   23  O2  UNK     1      18.326  -8.339  36.015  1.00  0.00    -0.353 OA
HETATM   24  C17 UNK     1      17.346  -7.522  35.378  1.00  0.00     0.210 C 
ENDBRANCH  19  23
ENDBRANCH   2  15
TORSDOF 7
ENDMDL
MODEL 4
REMARK VINA RESULT:      -7.4      3.700      7.763
REMARK  7 active torsions:
REMARK  status: ('A' for Active; 'I' for Inactive)
REMARK    1  A    between atoms: C3_8  and  O1_1 
REMARK    2  A    between atoms: C5_10  and  O2_2 
REMARK    3  A    between atoms: C9_14  and  O3_3 
REMARK    4  A    between atoms: C11_16  and  O4_4 
REMARK    5  A    between atoms: C1_6  and  C7_12 
REMARK    6  A    between atoms: C2_7  and  C8_13 
REMARK    7  A    between atoms: C12_17  and  C8_13 
ROOT
HETATM    1  O5  UNK     1      16.895   0.933  35.664  1.00  0.00    -0.288 OA
HETATM    2  C8  UNK     1      17.861   0.547  34.987  1.00  0.00     0.182 C 
ENDROOT
BRANCH   2   3
HETATM    3  C12 UNK     1      18.290   1.312  33.767  1.00  0.00     0.056 C 
HETATM    4  C7  UNK     1      17.953   2.601  33.614  1.00  0.00     0.018 C 
BRANCH   4   5
HETATM    5  C1  UNK     1      18.316   3.427  32.449  1.00  0.00    -0.000 A 
HETATM    6  C3  UNK     1      18.704   4.747  32.617  1.00  0.00     0.078 A 
HETATM    7  C14 UNK     1      19.043   5.508  31.498  1.00  0.00     0.040 A 
HETATM    8  C15 UNK     1      18.989   4.941  30.225  1.00  0.00     0.039 A 
HETATM    9  C11 UNK     1      18.596   3.612  30.070  1.00  0.00     0.069 A 
HETATM   10  C6  UNK     1      18.257   2.851  31.189  1.00  0.00     0.051 A 
BRANCH   6  11
HETATM   11  O1  UNK     1      18.767   5.326  33.850  1.00  0.00    -0.355 OA
HETATM   12  C16 UNK     1      19.360   6.620  33.928  1.00  0.00     0.210 C 
ENDBRANCH   6  11
BRANCH   9  13
HETATM   13  O4  UNK     1      18.543   3.059  28.828  1.00  0.00    -0.356 OA
HETATM   14  C19 UNK     1      17.865   1.810  28.701  1.00  0.00     0.210 C 
ENDBRANCH   9  13
ENDBRANCH   4   5
ENDBRANCH   2   3
BRANCH   2  15
HETATM   15  C2  UNK     1      18.579  -0.667  35.337  1.00  0.00     0.017 A 
HETATM   16  C10 UNK     1      18.479  -1.189  36.627  1.00  0.00     0.018 A 
HETATM   17  C13 UNK     1      19.168  -2.355  36.962  1.00  0.00     0.040 A 
HETATM   18  C9  UNK     1      19.958  -2.997  36.009  1.00  0.00     0.101 A 
HETATM   19  C5  UNK     1      20.059  -2.475  34.720  1.00  0.00     0.102 A 
HETATM   20  C4  UNK     1      19.369  -1.309  34.384  1.00  0.00     0.055 A 
BRANCH  18  21
HETATM   21  O3  UNK     1      20.627  -4.133  36.348  1.00  0.00    -0.353 OA
HETATM   22  C18 UNK     1      19.907  -5.361  36.261  1.00  0.00     0.210 C 
ENDBRANCH  18  21
BRANCH  19  23
HETATM   23  O2  UNK     1      20.825  -3.094  33.779  1.00  0.00    -0.353 OA
HETATM   24  C17 UNK     1      20.847  -2.512  32.477  1.00  0.00     0.210 C 
ENDBRANCH  19  23
ENDBRANCH   2  15
TORSDOF 7
ENDMDL
MODEL 5
REMARK VINA RESULT:      -7.3      2.363      8.239
REMARK  7 active torsions:
REMARK  status: ('A' for Active; 'I' for Inactive)
REMARK    1  A    between atoms: C3_8  and  O1_1 
REMARK    2  A    between atoms: C5_10  and  O2_2 
REMARK    3  A    between atoms: C9_14  and  O3_3 
REMARK    4  A    between atoms: C11_16  and  O4_4 
REMARK    5  A    between atoms: C1_6  and  C7_12 
REMARK    6  A    between atoms: C2_7  and  C8_13 
REMARK    7  A    between atoms: C12_17  and  C8_13 
ROOT
HETATM    1  O5  UNK     1      18.675   6.252  29.703  1.00  0.00    -0.288 OA
HETATM    2  C8  UNK     1      18.658   5.736  30.832  1.00  0.00     0.182 C 
ENDROOT
BRANCH   2   3
HETATM    3  C12 UNK     1      19.147   4.330  31.035  1.00  0.00     0.056 C 
HETATM    4  C7  UNK     1      18.279   3.320  31.195  1.00  0.00     0.018 C 
BRANCH   4   5
HETATM    5  C1  UNK     1      18.664   1.915  31.413  1.00  0.00    -0.000 A 
HETATM    6  C3  UNK     1      18.335   1.271  32.595  1.00  0.00     0.078 A 
HETATM    7  C14 UNK     1      18.710  -0.060  32.778  1.00  0.00     0.040 A 
HETATM    8  C15 UNK     1      19.411  -0.731  31.776  1.00  0.00     0.039 A 
HETATM    9  C11 UNK     1      19.737  -0.071  30.591  1.00  0.00     0.069 A 
HETATM   10  C6  UNK     1      19.362   1.260  30.409  1.00  0.00     0.051 A 
BRANCH   6  11
HETATM   11  O1  UNK     1      17.649   1.904  33.590  1.00  0.00    -0.355 OA
HETATM   12  C16 UNK     1      18.346   2.130  34.813  1.00  0.00     0.210 C 
ENDBRANCH   6  11
BRANCH   9  13
HETATM   13  O4  UNK     1      20.422  -0.727  29.615  1.00  0.00    -0.356 OA
HETATM   14  C19 UNK     1      20.503  -2.147  29.721  1.00  0.00     0.210 C 
ENDBRANCH   9  13
ENDBRANCH   4   5
ENDBRANCH   2   3
BRANCH   2  15
HETATM   15  C2  UNK     1      18.137   6.466  31.977  1.00  0.00     0.017 A 
HETATM   16  C10 UNK     1      16.761   6.635  32.130  1.00  0.00     0.018 A 
HETATM   17  C13 UNK     1      16.262   7.334  33.229  1.00  0.00     0.040 A 
HETATM   18  C9  UNK     1      17.139   7.865  34.175  1.00  0.00     0.101 A 
HETATM   19  C5  UNK     1      18.515   7.696  34.022  1.00  0.00     0.102 A 
HETATM   20  C4  UNK     1      19.014   6.996  32.923  1.00  0.00     0.055 A 
BRANCH  18  21
HETATM   21  O3  UNK     1      16.641   8.546  35.243  1.00  0.00    -0.353 OA
HETATM   22  C18 UNK     1      15.689   9.573  34.970  1.00  0.00     0.210 C 
ENDBRANCH  18  21
BRANCH  19  23
HETATM   23  O2  UNK     1      19.382   8.208  34.940  1.00  0.00    -0.353 OA
HETATM   24  C17 UNK     1      20.225   9.275  34.509  1.00  0.00     0.210 C 
ENDBRANCH  19  23
ENDBRANCH   2  15
TORSDOF 7
ENDMDL
MODEL 6
REMARK VINA RESULT:      -7.3      3.571      7.245
REMARK  7 active torsions:
REMARK  status: ('A' for Active; 'I' for Inactive)
REMARK    1  A    between atoms: C3_8  and  O1_1 
REMARK    2  A    between atoms: C5_10  and  O2_2 
REMARK    3  A    between atoms: C9_14  and  O3_3 
REMARK    4  A    between atoms: C11_16  and  O4_4 
REMARK    5  A    between atoms: C1_6  and  C7_12 
REMARK    6  A    between atoms: C2_7  and  C8_13 
REMARK    7  A    between atoms: C12_17  and  C8_13 
ROOT
HETATM    1  O5  UNK     1      16.494   0.672  35.319  1.00  0.00    -0.288 OA
HETATM    2  C8  UNK     1      17.683   0.577  34.976  1.00  0.00     0.182 C 
ENDROOT
BRANCH   2   3
HETATM    3  C12 UNK     1      18.331   1.663  34.166  1.00  0.00     0.056 C 
HETATM    4  C7  UNK     1      17.668   2.257  33.162  1.00  0.00     0.018 C 
BRANCH   4   5
HETATM    5  C1  UNK     1      18.225   3.320  32.306  1.00  0.00    -0.000 A 
HETATM    6  C3  UNK     1      18.470   3.083  30.962  1.00  0.00     0.078 A 
HETATM    7  C14 UNK     1      18.997   4.106  30.173  1.00  0.00     0.040 A 
HETATM    8  C15 UNK     1      19.273   5.351  30.736  1.00  0.00     0.039 A 
HETATM    9  C11 UNK     1      19.022   5.575  32.090  1.00  0.00     0.069 A 
HETATM   10  C6  UNK     1      18.495   4.553  32.880  1.00  0.00     0.051 A 
BRANCH   6  11
HETATM   11  O1  UNK     1      18.208   1.876  30.387  1.00  0.00    -0.355 OA
HETATM   12  C16 UNK     1      17.941   1.871  28.986  1.00  0.00     0.210 C 
ENDBRANCH   6  11
BRANCH   9  13
HETATM   13  O4  UNK     1      19.292   6.790  32.639  1.00  0.00    -0.356 OA
HETATM   14  C19 UNK     1      19.351   6.861  34.063  1.00  0.00     0.210 C 
ENDBRANCH   9  13
ENDBRANCH   4   5
ENDBRANCH   2   3
BRANCH   2  15
HETATM   15  C2  UNK     1      18.466  -0.599  35.319  1.00  0.00     0.017 A 
HETATM   16  C10 UNK     1      18.362  -1.159  36.592  1.00  0.00     0.018 A 
HETATM   17  C13 UNK     1      19.113  -2.287  36.921  1.00  0.00     0.040 A 
HETATM   18  C9  UNK     1      19.970  -2.855  35.978  1.00  0.00     0.101 A 
HETATM   19  C5  UNK     1      20.075  -2.294  34.705  1.00  0.00     0.102 A 
HETATM   20  C4  UNK     1      19.323  -1.166  34.376  1.00  0.00     0.055 A 
BRANCH  18  21
HETATM   21  O3  UNK     1      20.699  -3.955  36.311  1.00  0.00    -0.353 OA
HETATM   22  C18 UNK     1      19.996  -5.191  36.419  1.00  0.00     0.210 C 
ENDBRANCH  18  21
BRANCH  19  23
HETATM   23  O2  UNK     1      20.906  -2.839  33.774  1.00  0.00    -0.353 OA
HETATM   24  C17 UNK     1      20.682  -2.477  32.413  1.00  0.00     0.210 C 
ENDBRANCH  19  23
ENDBRANCH   2  15
TORSDOF 7
ENDMDL
MODEL 7
REMARK VINA RESULT:      -7.3      2.177      8.161
REMARK  7 active torsions:
REMARK  status: ('A' for Active; 'I' for Inactive)
REMARK    1  A    between atoms: C3_8  and  O1_1 
REMARK    2  A    between atoms: C5_10  and  O2_2 
REMARK    3  A    between atoms: C9_14  and  O3_3 
REMARK    4  A    between atoms: C11_16  and  O4_4 
REMARK    5  A    between atoms: C1_6  and  C7_12 
REMARK    6  A    between atoms: C2_7  and  C8_13 
REMARK    7  A    between atoms: C12_17  and  C8_13 
ROOT
HETATM    1  O5  UNK     1      18.837   6.400  29.821  1.00  0.00    -0.288 OA
HETATM    2  C8  UNK     1      18.719   5.887  30.945  1.00  0.00     0.182 C 
ENDROOT
BRANCH   2   3
HETATM    3  C12 UNK     1      19.182   4.479  31.192  1.00  0.00     0.056 C 
HETATM    4  C7  UNK     1      18.331   3.448  31.076  1.00  0.00     0.018 C 
BRANCH   4   5
HETATM    5  C1  UNK     1      18.689   2.039  31.311  1.00  0.00    -0.000 A 
HETATM    6  C3  UNK     1      18.345   1.415  32.501  1.00  0.00     0.078 A 
HETATM    7  C14 UNK     1      18.695   0.080  32.700  1.00  0.00     0.040 A 
HETATM    8  C15 UNK     1      19.385  -0.616  31.707  1.00  0.00     0.039 A 
HETATM    9  C11 UNK     1      19.726   0.023  30.515  1.00  0.00     0.069 A 
HETATM   10  C6  UNK     1      19.375   1.359  30.317  1.00  0.00     0.051 A 
BRANCH   6  11
HETATM   11  O1  UNK     1      17.670   2.072  33.486  1.00  0.00    -0.355 OA
HETATM   12  C16 UNK     1      18.360   2.280  34.716  1.00  0.00     0.210 C 
ENDBRANCH   6  11
BRANCH   9  13
HETATM   13  O4  UNK     1      20.399  -0.656  29.548  1.00  0.00    -0.356 OA
HETATM   14  C19 UNK     1      20.519  -2.069  29.711  1.00  0.00     0.210 C 
ENDBRANCH   9  13
ENDBRANCH   4   5
ENDBRANCH   2   3
BRANCH   2  15
HETATM   15  C2  UNK     1      18.103   6.620  32.039  1.00  0.00     0.017 A 
HETATM   16  C10 UNK     1      18.891   7.395  32.890  1.00  0.00     0.018 A 
HETATM   17  C13 UNK     1      18.300   8.099  33.939  1.00  0.00     0.040 A 
HETATM   18  C9  UNK     1      16.921   8.029  34.136  1.00  0.00     0.101 A 
HETATM   19  C5  UNK     1      16.133   7.254  33.285  1.00  0.00     0.102 A 
HETATM   20  C4  UNK     1      16.724   6.550  32.236  1.00  0.00     0.055 A 
BRANCH  18  21
HETATM   21  O3  UNK     1      16.355   8.720  35.164  1.00  0.00    -0.353 OA
HETATM   22  C18 UNK     1      15.797   9.996  34.858  1.00  0.00     0.210 C 
ENDBRANCH  18  21
BRANCH  19  23
HETATM   23  O2  UNK     1      14.785   7.179  33.467  1.00  0.00    -0.353 OA
HETATM   24  C17 UNK     1      13.968   7.290  32.303  1.00  0.00     0.210 C 
ENDBRANCH  19  23
ENDBRANCH   2  15
TORSDOF 7
ENDMDL
MODEL 8
REMARK VINA RESULT:      -7.1      1.765      7.682
REMARK  7 active torsions:
REMARK  status: ('A' for Active; 'I' for Inactive)
REMARK    1  A    between atoms: C3_8  and  O1_1 
REMARK    2  A    between atoms: C5_10  and  O2_2 
REMARK    3  A    between atoms: C9_14  and  O3_3 
REMARK    4  A    between atoms: C11_16  and  O4_4 
REMARK    5  A    between atoms: C1_6  and  C7_12 
REMARK    6  A    between atoms: C2_7  and  C8_13 
REMARK    7  A    between atoms: C12_17  and  C8_13 
ROOT
HETATM    1  O5  UNK     1      19.288   6.409  29.736  1.00  0.00    -0.288 OA
HETATM    2  C8  UNK     1      18.990   5.997  30.868  1.00  0.00     0.182 C 
ENDROOT
BRANCH   2   3
HETATM    3  C12 UNK     1      19.297   4.582  31.269  1.00  0.00     0.056 C 
HETATM    4  C7  UNK     1      18.309   3.696  31.463  1.00  0.00     0.018 C 
BRANCH   4   5
HETATM    5  C1  UNK     1      18.511   2.294  31.870  1.00  0.00    -0.000 A 
HETATM    6  C3  UNK     1      18.946   1.352  30.950  1.00  0.00     0.078 A 
HETATM    7  C14 UNK     1      19.130   0.031  31.359  1.00  0.00     0.040 A 
HETATM    8  C15 UNK     1      18.878  -0.332  32.682  1.00  0.00     0.039 A 
HETATM    9  C11 UNK     1      18.441   0.626  33.597  1.00  0.00     0.069 A 
HETATM   10  C6  UNK     1      18.256   1.947  33.188  1.00  0.00     0.051 A 
BRANCH   6  11
HETATM   11  O1  UNK     1      19.200   1.680  29.652  1.00  0.00    -0.355 OA
HETATM   12  C16 UNK     1      18.198   1.351  28.692  1.00  0.00     0.210 C 
ENDBRANCH   6  11
BRANCH   9  13
HETATM   13  O4  UNK     1      18.194   0.271  34.887  1.00  0.00    -0.356 OA
HETATM   14  C19 UNK     1      18.199   1.315  35.860  1.00  0.00     0.210 C 
ENDBRANCH   9  13
ENDBRANCH   4   5
ENDBRANCH   2   3
BRANCH   2  15
HETATM   15  C2  UNK     1      18.310   6.860  31.820  1.00  0.00     0.017 A 
HETATM   16  C10 UNK     1      18.987   7.323  32.949  1.00  0.00     0.018 A 
HETATM   17  C13 UNK     1      18.335   8.151  33.862  1.00  0.00     0.040 A 
HETATM   18  C9  UNK     1      17.006   8.516  33.647  1.00  0.00     0.101 A 
HETATM   19  C5  UNK     1      16.329   8.053  32.518  1.00  0.00     0.102 A 
HETATM   20  C4  UNK     1      16.981   7.225  31.605  1.00  0.00     0.055 A 
BRANCH  18  21
HETATM   21  O3  UNK     1      16.379   9.325  34.546  1.00  0.00    -0.353 OA
HETATM   22  C18 UNK     1      16.517  10.732  34.359  1.00  0.00     0.210 C 
ENDBRANCH  18  21
BRANCH  19  23
HETATM   23  O2  UNK     1      15.032   8.404  32.296  1.00  0.00    -0.353 OA
HETATM   24  C17 UNK     1      14.047   7.387  32.471  1.00  0.00     0.210 C 
ENDBRANCH  19  23
ENDBRANCH   2  15
TORSDOF 7
ENDMDL
MODEL 9
REMARK VINA RESULT:      -7.1      2.289      7.993
REMARK  7 active torsions:
REMARK  status: ('A' for Active; 'I' for Inactive)
REMARK    1  A    between atoms: C3_8  and  O1_1 
REMARK    2  A    between atoms: C5_10  and  O2_2 
REMARK    3  A    between atoms: C9_14  and  O3_3 
REMARK    4  A    between atoms: C11_16  and  O4_4 
REMARK    5  A    between atoms: C1_6  and  C7_12 
REMARK    6  A    between atoms: C2_7  and  C8_13 
REMARK    7  A    between atoms: C12_17  and  C8_13 
ROOT
HETATM    1  O5  UNK     1      18.364   4.780  31.081  1.00  0.00    -0.288 OA
HETATM    2  C8  UNK     1      18.290   5.092  32.280  1.00  0.00     0.182 C 
ENDROOT
BRANCH   2   3
HETATM    3  C12 UNK     1      18.345   4.035  33.346  1.00  0.00     0.056 C 
HETATM    4  C7  UNK     1      18.268   2.735  33.026  1.00  0.00     0.018 C 
BRANCH   4   5
HETATM    5  C1  UNK     1      18.300   1.631  34.001  1.00  0.00    -0.000 A 
HETATM    6  C3  UNK     1      18.431   0.319  33.573  1.00  0.00     0.078 A 
HETATM    7  C14 UNK     1      18.459  -0.709  34.516  1.00  0.00     0.040 A 
HETATM    8  C15 UNK     1      18.356  -0.413  35.875  1.00  0.00     0.039 A 
HETATM    9  C11 UNK     1      18.225   0.912  36.292  1.00  0.00     0.069 A 
HETATM   10  C6  UNK     1      18.196   1.940  35.349  1.00  0.00     0.051 A 
BRANCH   6  11
HETATM   11  O1  UNK     1      18.534   0.002  32.251  1.00  0.00    -0.355 OA
HETATM   12  C16 UNK     1      19.246  -1.189  31.925  1.00  0.00     0.210 C 
ENDBRANCH   6  11
BRANCH   9  13
HETATM   13  O4  UNK     1      18.124   1.200  37.618  1.00  0.00    -0.356 OA
HETATM   14  C19 UNK     1      17.805   0.120  38.494  1.00  0.00     0.210 C 
ENDBRANCH   9  13
ENDBRANCH   4   5
ENDBRANCH   2   3
BRANCH   2  15
HETATM   15  C2  UNK     1      18.116   6.479  32.681  1.00  0.00     0.017 A 
HETATM   16  C10 UNK     1      19.085   7.105  33.464  1.00  0.00     0.018 A 
HETATM   17  C13 UNK     1      18.919   8.436  33.848  1.00  0.00     0.040 A 
HETATM   18  C9  UNK     1      17.783   9.140  33.448  1.00  0.00     0.101 A 
HETATM   19  C5  UNK     1      16.813   8.513  32.665  1.00  0.00     0.102 A 
HETATM   20  C4  UNK     1      16.980   7.183  32.281  1.00  0.00     0.055 A 
BRANCH  18  21
HETATM   21  O3  UNK     1      17.630  10.438  33.830  1.00  0.00    -0.353 OA
HETATM   22  C18 UNK     1      18.818  11.212  33.988  1.00  0.00     0.210 C 
ENDBRANCH  18  21
BRANCH  19  23
HETATM   23  O2  UNK     1      15.700   9.191  32.268  1.00  0.00    -0.353 OA
HETATM   24  C17 UNK     1      14.509   8.979  33.024  1.00  0.00     0.210 C 
ENDBRANCH  19  23
ENDBRANCH   2  15
TORSDOF 7
ENDMDL
MODEL 10
REMARK VINA RESULT:      -7.1      2.315      3.671
REMARK  7 active torsions:
REMARK  status: ('A' for Active; 'I' for Inactive)
REMARK    1  A    between atoms: C3_8  and  O1_1 
REMARK    2  A    between atoms: C5_10  and  O2_2 
REMARK    3  A    between atoms: C9_14  and  O3_3 
REMARK    4  A    between atoms: C11_16  and  O4_4 
REMARK    5  A    between atoms: C1_6  and  C7_12 
REMARK    6  A    between atoms: C2_7  and  C8_13 
REMARK    7  A    between atoms: C12_17  and  C8_13 
ROOT
HETATM    1  O5  UNK     1      18.645   3.829  29.257  1.00  0.00    -0.288 OA
HETATM    2  C8  UNK     1      18.653   3.522  30.459  1.00  0.00     0.182 C 
ENDROOT
BRANCH   2   3
HETATM    3  C12 UNK     1      18.470   4.574  31.516  1.00  0.00     0.056 C 
HETATM    4  C7  UNK     1      18.247   5.853  31.177  1.00  0.00     0.018 C 
BRANCH   4   5
HETATM    5  C1  UNK     1      18.069   6.954  32.140  1.00  0.00    -0.000 A 
HETATM    6  C3  UNK     1      16.896   7.692  32.153  1.00  0.00     0.078 A 
HETATM    7  C14 UNK     1      16.751   8.730  33.075  1.00  0.00     0.040 A 
HETATM    8  C15 UNK     1      17.781   9.016  33.971  1.00  0.00     0.039 A 
HETATM    9  C11 UNK     1      18.956   8.265  33.946  1.00  0.00     0.069 A 
HETATM   10  C6  UNK     1      19.101   7.228  33.024  1.00  0.00     0.051 A 
BRANCH   6  11
HETATM   11  O1  UNK     1      15.874   7.432  31.289  1.00  0.00    -0.355 OA
HETATM   12  C16 UNK     1      14.602   7.137  31.862  1.00  0.00     0.210 C 
ENDBRANCH   6  11
BRANCH   9  13
HETATM   13  O4  UNK     1      19.961   8.546  34.820  1.00  0.00    -0.356 OA
HETATM   14  C19 UNK     1      20.745   9.709  34.556  1.00  0.00     0.210 C 
ENDBRANCH   9  13
ENDBRANCH   4   5
ENDBRANCH   2   3
BRANCH   2  15
HETATM   15  C2  UNK     1      18.870   2.146  30.876  1.00  0.00     0.017 A 
HETATM   16  C10 UNK     1      19.338   1.205  29.959  1.00  0.00     0.018 A 
HETATM   17  C13 UNK     1      19.547  -0.115  30.359  1.00  0.00     0.040 A 
HETATM   18  C9  UNK     1      19.288  -0.493  31.676  1.00  0.00     0.101 A 
HETATM   19  C5  UNK     1      18.820   0.448  32.594  1.00  0.00     0.102 A 
HETATM   20  C4  UNK     1      18.612   1.767  32.193  1.00  0.00     0.055 A 
BRANCH  18  21
HETATM   21  O3  UNK     1      19.495  -1.785  32.056  1.00  0.00    -0.353 OA
HETATM   22  C18 UNK     1      20.843  -2.249  32.068  1.00  0.00     0.210 C 
ENDBRANCH  18  21
BRANCH  19  23
HETATM   23  O2  UNK     1      18.565   0.091  33.883  1.00  0.00    -0.353 OA
HETATM   24  C17 UNK     1      17.753   0.976  34.652  1.00  0.00     0.210 C 
ENDBRANCH  19  23
ENDBRANCH   2  15
TORSDOF 7
ENDMDL
