MODEL 1
REMARK VINA RESULT:      -9.5      0.000      0.000
REMARK  5 active torsions:
REMARK  status: ('A' for Active; 'I' for Inactive)
REMARK    1  A    between atoms: C13_21  and  O2_3 
REMARK    2  A    between atoms: C18_26  and  O2_3 
REMARK    3  A    between atoms: C2_10  and  N1_7 
REMARK       I    between atoms: C9_17  and  N1_7 
REMARK    4  A    between atoms: C13_21  and  C4_12 
REMARK    5  A    between atoms: C6_14  and  C9_17 
ROOT
HETATM    1  S1  UNK     1      19.441  -6.997  37.906  1.00  0.00    -0.064 SA
HETATM    2  N2  UNK     1      20.885  -7.132  33.026  1.00  0.00    -0.191 NA
HETATM    3  C1  UNK     1      20.357  -8.709  36.224  1.00  0.00    -0.015 A 
HETATM    4  C2  UNK     1      19.772  -6.491  36.318  1.00  0.00     0.099 A 
HETATM    5  C3  UNK     1      20.252  -7.477  35.516  1.00  0.00     0.086 A 
HETATM    6  C4  UNK     1      19.949  -8.590  37.535  1.00  0.00     0.089 A 
HETATM    7  C10 UNK     1      20.849  -9.977  35.625  1.00  0.00     0.051 C 
HETATM    8  C17 UNK     1      20.602  -7.287  34.143  1.00  0.00     0.103 C 
ENDROOT
BRANCH   4   9
HETATM    9  N1  UNK     1      19.511  -5.144  36.048  1.00  0.00    -0.316 N 
HETATM   10  C9  UNK     1      20.265  -4.062  36.482  1.00  0.00     0.262 C 
HETATM   11  O3  UNK     1      21.284  -4.062  37.171  1.00  0.00    -0.267 OA
HETATM   12  H1  UNK     1      18.697  -4.985  35.460  1.00  0.00     0.170 HD
BRANCH  10  13
HETATM   13  C6  UNK     1      19.707  -2.786  36.016  1.00  0.00     0.108 A 
HETATM   14  C11 UNK     1      19.919  -2.293  34.637  1.00  0.00     0.304 A 
HETATM   15  O1  UNK     1      19.338  -1.070  34.314  1.00  0.00    -0.274 OA
HETATM   16  O4  UNK     1      20.571  -2.928  33.815  1.00  0.00    -0.259 OA
HETATM   17  C8  UNK     1      18.586  -0.334  35.250  1.00  0.00     0.089 A 
HETATM   18  C14 UNK     1      18.043   0.880  34.834  1.00  0.00     0.038 A 
HETATM   19  C5  UNK     1      18.399  -0.816  36.542  1.00  0.00    -0.001 A 
HETATM   20  C16 UNK     1      17.295   1.631  35.737  1.00  0.00     0.003 A 
HETATM   21  C15 UNK     1      17.097   1.163  37.039  1.00  0.00     0.001 A 
HETATM   22  C12 UNK     1      17.647  -0.057  37.442  1.00  0.00     0.014 A 
HETATM   23  C7  UNK     1      18.994  -2.092  36.910  1.00  0.00     0.037 A 
ENDBRANCH  10  13
ENDBRANCH   4   9
BRANCH   6  24
HETATM   24  C13 UNK     1      19.901  -9.582  38.561  1.00  0.00     0.300 C 
HETATM   25  O5  UNK     1      19.103 -10.547  38.602  1.00  0.00    -0.259 OA
BRANCH  24  26
HETATM   26  O2  UNK     1      20.848  -9.377  39.541  1.00  0.00    -0.317 OA
BRANCH  26  27
HETATM   27  C18 UNK     1      22.120  -8.856  39.143  1.00  0.00     0.174 C 
HETATM   28  C19 UNK     1      22.500  -7.720  40.070  1.00  0.00     0.034 C 
ENDBRANCH  26  27
ENDBRANCH  24  26
ENDBRANCH   6  24
TORSDOF 5
ENDMDL
MODEL 2
REMARK VINA RESULT:      -9.3      8.795     13.380
REMARK  5 active torsions:
REMARK  status: ('A' for Active; 'I' for Inactive)
REMARK    1  A    between atoms: C13_21  and  O2_3 
REMARK    2  A    between atoms: C18_26  and  O2_3 
REMARK    3  A    between atoms: C2_10  and  N1_7 
REMARK       I    between atoms: C9_17  and  N1_7 
REMARK    4  A    between atoms: C13_21  and  C4_12 
REMARK    5  A    between atoms: C6_14  and  C9_17 
ROOT
HETATM    1  S1  UNK     1      16.669   6.407  31.900  1.00  0.00    -0.064 SA
HETATM    2  N2  UNK     1      21.653   6.417  32.937  1.00  0.00    -0.191 NA
HETATM    3  C1  UNK     1      18.382   7.926  33.065  1.00  0.00    -0.015 A 
HETATM    4  C2  UNK     1      18.292   5.909  31.971  1.00  0.00     0.099 A 
HETATM    5  C3  UNK     1      19.108   6.789  32.608  1.00  0.00     0.086 A 
HETATM    6  C4  UNK     1      17.044   7.848  32.745  1.00  0.00     0.089 A 
HETATM    7  C10 UNK     1      18.990   9.066  33.798  1.00  0.00     0.051 C 
HETATM    8  C17 UNK     1      20.513   6.584  32.790  1.00  0.00     0.103 C 
ENDROOT
BRANCH   4   9
HETATM    9  N1  UNK     1      18.572   4.677  31.372  1.00  0.00    -0.316 N 
HETATM   10  C9  UNK     1      18.231   3.428  31.874  1.00  0.00     0.262 C 
HETATM   11  O3  UNK     1      17.633   3.155  32.913  1.00  0.00    -0.267 OA
HETATM   12  H1  UNK     1      19.054   4.745  30.479  1.00  0.00     0.170 HD
BRANCH  10  13
HETATM   13  C6  UNK     1      18.679   2.345  30.990  1.00  0.00     0.108 A 
HETATM   14  C11 UNK     1      18.669   2.478  29.516  1.00  0.00     0.304 A 
HETATM   15  O1  UNK     1      19.118   1.381  28.786  1.00  0.00    -0.274 OA
HETATM   16  O4  UNK     1      18.286   3.502  28.961  1.00  0.00    -0.259 OA
HETATM   17  C8  UNK     1      19.562   0.201  29.414  1.00  0.00     0.089 A 
HETATM   18  C14 UNK     1      19.994  -0.843  28.600  1.00  0.00     0.038 A 
HETATM   19  C5  UNK     1      19.563   0.097  30.802  1.00  0.00    -0.001 A 
HETATM   20  C16 UNK     1      20.437  -2.023  29.192  1.00  0.00     0.003 A 
HETATM   21  C15 UNK     1      20.445  -2.147  30.584  1.00  0.00     0.001 A 
HETATM   22  C12 UNK     1      20.009  -1.090  31.388  1.00  0.00     0.014 A 
HETATM   23  C7  UNK     1      19.099   1.226  31.593  1.00  0.00     0.037 A 
ENDBRANCH  10  13
ENDBRANCH   4   9
BRANCH   6  24
HETATM   24  C13 UNK     1      15.993   8.774  33.022  1.00  0.00     0.300 C 
HETATM   25  O5  UNK     1      15.425   9.503  32.176  1.00  0.00    -0.259 OA
BRANCH  24  26
HETATM   26  O2  UNK     1      15.644   8.796  34.356  1.00  0.00    -0.317 OA
BRANCH  26  27
HETATM   27  C18 UNK     1      14.427   9.455  34.719  1.00  0.00     0.174 C 
HETATM   28  C19 UNK     1      14.760  10.722  35.478  1.00  0.00     0.034 C 
ENDBRANCH  26  27
ENDBRANCH  24  26
ENDBRANCH   6  24
TORSDOF 5
ENDMDL
MODEL 3
REMARK VINA RESULT:      -9.1      2.378      8.278
REMARK  5 active torsions:
REMARK  status: ('A' for Active; 'I' for Inactive)
REMARK    1  A    between atoms: C13_21  and  O2_3 
REMARK    2  A    between atoms: C18_26  and  O2_3 
REMARK    3  A    between atoms: C2_10  and  N1_7 
REMARK       I    between atoms: C9_17  and  N1_7 
REMARK    4  A    between atoms: C13_21  and  C4_12 
REMARK    5  A    between atoms: C6_14  and  C9_17 
ROOT
HETATM    1  S1  UNK     1      18.082  -1.743  37.794  1.00  0.00    -0.064 SA
HETATM    2  N2  UNK     1      20.371  -2.181  33.267  1.00  0.00    -0.191 NA
HETATM    3  C1  UNK     1      18.760  -0.228  35.832  1.00  0.00    -0.015 A 
HETATM    4  C2  UNK     1      18.864  -2.436  36.453  1.00  0.00     0.099 A 
HETATM    5  C3  UNK     1      19.176  -1.544  35.477  1.00  0.00     0.086 A 
HETATM    6  C4  UNK     1      18.150  -0.194  37.068  1.00  0.00     0.089 A 
HETATM    7  C10 UNK     1      18.956   0.970  34.976  1.00  0.00     0.051 C 
HETATM    8  C17 UNK     1      19.835  -1.895  34.258  1.00  0.00     0.103 C 
ENDROOT
BRANCH   4   9
HETATM    9  N1  UNK     1      19.082  -3.815  36.529  1.00  0.00    -0.316 N 
HETATM   10  C9  UNK     1      20.271  -4.437  36.886  1.00  0.00     0.262 C 
HETATM   11  O3  UNK     1      21.343  -3.922  37.199  1.00  0.00    -0.267 OA
HETATM   12  H1  UNK     1      18.265  -4.381  36.313  1.00  0.00     0.170 HD
BRANCH  10  13
HETATM   13  C6  UNK     1      20.151  -5.900  36.861  1.00  0.00     0.108 A 
HETATM   14  C11 UNK     1      20.169  -6.669  35.597  1.00  0.00     0.304 A 
HETATM   15  O1  UNK     1      20.049  -8.052  35.705  1.00  0.00    -0.274 OA
HETATM   16  O4  UNK     1      20.287  -6.120  34.507  1.00  0.00    -0.259 OA
HETATM   17  C8  UNK     1      19.915  -8.692  36.952  1.00  0.00     0.089 A 
HETATM   18  C14 UNK     1      19.801 -10.080  36.959  1.00  0.00     0.038 A 
HETATM   19  C5  UNK     1      19.899  -7.949  38.129  1.00  0.00    -0.001 A 
HETATM   20  C16 UNK     1      19.666 -10.741  38.177  1.00  0.00     0.003 A 
HETATM   21  C15 UNK     1      19.648 -10.013  39.369  1.00  0.00     0.001 A 
HETATM   22  C12 UNK     1      19.764  -8.620  39.347  1.00  0.00     0.014 A 
HETATM   23  C7  UNK     1      20.024  -6.502  38.050  1.00  0.00     0.037 A 
ENDBRANCH  10  13
ENDBRANCH   4   9
BRANCH   6  24
HETATM   24  C13 UNK     1      17.601   0.920  37.774  1.00  0.00     0.300 C 
HETATM   25  O5  UNK     1      17.949   1.298  38.917  1.00  0.00    -0.259 OA
BRANCH  24  26
HETATM   26  O2  UNK     1      16.616   1.566  37.060  1.00  0.00    -0.317 OA
BRANCH  26  27
HETATM   27  C18 UNK     1      15.384   0.873  36.840  1.00  0.00     0.174 C 
HETATM   28  C19 UNK     1      15.408   0.251  35.460  1.00  0.00     0.034 C 
ENDBRANCH  26  27
ENDBRANCH  24  26
ENDBRANCH   6  24
TORSDOF 5
ENDMDL
MODEL 4
REMARK VINA RESULT:      -8.8     19.955     22.374
REMARK  5 active torsions:
REMARK  status: ('A' for Active; 'I' for Inactive)
REMARK    1  A    between atoms: C13_21  and  O2_3 
REMARK    2  A    between atoms: C18_26  and  O2_3 
REMARK    3  A    between atoms: C2_10  and  N1_7 
REMARK       I    between atoms: C9_17  and  N1_7 
REMARK    4  A    between atoms: C13_21  and  C4_12 
REMARK    5  A    between atoms: C6_14  and  C9_17 
ROOT
HETATM    1  S1  UNK     1      19.134  -1.699  12.299  1.00  0.00    -0.064 SA
HETATM    2  N2  UNK     1      21.188  -4.855  15.726  1.00  0.00    -0.191 NA
HETATM    3  C1  UNK     1      20.033  -4.104  12.396  1.00  0.00    -0.015 A 
HETATM    4  C2  UNK     1      19.739  -2.291  13.773  1.00  0.00     0.099 A 
HETATM    5  C3  UNK     1      20.187  -3.572  13.708  1.00  0.00     0.086 A 
HETATM    6  C4  UNK     1      19.471  -3.191  11.530  1.00  0.00     0.089 A 
HETATM    7  C10 UNK     1      20.427  -5.481  12.001  1.00  0.00     0.051 C 
HETATM    8  C17 UNK     1      20.739  -4.280  14.822  1.00  0.00     0.103 C 
ENDROOT
BRANCH   4   9
HETATM    9  N1  UNK     1      19.698  -1.394  14.845  1.00  0.00    -0.316 N 
HETATM   10  C9  UNK     1      18.722  -1.342  15.831  1.00  0.00     0.262 C 
HETATM   11  O3  UNK     1      17.725  -2.050  15.963  1.00  0.00    -0.267 OA
HETATM   12  H1  UNK     1      20.484  -0.749  14.882  1.00  0.00     0.170 HD
BRANCH  10  13
HETATM   13  C6  UNK     1      18.988  -0.277  16.806  1.00  0.00     0.108 A 
HETATM   14  C11 UNK     1      19.249   1.119  16.393  1.00  0.00     0.304 A 
HETATM   15  O1  UNK     1      19.486   2.039  17.411  1.00  0.00    -0.274 OA
HETATM   16  O4  UNK     1      19.257   1.455  15.214  1.00  0.00    -0.259 OA
HETATM   17  C8  UNK     1      19.477   1.664  18.768  1.00  0.00     0.089 A 
HETATM   18  C14 UNK     1      19.724   2.655  19.716  1.00  0.00     0.038 A 
HETATM   19  C5  UNK     1      19.230   0.345  19.135  1.00  0.00    -0.001 A 
HETATM   20  C16 UNK     1      19.724   2.315  21.066  1.00  0.00     0.003 A 
HETATM   21  C15 UNK     1      19.477   0.995  21.454  1.00  0.00     0.001 A 
HETATM   22  C12 UNK     1      19.231   0.011  20.492  1.00  0.00     0.014 A 
HETATM   23  C7  UNK     1      18.979  -0.640  18.094  1.00  0.00     0.037 A 
ENDBRANCH  10  13
ENDBRANCH   4   9
BRANCH   6  24
HETATM   24  C13 UNK     1      19.157  -3.334  10.144  1.00  0.00     0.300 C 
HETATM   25  O5  UNK     1      19.861  -2.923   9.193  1.00  0.00    -0.259 OA
BRANCH  24  26
HETATM   26  O2  UNK     1      17.963  -3.992   9.937  1.00  0.00    -0.317 OA
BRANCH  26  27
HETATM   27  C18 UNK     1      17.941  -5.056   8.981  1.00  0.00     0.174 C 
HETATM   28  C19 UNK     1      17.671  -6.360   9.702  1.00  0.00     0.034 C 
ENDBRANCH  26  27
ENDBRANCH  24  26
ENDBRANCH   6  24
TORSDOF 5
ENDMDL
MODEL 5
REMARK VINA RESULT:      -8.6      1.687      2.611
REMARK  5 active torsions:
REMARK  status: ('A' for Active; 'I' for Inactive)
REMARK    1  A    between atoms: C13_21  and  O2_3 
REMARK    2  A    between atoms: C18_26  and  O2_3 
REMARK    3  A    between atoms: C2_10  and  N1_7 
REMARK       I    between atoms: C9_17  and  N1_7 
REMARK    4  A    between atoms: C13_21  and  C4_12 
REMARK    5  A    between atoms: C6_14  and  C9_17 
ROOT
HETATM    1  S1  UNK     1      19.213  -7.343  37.904  1.00  0.00    -0.064 SA
HETATM    2  N2  UNK     1      23.705  -5.216  39.009  1.00  0.00    -0.191 NA
HETATM    3  C1  UNK     1      21.448  -8.027  38.971  1.00  0.00    -0.015 A 
HETATM    4  C2  UNK     1      20.447  -6.183  38.037  1.00  0.00     0.099 A 
HETATM    5  C3  UNK     1      21.583  -6.653  38.615  1.00  0.00     0.086 A 
HETATM    6  C4  UNK     1      20.207  -8.527  38.640  1.00  0.00     0.089 A 
HETATM    7  C10 UNK     1      22.514  -8.830  39.622  1.00  0.00     0.051 C 
HETATM    8  C17 UNK     1      22.753  -5.861  38.833  1.00  0.00     0.103 C 
ENDROOT
BRANCH   4   9
HETATM    9  N1  UNK     1      20.138  -4.913  37.540  1.00  0.00    -0.316 N 
HETATM   10  C9  UNK     1      20.007  -4.568  36.202  1.00  0.00     0.262 C 
HETATM   11  O3  UNK     1      20.131  -5.283  35.209  1.00  0.00    -0.267 OA
HETATM   12  H1  UNK     1      19.983  -4.209  38.257  1.00  0.00     0.170 HD
BRANCH  10  13
HETATM   13  C6  UNK     1      19.677  -3.148  36.034  1.00  0.00     0.108 A 
HETATM   14  C11 UNK     1      20.140  -2.365  34.866  1.00  0.00     0.304 A 
HETATM   15  O1  UNK     1      19.760  -1.027  34.819  1.00  0.00    -0.274 OA
HETATM   16  O4  UNK     1      20.824  -2.867  33.980  1.00  0.00    -0.259 OA
HETATM   17  C8  UNK     1      18.974  -0.442  35.829  1.00  0.00     0.089 A 
HETATM   18  C14 UNK     1      18.643   0.905  35.695  1.00  0.00     0.038 A 
HETATM   19  C5  UNK     1      18.549  -1.195  36.919  1.00  0.00    -0.001 A 
HETATM   20  C16 UNK     1      17.867   1.513  36.679  1.00  0.00     0.003 A 
HETATM   21  C15 UNK     1      17.431   0.772  37.781  1.00  0.00     0.001 A 
HETATM   22  C12 UNK     1      17.770  -0.578  37.902  1.00  0.00     0.014 A 
HETATM   23  C7  UNK     1      18.929  -2.597  36.997  1.00  0.00     0.037 A 
ENDBRANCH  10  13
ENDBRANCH   4   9
BRANCH   6  24
HETATM   24  C13 UNK     1      19.683  -9.842  38.827  1.00  0.00     0.300 C 
HETATM   25  O5  UNK     1      19.313 -10.328  39.921  1.00  0.00    -0.259 OA
BRANCH  24  26
HETATM   26  O2  UNK     1      19.617 -10.558  37.650  1.00  0.00    -0.317 OA
BRANCH  26  27
HETATM   27  C18 UNK     1      20.832 -11.114  37.136  1.00  0.00     0.174 C 
HETATM   28  C19 UNK     1      21.170 -10.433  35.827  1.00  0.00     0.034 C 
ENDBRANCH  26  27
ENDBRANCH  24  26
ENDBRANCH   6  24
TORSDOF 5
ENDMDL
MODEL 6
REMARK VINA RESULT:      -8.6      1.496      2.035
REMARK  5 active torsions:
REMARK  status: ('A' for Active; 'I' for Inactive)
REMARK    1  A    between atoms: C13_21  and  O2_3 
REMARK    2  A    between atoms: C18_26  and  O2_3 
REMARK    3  A    between atoms: C2_10  and  N1_7 
REMARK       I    between atoms: C9_17  and  N1_7 
REMARK    4  A    between atoms: C13_21  and  C4_12 
REMARK    5  A    between atoms: C6_14  and  C9_17 
ROOT
HETATM    1  S1  UNK     1      20.695  -6.691  37.699  1.00  0.00    -0.064 SA
HETATM    2  N2  UNK     1      16.371  -7.206  35.061  1.00  0.00    -0.191 NA
HETATM    3  C1  UNK     1      19.108  -8.574  36.967  1.00  0.00    -0.015 A 
HETATM    4  C2  UNK     1      19.320  -6.295  36.782  1.00  0.00     0.099 A 
HETATM    5  C3  UNK     1      18.553  -7.367  36.451  1.00  0.00     0.086 A 
HETATM    6  C4  UNK     1      20.274  -8.350  37.666  1.00  0.00     0.089 A 
HETATM    7  C10 UNK     1      18.506  -9.918  36.775  1.00  0.00     0.051 C 
HETATM    8  C17 UNK     1      17.349  -7.279  35.684  1.00  0.00     0.103 C 
ENDROOT
BRANCH   4   9
HETATM    9  N1  UNK     1      19.158  -4.936  36.493  1.00  0.00    -0.316 N 
HETATM   10  C9  UNK     1      20.143  -3.961  36.568  1.00  0.00     0.262 C 
HETATM   11  O3  UNK     1      21.323  -4.085  36.894  1.00  0.00    -0.267 OA
HETATM   12  H1  UNK     1      18.223  -4.683  36.184  1.00  0.00     0.170 HD
BRANCH  10  13
HETATM   13  C6  UNK     1      19.631  -2.637  36.195  1.00  0.00     0.108 A 
HETATM   14  C11 UNK     1      19.859  -2.057  34.853  1.00  0.00     0.304 A 
HETATM   15  O1  UNK     1      19.321  -0.794  34.619  1.00  0.00    -0.274 OA
HETATM   16  O4  UNK     1      20.487  -2.655  33.986  1.00  0.00    -0.259 OA
HETATM   17  C8  UNK     1      18.596  -0.100  35.606  1.00  0.00     0.089 A 
HETATM   18  C14 UNK     1      18.097   1.159  35.278  1.00  0.00     0.038 A 
HETATM   19  C5  UNK     1      18.394  -0.664  36.862  1.00  0.00    -0.001 A 
HETATM   20  C16 UNK     1      17.376   1.871  36.235  1.00  0.00     0.003 A 
HETATM   21  C15 UNK     1      17.164   1.321  37.501  1.00  0.00     0.001 A 
HETATM   22  C12 UNK     1      17.671   0.056  37.816  1.00  0.00     0.014 A 
HETATM   23  C7  UNK     1      18.943  -1.983  37.138  1.00  0.00     0.037 A 
ENDBRANCH  10  13
ENDBRANCH   4   9
BRANCH   6  24
HETATM   24  C13 UNK     1      21.124  -9.286  38.329  1.00  0.00     0.300 C 
HETATM   25  O5  UNK     1      21.433  -9.254  39.543  1.00  0.00    -0.259 OA
BRANCH  24  26
HETATM   26  O2  UNK     1      21.593 -10.268  37.483  1.00  0.00    -0.317 OA
BRANCH  26  27
HETATM   27  C18 UNK     1      22.395  -9.864  36.369  1.00  0.00     0.174 C 
HETATM   28  C19 UNK     1      21.936 -10.610  35.134  1.00  0.00     0.034 C 
ENDBRANCH  26  27
ENDBRANCH  24  26
ENDBRANCH   6  24
TORSDOF 5
ENDMDL
MODEL 7
REMARK VINA RESULT:      -8.5      7.990     13.351
REMARK  5 active torsions:
REMARK  status: ('A' for Active; 'I' for Inactive)
REMARK    1  A    between atoms: C13_21  and  O2_3 
REMARK    2  A    between atoms: C18_26  and  O2_3 
REMARK    3  A    between atoms: C2_10  and  N1_7 
REMARK       I    between atoms: C9_17  and  N1_7 
REMARK    4  A    between atoms: C13_21  and  C4_12 
REMARK    5  A    between atoms: C6_14  and  C9_17 
ROOT
HETATM    1  S1  UNK     1      16.787   6.321  33.543  1.00  0.00    -0.064 SA
HETATM    2  N2  UNK     1      21.817   6.641  32.825  1.00  0.00    -0.191 NA
HETATM    3  C1  UNK     1      18.628   8.111  33.638  1.00  0.00    -0.015 A 
HETATM    4  C2  UNK     1      18.388   5.870  33.196  1.00  0.00     0.099 A 
HETATM    5  C3  UNK     1      19.277   6.895  33.276  1.00  0.00     0.086 A 
HETATM    6  C4  UNK     1      17.271   7.941  33.813  1.00  0.00     0.089 A 
HETATM    7  C10 UNK     1      19.325   9.412  33.806  1.00  0.00     0.051 C 
HETATM    8  C17 UNK     1      20.678   6.755  33.027  1.00  0.00     0.103 C 
ENDROOT
BRANCH   4   9
HETATM    9  N1  UNK     1      18.580   4.522  32.879  1.00  0.00    -0.316 N 
HETATM   10  C9  UNK     1      18.254   3.911  31.676  1.00  0.00     0.262 C 
HETATM   11  O3  UNK     1      17.746   4.410  30.674  1.00  0.00    -0.267 OA
HETATM   12  H1  UNK     1      19.019   3.977  33.616  1.00  0.00     0.170 HD
BRANCH  10  13
HETATM   13  C6  UNK     1      18.590   2.482  31.681  1.00  0.00     0.108 A 
HETATM   14  C11 UNK     1      18.298   1.610  32.840  1.00  0.00     0.304 A 
HETATM   15  O1  UNK     1      18.663   0.271  32.724  1.00  0.00    -0.274 OA
HETATM   16  O4  UNK     1      17.760   2.040  33.855  1.00  0.00    -0.259 OA
HETATM   17  C8  UNK     1      19.280  -0.233  31.563  1.00  0.00     0.089 A 
HETATM   18  C14 UNK     1      19.609  -1.586  31.539  1.00  0.00     0.038 A 
HETATM   19  C5  UNK     1      19.547   0.605  30.484  1.00  0.00    -0.001 A 
HETATM   20  C16 UNK     1      20.221  -2.114  30.404  1.00  0.00     0.003 A 
HETATM   21  C15 UNK     1      20.497  -1.288  29.312  1.00  0.00     0.001 A 
HETATM   22  C12 UNK     1      20.161   0.068  29.349  1.00  0.00     0.014 A 
HETATM   23  C7  UNK     1      19.176   2.009  30.575  1.00  0.00     0.037 A 
ENDBRANCH  10  13
ENDBRANCH   4   9
BRANCH   6  24
HETATM   24  C13 UNK     1      16.279   8.902  34.175  1.00  0.00     0.300 C 
HETATM   25  O5  UNK     1      16.031   9.287  35.341  1.00  0.00    -0.259 OA
BRANCH  24  26
HETATM   26  O2  UNK     1      15.591   9.389  33.084  1.00  0.00    -0.317 OA
BRANCH  26  27
HETATM   27  C18 UNK     1      14.165   9.470  33.173  1.00  0.00     0.174 C 
HETATM   28  C19 UNK     1      13.749  10.924  33.115  1.00  0.00     0.034 C 
ENDBRANCH  26  27
ENDBRANCH  24  26
ENDBRANCH   6  24
TORSDOF 5
ENDMDL
MODEL 8
REMARK VINA RESULT:      -8.5      2.243      3.229
REMARK  5 active torsions:
REMARK  status: ('A' for Active; 'I' for Inactive)
REMARK    1  A    between atoms: C13_21  and  O2_3 
REMARK    2  A    between atoms: C18_26  and  O2_3 
REMARK    3  A    between atoms: C2_10  and  N1_7 
REMARK       I    between atoms: C9_17  and  N1_7 
REMARK    4  A    between atoms: C13_21  and  C4_12 
REMARK    5  A    between atoms: C6_14  and  C9_17 
ROOT
HETATM    1  S1  UNK     1      19.917  -5.477  37.383  1.00  0.00    -0.064 SA
HETATM    2  N2  UNK     1      20.883  -7.543  32.831  1.00  0.00    -0.191 NA
HETATM    3  C1  UNK     1      20.582  -7.763  36.416  1.00  0.00    -0.015 A 
HETATM    4  C2  UNK     1      20.121  -5.629  35.703  1.00  0.00     0.099 A 
HETATM    5  C3  UNK     1      20.472  -6.880  35.304  1.00  0.00     0.086 A 
HETATM    6  C4  UNK     1      20.306  -7.129  37.609  1.00  0.00     0.089 A 
HETATM    7  C10 UNK     1      20.950  -9.198  36.311  1.00  0.00     0.051 C 
HETATM    8  C17 UNK     1      20.699  -7.246  33.940  1.00  0.00     0.103 C 
ENDROOT
BRANCH   4   9
HETATM    9  N1  UNK     1      19.904  -4.464  34.960  1.00  0.00    -0.316 N 
HETATM   10  C9  UNK     1      20.415  -3.206  35.246  1.00  0.00     0.262 C 
HETATM   11  O3  UNK     1      21.140  -2.865  36.179  1.00  0.00    -0.267 OA
HETATM   12  H1  UNK     1      19.330  -4.597  34.132  1.00  0.00     0.170 HD
BRANCH  10  13
HETATM   13  C6  UNK     1      19.988  -2.206  34.259  1.00  0.00     0.108 A 
HETATM   14  C11 UNK     1      19.048  -1.116  34.601  1.00  0.00     0.304 A 
HETATM   15  O1  UNK     1      18.721  -0.229  33.579  1.00  0.00    -0.274 OA
HETATM   16  O4  UNK     1      18.580  -0.993  35.728  1.00  0.00    -0.259 OA
HETATM   17  C8  UNK     1      19.255  -0.359  32.282  1.00  0.00     0.089 A 
HETATM   18  C14 UNK     1      18.868   0.577  31.325  1.00  0.00     0.038 A 
HETATM   19  C5  UNK     1      20.137  -1.393  31.982  1.00  0.00    -0.001 A 
HETATM   20  C16 UNK     1      19.378   0.474  30.034  1.00  0.00     0.003 A 
HETATM   21  C15 UNK     1      20.265  -0.558  29.713  1.00  0.00     0.001 A 
HETATM   22  C12 UNK     1      20.644  -1.490  30.684  1.00  0.00     0.014 A 
HETATM   23  C7  UNK     1      20.499  -2.336  33.029  1.00  0.00     0.037 A 
ENDBRANCH  10  13
ENDBRANCH   4   9
BRANCH   6  24
HETATM   24  C13 UNK     1      20.306  -7.658  38.935  1.00  0.00     0.300 C 
HETATM   25  O5  UNK     1      19.311  -7.716  39.694  1.00  0.00    -0.259 OA
BRANCH  24  26
HETATM   26  O2  UNK     1      21.546  -8.120  39.321  1.00  0.00    -0.317 OA
BRANCH  26  27
HETATM   27  C18 UNK     1      22.567  -7.153  39.585  1.00  0.00     0.174 C 
HETATM   28  C19 UNK     1      23.874  -7.643  38.998  1.00  0.00     0.034 C 
ENDBRANCH  26  27
ENDBRANCH  24  26
ENDBRANCH   6  24
TORSDOF 5
ENDMDL
MODEL 9
REMARK VINA RESULT:      -8.4      1.204      2.075
REMARK  5 active torsions:
REMARK  status: ('A' for Active; 'I' for Inactive)
REMARK    1  A    between atoms: C13_21  and  O2_3 
REMARK    2  A    between atoms: C18_26  and  O2_3 
REMARK    3  A    between atoms: C2_10  and  N1_7 
REMARK       I    between atoms: C9_17  and  N1_7 
REMARK    4  A    between atoms: C13_21  and  C4_12 
REMARK    5  A    between atoms: C6_14  and  C9_17 
ROOT
HETATM    1  S1  UNK     1      19.395  -6.850  37.841  1.00  0.00    -0.064 SA
HETATM    2  N2  UNK     1      20.928  -7.207  32.999  1.00  0.00    -0.191 NA
HETATM    3  C1  UNK     1      20.340  -8.637  36.255  1.00  0.00    -0.015 A 
HETATM    4  C2  UNK     1      19.756  -6.416  36.238  1.00  0.00     0.099 A 
HETATM    5  C3  UNK     1      20.249  -7.438  35.491  1.00  0.00     0.086 A 
HETATM    6  C4  UNK     1      19.908  -8.458  37.552  1.00  0.00     0.089 A 
HETATM    7  C10 UNK     1      20.841  -9.930  35.724  1.00  0.00     0.051 C 
HETATM    8  C17 UNK     1      20.624  -7.311  34.116  1.00  0.00     0.103 C 
ENDROOT
BRANCH   4   9
HETATM    9  N1  UNK     1      19.503  -5.083  35.902  1.00  0.00    -0.316 N 
HETATM   10  C9  UNK     1      20.261  -3.985  36.283  1.00  0.00     0.262 C 
HETATM   11  O3  UNK     1      21.280  -3.957  36.971  1.00  0.00    -0.267 OA
HETATM   12  H1  UNK     1      18.689  -4.949  35.307  1.00  0.00     0.170 HD
BRANCH  10  13
HETATM   13  C6  UNK     1      19.711  -2.731  35.755  1.00  0.00     0.108 A 
HETATM   14  C11 UNK     1      19.043  -1.738  36.626  1.00  0.00     0.304 A 
HETATM   15  O1  UNK     1      18.563  -0.586  36.008  1.00  0.00    -0.274 OA
HETATM   16  O4  UNK     1      18.918  -1.915  37.833  1.00  0.00    -0.259 OA
HETATM   17  C8  UNK     1      18.703  -0.372  34.623  1.00  0.00     0.089 A 
HETATM   18  C14 UNK     1      18.191   0.811  34.095  1.00  0.00     0.038 A 
HETATM   19  C5  UNK     1      19.334  -1.319  33.822  1.00  0.00    -0.001 A 
HETATM   20  C16 UNK     1      18.313   1.050  32.728  1.00  0.00     0.003 A 
HETATM   21  C15 UNK     1      18.943   0.111  31.909  1.00  0.00     0.001 A 
HETATM   22  C12 UNK     1      19.453  -1.072  32.452  1.00  0.00     0.014 A 
HETATM   23  C7  UNK     1      19.847  -2.533  34.439  1.00  0.00     0.037 A 
ENDBRANCH  10  13
ENDBRANCH   4   9
BRANCH   6  24
HETATM   24  C13 UNK     1      19.840  -9.402  38.621  1.00  0.00     0.300 C 
HETATM   25  O5  UNK     1      19.108 -10.419  38.646  1.00  0.00    -0.259 OA
BRANCH  24  26
HETATM   26  O2  UNK     1      20.683  -9.083  39.663  1.00  0.00    -0.317 OA
BRANCH  26  27
HETATM   27  C18 UNK     1      22.059  -8.835  39.359  1.00  0.00     0.174 C 
HETATM   28  C19 UNK     1      22.459  -7.496  39.940  1.00  0.00     0.034 C 
ENDBRANCH  26  27
ENDBRANCH  24  26
ENDBRANCH   6  24
TORSDOF 5
ENDMDL
MODEL 10
REMARK VINA RESULT:      -8.4      3.286      9.197
REMARK  5 active torsions:
REMARK  status: ('A' for Active; 'I' for Inactive)
REMARK    1  A    between atoms: C13_21  and  O2_3 
REMARK    2  A    between atoms: C18_26  and  O2_3 
REMARK    3  A    between atoms: C2_10  and  N1_7 
REMARK       I    between atoms: C9_17  and  N1_7 
REMARK    4  A    between atoms: C13_21  and  C4_12 
REMARK    5  A    between atoms: C6_14  and  C9_17 
ROOT
HETATM    1  S1  UNK     1      18.876  -0.644  32.638  1.00  0.00    -0.064 SA
HETATM    2  N2  UNK     1      18.276   1.268  37.319  1.00  0.00    -0.191 NA
HETATM    3  C1  UNK     1      18.355   1.622  33.732  1.00  0.00    -0.015 A 
HETATM    4  C2  UNK     1      18.784  -0.553  34.333  1.00  0.00     0.099 A 
HETATM    5  C3  UNK     1      18.504   0.691  34.801  1.00  0.00     0.086 A 
HETATM    6  C4  UNK     1      18.533   1.028  32.501  1.00  0.00     0.089 A 
HETATM    7  C10 UNK     1      18.047   3.063  33.917  1.00  0.00     0.051 C 
HETATM    8  C17 UNK     1      18.378   1.010  36.190  1.00  0.00     0.103 C 
ENDROOT
BRANCH   4   9
HETATM    9  N1  UNK     1      19.006  -1.754  35.014  1.00  0.00    -0.316 N 
HETATM   10  C9  UNK     1      20.194  -2.469  35.044  1.00  0.00     0.262 C 
HETATM   11  O3  UNK     1      21.264  -2.206  34.498  1.00  0.00    -0.267 OA
HETATM   12  H1  UNK     1      18.203  -2.091  35.539  1.00  0.00     0.170 HD
BRANCH  10  13
HETATM   13  C6  UNK     1      20.078  -3.687  35.856  1.00  0.00     0.108 A 
HETATM   14  C11 UNK     1      19.937  -3.639  37.329  1.00  0.00     0.304 A 
HETATM   15  O1  UNK     1      19.833  -4.861  37.987  1.00  0.00    -0.274 OA
HETATM   16  O4  UNK     1      19.910  -2.578  37.943  1.00  0.00    -0.259 OA
HETATM   17  C8  UNK     1      19.861  -6.085  37.292  1.00  0.00     0.089 A 
HETATM   18  C14 UNK     1      19.751  -7.257  38.037  1.00  0.00     0.038 A 
HETATM   19  C5  UNK     1      19.996  -6.108  35.907  1.00  0.00    -0.001 A 
HETATM   20  C16 UNK     1      19.777  -8.483  37.378  1.00  0.00     0.003 A 
HETATM   21  C15 UNK     1      19.911  -8.526  35.987  1.00  0.00     0.001 A 
HETATM   22  C12 UNK     1      20.020  -7.342  35.252  1.00  0.00     0.014 A 
HETATM   23  C7  UNK     1      20.106  -4.847  35.190  1.00  0.00     0.037 A 
ENDBRANCH  10  13
ENDBRANCH   4   9
BRANCH   6  24
HETATM   24  C13 UNK     1      18.466   1.610  31.199  1.00  0.00     0.300 C 
HETATM   25  O5  UNK     1      17.532   2.327  30.770  1.00  0.00    -0.259 OA
BRANCH  24  26
HETATM   26  O2  UNK     1      19.565   1.303  30.425  1.00  0.00    -0.317 OA
BRANCH  26  27
HETATM   27  C18 UNK     1      19.334   0.729  29.134  1.00  0.00     0.174 C 
HETATM   28  C19 UNK     1      20.262  -0.453  28.947  1.00  0.00     0.034 C 
ENDBRANCH  26  27
ENDBRANCH  24  26
ENDBRANCH   6  24
TORSDOF 5
ENDMDL
