MODEL 1
REMARK VINA RESULT:     -10.5      0.000      0.000
REMARK  2 active torsions:
REMARK  status: ('A' for Active; 'I' for Inactive)
REMARK    1  A    between atoms: C3_10  and  N1_5 
REMARK       I    between atoms: C7_14  and  N1_5 
REMARK    2  A    between atoms: C2_9  and  C7_14 
ROOT
HETATM    1  O3  UNK     1      16.826  -2.046  16.649  1.00  0.00    -0.267 OA
HETATM    2  N1  UNK     1      19.043  -1.265  16.505  1.00  0.00    -0.321 N 
HETATM    3  C7  UNK     1      17.983  -2.122  16.240  1.00  0.00     0.262 C 
HETATM    4  H2  UNK     1      19.943  -1.453  16.071  1.00  0.00     0.169 HD
ENDROOT
BRANCH   3   5
HETATM    5  C2  UNK     1      18.373  -3.227  15.355  1.00  0.00     0.108 A 
HETATM    6  C11 UNK     1      19.554  -3.144  14.468  1.00  0.00     0.304 A 
HETATM    7  O1  UNK     1      19.821  -4.258  13.676  1.00  0.00    -0.274 OA
HETATM    8  O4  UNK     1      20.268  -2.147  14.429  1.00  0.00    -0.259 OA
HETATM    9  C4  UNK     1      19.010  -5.408  13.715  1.00  0.00     0.089 A 
HETATM   10  C1  UNK     1      17.903  -5.465  14.556  1.00  0.00    -0.001 A 
HETATM   11  C12 UNK     1      19.356  -6.473  12.886  1.00  0.00     0.038 A 
HETATM   12  C5  UNK     1      17.598  -4.317  15.396  1.00  0.00     0.037 A 
HETATM   13  C9  UNK     1      17.121  -6.623  14.565  1.00  0.00     0.014 A 
HETATM   14  C15 UNK     1      17.457  -7.699  13.739  1.00  0.00     0.001 A 
HETATM   15  C16 UNK     1      18.573  -7.624  12.901  1.00  0.00     0.003 A 
ENDBRANCH   3   5
BRANCH   2  16
HETATM   16  C3  UNK     1      19.033  -0.102  17.312  1.00  0.00     0.068 A 
HETATM   17  C10 UNK     1      18.903  -0.186  18.698  1.00  0.00     0.032 A 
HETATM   18  C14 UNK     1      18.889   0.963  19.531  1.00  0.00     0.005 A 
HETATM   19  C13 UNK     1      19.003   2.276  19.038  1.00  0.00     0.036 A 
HETATM   20  C8  UNK     1      19.135   2.362  17.640  1.00  0.00     0.119 A 
HETATM   21  C6  UNK     1      19.149   1.182  16.784  1.00  0.00     0.144 A 
HETATM   22  N3  UNK     1      19.263   3.444  16.862  1.00  0.00    -0.103 NA
HETATM   23  N2  UNK     1      19.285   1.588  15.516  1.00  0.00    -0.101 NA
HETATM   24  O2  UNK     1      19.355   2.970  15.565  1.00  0.00    -0.106 OA
ENDBRANCH   2  16
TORSDOF 2
ENDMDL
MODEL 2
REMARK VINA RESULT:     -10.3     14.064     16.688
REMARK  2 active torsions:
REMARK  status: ('A' for Active; 'I' for Inactive)
REMARK    1  A    between atoms: C3_10  and  N1_5 
REMARK       I    between atoms: C7_14  and  N1_5 
REMARK    2  A    between atoms: C2_9  and  C7_14 
ROOT
HETATM    1  O3  UNK     1      17.599   3.405  32.954  1.00  0.00    -0.267 OA
HETATM    2  N1  UNK     1      18.863   4.901  31.648  1.00  0.00    -0.321 N 
HETATM    3  C7  UNK     1      18.321   3.672  31.995  1.00  0.00     0.262 C 
HETATM    4  H2  UNK     1      19.429   4.965  30.805  1.00  0.00     0.169 HD
ENDROOT
BRANCH   3   5
HETATM    5  C2  UNK     1      18.704   2.612  31.054  1.00  0.00     0.108 A 
HETATM    6  C11 UNK     1      18.663   2.811  29.588  1.00  0.00     0.304 A 
HETATM    7  O1  UNK     1      19.051   1.730  28.800  1.00  0.00    -0.274 OA
HETATM    8  O4  UNK     1      18.308   3.872  29.087  1.00  0.00    -0.259 OA
HETATM    9  C4  UNK     1      19.463   0.508  29.366  1.00  0.00     0.089 A 
HETATM   10  C1  UNK     1      19.494   0.342  30.747  1.00  0.00    -0.001 A 
HETATM   11  C12 UNK     1      19.833  -0.515  28.496  1.00  0.00     0.038 A 
HETATM   12  C5  UNK     1      19.094   1.453  31.597  1.00  0.00     0.037 A 
HETATM   13  C9  UNK     1      19.907  -0.886  31.269  1.00  0.00     0.014 A 
HETATM   14  C15 UNK     1      20.282  -1.921  30.409  1.00  0.00     0.001 A 
HETATM   15  C16 UNK     1      20.244  -1.736  29.025  1.00  0.00     0.003 A 
ENDBRANCH   3   5
BRANCH   2  16
HETATM   16  C3  UNK     1      18.705   6.137  32.320  1.00  0.00     0.068 A 
HETATM   17  C10 UNK     1      19.546   6.498  33.372  1.00  0.00     0.032 A 
HETATM   18  C14 UNK     1      19.411   7.729  34.065  1.00  0.00     0.005 A 
HETATM   19  C13 UNK     1      18.427   8.685  33.757  1.00  0.00     0.036 A 
HETATM   20  C8  UNK     1      17.577   8.322  32.695  1.00  0.00     0.119 A 
HETATM   21  C6  UNK     1      17.716   7.058  31.983  1.00  0.00     0.144 A 
HETATM   22  N3  UNK     1      16.552   8.995  32.157  1.00  0.00    -0.103 NA
HETATM   23  N2  UNK     1      16.770   7.005  31.038  1.00  0.00    -0.101 NA
HETATM   24  O2  UNK     1      16.060   8.189  31.145  1.00  0.00    -0.106 OA
ENDBRANCH   2  16
TORSDOF 2
ENDMDL
MODEL 3
REMARK VINA RESULT:     -10.2     19.614     21.773
REMARK  2 active torsions:
REMARK  status: ('A' for Active; 'I' for Inactive)
REMARK    1  A    between atoms: C3_10  and  N1_5 
REMARK       I    between atoms: C7_14  and  N1_5 
REMARK    2  A    between atoms: C2_9  and  C7_14 
ROOT
HETATM    1  O3  UNK     1      21.277  -4.181  37.194  1.00  0.00    -0.267 OA
HETATM    2  N1  UNK     1      19.289  -5.096  36.323  1.00  0.00    -0.321 N 
HETATM    3  C7  UNK     1      20.182  -4.083  36.643  1.00  0.00     0.262 C 
HETATM    4  H2  UNK     1      18.425  -4.853  35.845  1.00  0.00     0.169 HD
ENDROOT
BRANCH   3   5
HETATM    5  C2  UNK     1      19.684  -2.760  36.243  1.00  0.00     0.108 A 
HETATM    6  C11 UNK     1      19.933  -2.203  34.895  1.00  0.00     0.304 A 
HETATM    7  O1  UNK     1      19.409  -0.939  34.634  1.00  0.00    -0.274 OA
HETATM    8  O4  UNK     1      20.566  -2.819  34.044  1.00  0.00    -0.259 OA
HETATM    9  C4  UNK     1      18.678  -0.225  35.603  1.00  0.00     0.089 A 
HETATM   10  C1  UNK     1      18.456  -0.767  36.865  1.00  0.00    -0.001 A 
HETATM   11  C12 UNK     1      18.193   1.033  35.250  1.00  0.00     0.038 A 
HETATM   12  C5  UNK     1      18.991  -2.086  37.167  1.00  0.00     0.037 A 
HETATM   13  C9  UNK     1      17.728  -0.027  37.799  1.00  0.00     0.014 A 
HETATM   14  C15 UNK     1      17.234   1.236  37.459  1.00  0.00     0.001 A 
HETATM   15  C16 UNK     1      17.467   1.765  36.187  1.00  0.00     0.003 A 
ENDBRANCH   3   5
BRANCH   2  16
HETATM   16  C3  UNK     1      19.438  -6.485  36.558  1.00  0.00     0.068 A 
HETATM   17  C10 UNK     1      18.866  -7.092  37.675  1.00  0.00     0.032 A 
HETATM   18  C14 UNK     1      18.999  -8.481  37.937  1.00  0.00     0.005 A 
HETATM   19  C13 UNK     1      19.712  -9.359  37.101  1.00  0.00     0.036 A 
HETATM   20  C8  UNK     1      20.289  -8.748  35.972  1.00  0.00     0.119 A 
HETATM   21  C6  UNK     1      20.152  -7.321  35.704  1.00  0.00     0.144 A 
HETATM   22  N3  UNK     1      21.021  -9.290  34.991  1.00  0.00    -0.103 NA
HETATM   23  N2  UNK     1      20.807  -7.046  34.569  1.00  0.00    -0.101 NA
HETATM   24  O2  UNK     1      21.336  -8.249  34.135  1.00  0.00    -0.106 OA
ENDBRANCH   2  16
TORSDOF 2
ENDMDL
MODEL 4
REMARK VINA RESULT:     -10.0     19.918     22.675
REMARK  2 active torsions:
REMARK  status: ('A' for Active; 'I' for Inactive)
REMARK    1  A    between atoms: C3_10  and  N1_5 
REMARK       I    between atoms: C7_14  and  N1_5 
REMARK    2  A    between atoms: C2_9  and  C7_14 
ROOT
HETATM    1  O3  UNK     1      20.117  -5.133  35.414  1.00  0.00    -0.267 OA
HETATM    2  N1  UNK     1      20.218  -4.620  37.710  1.00  0.00    -0.321 N 
HETATM    3  C7  UNK     1      20.016  -4.357  36.362  1.00  0.00     0.262 C 
HETATM    4  H2  UNK     1      20.073  -3.869  38.381  1.00  0.00     0.169 HD
ENDROOT
BRANCH   3   5
HETATM    5  C2  UNK     1      19.638  -2.958  36.122  1.00  0.00     0.108 A 
HETATM    6  C11 UNK     1      20.033  -2.238  34.891  1.00  0.00     0.304 A 
HETATM    7  O1  UNK     1      19.614  -0.915  34.779  1.00  0.00    -0.274 OA
HETATM    8  O4  UNK     1      20.695  -2.775  34.009  1.00  0.00    -0.259 OA
HETATM    9  C4  UNK     1      18.851  -0.290  35.785  1.00  0.00     0.089 A 
HETATM   10  C1  UNK     1      18.491  -0.985  36.934  1.00  0.00    -0.001 A 
HETATM   11  C12 UNK     1      18.478   1.037  35.583  1.00  0.00     0.038 A 
HETATM   12  C5  UNK     1      18.914  -2.369  37.081  1.00  0.00     0.037 A 
HETATM   13  C9  UNK     1      17.736  -0.330  37.910  1.00  0.00     0.014 A 
HETATM   14  C15 UNK     1      17.353   1.001  37.721  1.00  0.00     0.001 A 
HETATM   15  C16 UNK     1      17.725   1.683  36.560  1.00  0.00     0.003 A 
ENDBRANCH   3   5
BRANCH   2  16
HETATM   16  C3  UNK     1      20.587  -5.851  38.304  1.00  0.00     0.068 A 
HETATM   17  C10 UNK     1      19.628  -6.806  38.639  1.00  0.00     0.032 A 
HETATM   18  C14 UNK     1      19.968  -8.048  39.236  1.00  0.00     0.005 A 
HETATM   19  C13 UNK     1      21.289  -8.422  39.539  1.00  0.00     0.036 A 
HETATM   20  C8  UNK     1      22.259  -7.460  39.202  1.00  0.00     0.119 A 
HETATM   21  C6  UNK     1      21.909  -6.184  38.588  1.00  0.00     0.144 A 
HETATM   22  N3  UNK     1      23.588  -7.500  39.355  1.00  0.00    -0.103 NA
HETATM   23  N2  UNK     1      23.039  -5.493  38.390  1.00  0.00    -0.101 NA
HETATM   24  O2  UNK     1      24.063  -6.298  38.859  1.00  0.00    -0.106 OA
ENDBRANCH   2  16
TORSDOF 2
ENDMDL
MODEL 5
REMARK VINA RESULT:     -10.0     19.508     21.256
REMARK  2 active torsions:
REMARK  status: ('A' for Active; 'I' for Inactive)
REMARK    1  A    between atoms: C3_10  and  N1_5 
REMARK       I    between atoms: C7_14  and  N1_5 
REMARK    2  A    between atoms: C2_9  and  C7_14 
ROOT
HETATM    1  O3  UNK     1      21.048  -3.458  37.641  1.00  0.00    -0.267 OA
HETATM    2  N1  UNK     1      18.918  -3.443  36.638  1.00  0.00    -0.321 N 
HETATM    3  C7  UNK     1      20.075  -4.020  37.143  1.00  0.00     0.262 C 
HETATM    4  H2  UNK     1      18.188  -4.051  36.274  1.00  0.00     0.169 HD
ENDROOT
BRANCH   3   5
HETATM    5  C2  UNK     1      20.058  -5.484  37.030  1.00  0.00     0.108 A 
HETATM    6  C11 UNK     1      20.136  -6.172  35.722  1.00  0.00     0.304 A 
HETATM    7  O1  UNK     1      20.111  -7.565  35.746  1.00  0.00    -0.274 OA
HETATM    8  O4  UNK     1      20.219  -5.553  34.667  1.00  0.00    -0.259 OA
HETATM    9  C4  UNK     1      20.018  -8.285  36.952  1.00  0.00     0.089 A 
HETATM   10  C1  UNK     1      19.946  -7.619  38.171  1.00  0.00    -0.001 A 
HETATM   11  C12 UNK     1      20.000  -9.676  36.875  1.00  0.00     0.038 A 
HETATM   12  C5  UNK     1      19.970  -6.164  38.179  1.00  0.00     0.037 A 
HETATM   13  C9  UNK     1      19.853  -8.369  39.346  1.00  0.00     0.014 A 
HETATM   14  C15 UNK     1      19.835  -9.764  39.284  1.00  0.00     0.001 A 
HETATM   15  C16 UNK     1      19.908 -10.417  38.051  1.00  0.00     0.003 A 
ENDBRANCH   3   5
BRANCH   2  16
HETATM   16  C3  UNK     1      18.591  -2.067  36.584  1.00  0.00     0.068 A 
HETATM   17  C10 UNK     1      18.041  -1.413  37.686  1.00  0.00     0.032 A 
HETATM   18  C14 UNK     1      17.703  -0.035  37.661  1.00  0.00     0.005 A 
HETATM   19  C13 UNK     1      17.891   0.786  36.535  1.00  0.00     0.036 A 
HETATM   20  C8  UNK     1      18.447   0.128  35.422  1.00  0.00     0.119 A 
HETATM   21  C6  UNK     1      18.794  -1.287  35.448  1.00  0.00     0.144 A 
HETATM   22  N3  UNK     1      18.749   0.611  34.210  1.00  0.00    -0.103 NA
HETATM   23  N2  UNK     1      19.295  -1.616  34.250  1.00  0.00    -0.101 NA
HETATM   24  O2  UNK     1      19.267  -0.455  33.497  1.00  0.00    -0.106 OA
ENDBRANCH   2  16
TORSDOF 2
ENDMDL
MODEL 6
REMARK VINA RESULT:      -9.8     14.465     18.441
REMARK  2 active torsions:
REMARK  status: ('A' for Active; 'I' for Inactive)
REMARK    1  A    between atoms: C3_10  and  N1_5 
REMARK       I    between atoms: C7_14  and  N1_5 
REMARK    2  A    between atoms: C2_9  and  C7_14 
ROOT
HETATM    1  O3  UNK     1      17.074   2.567  30.562  1.00  0.00    -0.267 OA
HETATM    2  N1  UNK     1      19.369   2.284  31.006  1.00  0.00    -0.321 N 
HETATM    3  C7  UNK     1      18.164   2.971  30.963  1.00  0.00     0.262 C 
HETATM    4  H2  UNK     1      20.186   2.754  31.389  1.00  0.00     0.169 HD
ENDROOT
BRANCH   3   5
HETATM    5  C2  UNK     1      18.289   4.342  31.476  1.00  0.00     0.108 A 
HETATM    6  C11 UNK     1      19.062   5.381  30.760  1.00  0.00     0.304 A 
HETATM    7  O1  UNK     1      19.106   6.643  31.347  1.00  0.00    -0.274 OA
HETATM    8  O4  UNK     1      19.635   5.149  29.701  1.00  0.00    -0.259 OA
HETATM    9  C4  UNK     1      18.448   6.920  32.561  1.00  0.00     0.089 A 
HETATM   10  C1  UNK     1      17.727   5.928  33.218  1.00  0.00    -0.001 A 
HETATM   11  C12 UNK     1      18.550   8.213  33.071  1.00  0.00     0.038 A 
HETATM   12  C5  UNK     1      17.663   4.599  32.630  1.00  0.00     0.037 A 
HETATM   13  C9  UNK     1      17.091   6.242  34.421  1.00  0.00     0.014 A 
HETATM   14  C15 UNK     1      17.183   7.535  34.945  1.00  0.00     0.001 A 
HETATM   15  C16 UNK     1      17.912   8.518  34.271  1.00  0.00     0.003 A 
ENDBRANCH   3   5
BRANCH   2  16
HETATM   16  C3  UNK     1      19.620   0.952  30.598  1.00  0.00     0.068 A 
HETATM   17  C10 UNK     1      19.925   0.650  29.271  1.00  0.00     0.032 A 
HETATM   18  C14 UNK     1      20.180  -0.675  28.833  1.00  0.00     0.005 A 
HETATM   19  C13 UNK     1      20.149  -1.791  29.688  1.00  0.00     0.036 A 
HETATM   20  C8  UNK     1      19.841  -1.488  31.028  1.00  0.00     0.119 A 
HETATM   21  C6  UNK     1      19.579  -0.127  31.478  1.00  0.00     0.144 A 
HETATM   22  N3  UNK     1      19.732  -2.306  32.083  1.00  0.00    -0.103 NA
HETATM   23  N2  UNK     1      19.319  -0.164  32.791  1.00  0.00    -0.101 NA
HETATM   24  O2  UNK     1      19.413  -1.495  33.158  1.00  0.00    -0.106 OA
ENDBRANCH   2  16
TORSDOF 2
ENDMDL
MODEL 7
REMARK VINA RESULT:      -9.6     14.999     17.466
REMARK  2 active torsions:
REMARK  status: ('A' for Active; 'I' for Inactive)
REMARK    1  A    between atoms: C3_10  and  N1_5 
REMARK       I    between atoms: C7_14  and  N1_5 
REMARK    2  A    between atoms: C2_9  and  C7_14 
ROOT
HETATM    1  O3  UNK     1      18.647   4.753  30.196  1.00  0.00    -0.267 OA
HETATM    2  N1  UNK     1      17.755   4.687  32.375  1.00  0.00    -0.321 N 
HETATM    3  C7  UNK     1      18.359   4.167  31.238  1.00  0.00     0.262 C 
HETATM    4  H2  UNK     1      17.601   4.073  33.171  1.00  0.00     0.169 HD
ENDROOT
BRANCH   3   5
HETATM    5  C2  UNK     1      18.658   2.736  31.376  1.00  0.00     0.108 A 
HETATM    6  C11 UNK     1      18.396   1.996  32.630  1.00  0.00     0.304 A 
HETATM    7  O1  UNK     1      18.721   0.642  32.637  1.00  0.00    -0.274 OA
HETATM    8  O4  UNK     1      17.916   2.542  33.617  1.00  0.00    -0.259 OA
HETATM    9  C4  UNK     1      19.271   0.005  31.507  1.00  0.00     0.089 A 
HETATM   10  C1  UNK     1      19.509   0.720  30.337  1.00  0.00    -0.001 A 
HETATM   11  C12 UNK     1      19.564  -1.353  31.609  1.00  0.00     0.038 A 
HETATM   12  C5  UNK     1      19.180   2.136  30.300  1.00  0.00     0.037 A 
HETATM   13  C9  UNK     1      20.058   0.053  29.239  1.00  0.00     0.014 A 
HETATM   14  C15 UNK     1      20.356  -1.310  29.326  1.00  0.00     0.001 A 
HETATM   15  C16 UNK     1      20.110  -2.011  30.509  1.00  0.00     0.003 A 
ENDBRANCH   3   5
BRANCH   2  16
HETATM   16  C3  UNK     1      17.334   6.021  32.596  1.00  0.00     0.068 A 
HETATM   17  C10 UNK     1      16.050   6.438  32.247  1.00  0.00     0.032 A 
HETATM   18  C14 UNK     1      15.599   7.767  32.456  1.00  0.00     0.005 A 
HETATM   19  C13 UNK     1      16.399   8.772  33.029  1.00  0.00     0.036 A 
HETATM   20  C8  UNK     1      17.695   8.353  33.382  1.00  0.00     0.119 A 
HETATM   21  C6  UNK     1      18.158   6.987  33.167  1.00  0.00     0.144 A 
HETATM   22  N3  UNK     1      18.694   9.049  33.940  1.00  0.00    -0.103 NA
HETATM   23  N2  UNK     1      19.421   6.901  33.602  1.00  0.00    -0.101 NA
HETATM   24  O2  UNK     1      19.746   8.161  34.074  1.00  0.00    -0.106 OA
ENDBRANCH   2  16
TORSDOF 2
ENDMDL
MODEL 8
REMARK VINA RESULT:      -9.6      2.479      7.377
REMARK  2 active torsions:
REMARK  status: ('A' for Active; 'I' for Inactive)
REMARK    1  A    between atoms: C3_10  and  N1_5 
REMARK       I    between atoms: C7_14  and  N1_5 
REMARK    2  A    between atoms: C2_9  and  C7_14 
ROOT
HETATM    1  O3  UNK     1      17.605  -2.045  16.268  1.00  0.00    -0.267 OA
HETATM    2  N1  UNK     1      19.635  -1.556  15.180  1.00  0.00    -0.321 N 
HETATM    3  C7  UNK     1      18.643  -1.400  16.139  1.00  0.00     0.262 C 
HETATM    4  H2  UNK     1      20.452  -0.951  15.219  1.00  0.00     0.169 HD
ENDROOT
BRANCH   3   5
HETATM    5  C2  UNK     1      18.946  -0.310  17.075  1.00  0.00     0.108 A 
HETATM    6  C11 UNK     1      19.181   1.077  16.617  1.00  0.00     0.304 A 
HETATM    7  O1  UNK     1      19.459   2.022  17.602  1.00  0.00    -0.274 OA
HETATM    8  O4  UNK     1      19.135   1.385  15.431  1.00  0.00    -0.259 OA
HETATM    9  C4  UNK     1      19.512   1.679  18.967  1.00  0.00     0.089 A 
HETATM   10  C1  UNK     1      19.287   0.368  19.376  1.00  0.00    -0.001 A 
HETATM   11  C12 UNK     1      19.797   2.693  19.878  1.00  0.00     0.038 A 
HETATM   12  C5  UNK     1      18.995  -0.642  18.371  1.00  0.00     0.037 A 
HETATM   13  C9  UNK     1      19.351   0.067  20.738  1.00  0.00     0.014 A 
HETATM   14  C15 UNK     1      19.634   1.075  21.665  1.00  0.00     0.001 A 
HETATM   15  C16 UNK     1      19.857   2.385  21.235  1.00  0.00     0.003 A 
ENDBRANCH   3   5
BRANCH   2  16
HETATM   16  C3  UNK     1      19.678  -2.501  14.127  1.00  0.00     0.068 A 
HETATM   17  C10 UNK     1      20.109  -3.809  14.349  1.00  0.00     0.032 A 
HETATM   18  C14 UNK     1      20.163  -4.777  13.313  1.00  0.00     0.005 A 
HETATM   19  C13 UNK     1      19.790  -4.508  11.984  1.00  0.00     0.036 A 
HETATM   20  C8  UNK     1      19.354  -3.190  11.758  1.00  0.00     0.119 A 
HETATM   21  C6  UNK     1      19.298  -2.194  12.822  1.00  0.00     0.144 A 
HETATM   22  N3  UNK     1      18.934  -2.613  10.625  1.00  0.00    -0.103 NA
HETATM   23  N2  UNK     1      18.847  -1.048  12.299  1.00  0.00    -0.101 NA
HETATM   24  O2  UNK     1      18.626  -1.306  10.957  1.00  0.00    -0.106 OA
ENDBRANCH   2  16
TORSDOF 2
ENDMDL
MODEL 9
REMARK VINA RESULT:      -9.6     16.762     19.387
REMARK  2 active torsions:
REMARK  status: ('A' for Active; 'I' for Inactive)
REMARK    1  A    between atoms: C3_10  and  N1_5 
REMARK       I    between atoms: C7_14  and  N1_5 
REMARK    2  A    between atoms: C2_9  and  C7_14 
ROOT
HETATM    1  O3  UNK     1      16.573   0.911  34.167  1.00  0.00    -0.267 OA
HETATM    2  N1  UNK     1      18.869   0.510  34.505  1.00  0.00    -0.321 N 
HETATM    3  C7  UNK     1      17.761   1.103  33.915  1.00  0.00     0.262 C 
HETATM    4  H2  UNK     1      19.797   0.793  34.198  1.00  0.00     0.169 HD
ENDROOT
BRANCH   3   5
HETATM    5  C2  UNK     1      18.139   2.065  32.872  1.00  0.00     0.108 A 
HETATM    6  C11 UNK     1      18.657   1.632  31.555  1.00  0.00     0.304 A 
HETATM    7  O1  UNK     1      18.980   2.640  30.649  1.00  0.00    -0.274 OA
HETATM    8  O4  UNK     1      18.796   0.448  31.269  1.00  0.00    -0.259 OA
HETATM    9  C4  UNK     1      18.822   4.003  30.966  1.00  0.00     0.089 A 
HETATM   10  C1  UNK     1      18.333   4.388  32.210  1.00  0.00    -0.001 A 
HETATM   11  C12 UNK     1      19.172   4.938  29.995  1.00  0.00     0.038 A 
HETATM   12  C5  UNK     1      17.987   3.358  33.179  1.00  0.00     0.037 A 
HETATM   13  C9  UNK     1      18.192   5.749  32.488  1.00  0.00     0.014 A 
HETATM   14  C15 UNK     1      18.538   6.699  31.523  1.00  0.00     0.001 A 
HETATM   15  C16 UNK     1      19.028   6.294  30.279  1.00  0.00     0.003 A 
ENDBRANCH   3   5
BRANCH   2  16
HETATM   16  C3  UNK     1      18.883  -0.457  35.540  1.00  0.00     0.068 A 
HETATM   17  C10 UNK     1      18.274  -0.206  36.769  1.00  0.00     0.032 A 
HETATM   18  C14 UNK     1      18.273  -1.154  37.824  1.00  0.00     0.005 A 
HETATM   19  C13 UNK     1      18.879  -2.420  37.726  1.00  0.00     0.036 A 
HETATM   20  C8  UNK     1      19.494  -2.675  36.486  1.00  0.00     0.119 A 
HETATM   21  C6  UNK     1      19.495  -1.700  35.402  1.00  0.00     0.144 A 
HETATM   22  N3  UNK     1      20.151  -3.764  36.069  1.00  0.00    -0.103 NA
HETATM   23  N2  UNK     1      20.153  -2.231  34.364  1.00  0.00    -0.101 NA
HETATM   24  O2  UNK     1      20.553  -3.492  34.773  1.00  0.00    -0.106 OA
ENDBRANCH   2  16
TORSDOF 2
ENDMDL
MODEL 10
REMARK VINA RESULT:      -9.5      2.430      7.708
REMARK  2 active torsions:
REMARK  status: ('A' for Active; 'I' for Inactive)
REMARK    1  A    between atoms: C3_10  and  N1_5 
REMARK       I    between atoms: C7_14  and  N1_5 
REMARK    2  A    between atoms: C2_9  and  C7_14 
ROOT
HETATM    1  O3  UNK     1      17.637  -3.263  15.771  1.00  0.00    -0.267 OA
HETATM    2  N1  UNK     1      19.638  -3.104  14.538  1.00  0.00    -0.321 N 
HETATM    3  C7  UNK     1      18.624  -2.648  15.369  1.00  0.00     0.262 C 
HETATM    4  H2  UNK     1      20.404  -2.474  14.312  1.00  0.00     0.169 HD
ENDROOT
BRANCH   3   5
HETATM    5  C2  UNK     1      18.827  -1.252  15.775  1.00  0.00     0.108 A 
HETATM    6  C11 UNK     1      19.150  -0.189  14.798  1.00  0.00     0.304 A 
HETATM    7  O1  UNK     1      19.319   1.097  15.306  1.00  0.00    -0.274 OA
HETATM    8  O4  UNK     1      19.264  -0.422  13.600  1.00  0.00    -0.259 OA
HETATM    9  C4  UNK     1      19.188   1.375  16.681  1.00  0.00     0.089 A 
HETATM   10  C1  UNK     1      18.883   0.361  17.582  1.00  0.00    -0.001 A 
HETATM   11  C12 UNK     1      19.375   2.693  17.094  1.00  0.00     0.038 A 
HETATM   12  C5  UNK     1      18.701  -0.993  17.082  1.00  0.00     0.037 A 
HETATM   13  C9  UNK     1      18.764   0.677  18.938  1.00  0.00     0.014 A 
HETATM   14  C15 UNK     1      18.947   1.994  19.367  1.00  0.00     0.001 A 
HETATM   15  C16 UNK     1      19.253   3.000  18.447  1.00  0.00     0.003 A 
ENDBRANCH   3   5
BRANCH   2  16
HETATM   16  C3  UNK     1      19.769  -4.390  13.960  1.00  0.00     0.068 A 
HETATM   17  C10 UNK     1      18.985  -4.776  12.874  1.00  0.00     0.032 A 
HETATM   18  C14 UNK     1      19.094  -6.058  12.275  1.00  0.00     0.005 A 
HETATM   19  C13 UNK     1      19.994  -7.043  12.719  1.00  0.00     0.036 A 
HETATM   20  C8  UNK     1      20.786  -6.655  13.815  1.00  0.00     0.119 A 
HETATM   21  C6  UNK     1      20.674  -5.339  14.430  1.00  0.00     0.144 A 
HETATM   22  N3  UNK     1      21.728  -7.345  14.472  1.00  0.00    -0.103 NA
HETATM   23  N2  UNK     1      21.551  -5.273  15.440  1.00  0.00    -0.101 NA
HETATM   24  O2  UNK     1      22.193  -6.499  15.464  1.00  0.00    -0.106 OA
ENDBRANCH   2  16
TORSDOF 2
ENDMDL
