MODEL 1
REMARK VINA RESULT:      -8.1      0.000      0.000
REMARK  5 active torsions:
REMARK  status: ('A' for Active; 'I' for Inactive)
REMARK    1  A    between atoms: C8_14  and  O3_3 
REMARK    2  A    between atoms: C20_26  and  O5_5 
REMARK    3  A    between atoms: C1_7  and  N1_6 
REMARK    4  A    between atoms: C1_7  and  C4_10 
REMARK    5  A    between atoms: C13_19  and  C15_21 
ROOT
HETATM    1  O2  UNK     1      16.888   9.447  34.211  1.00  0.00    -0.309 OA
HETATM    2  O4  UNK     1      16.519   7.228  30.814  1.00  0.00    -0.287 OA
HETATM    3  C4  UNK     1      18.946   7.057  32.287  1.00  0.00     0.020 A 
HETATM    4  C7  UNK     1      17.862   7.859  32.652  1.00  0.00     0.059 A 
HETATM    5  C8  UNK     1      20.092   7.046  33.084  1.00  0.00     0.074 A 
HETATM    6  C9  UNK     1      17.922   8.643  33.804  1.00  0.00     0.091 A 
HETATM    7  C10 UNK     1      16.641   7.892  31.835  1.00  0.00     0.188 A 
HETATM    8  C11 UNK     1      20.153   7.830  34.237  1.00  0.00     0.040 A 
HETATM    9  C12 UNK     1      19.068   8.629  34.599  1.00  0.00     0.041 A 
HETATM   10  C13 UNK     1      15.738   9.487  33.437  1.00  0.00     0.090 A 
HETATM   11  C14 UNK     1      15.558   8.775  32.313  1.00  0.00     0.093 A 
ENDROOT
BRANCH  10  12
HETATM   12  C15 UNK     1      14.687  10.379  33.968  1.00  0.00    -0.002 A 
HETATM   13  C16 UNK     1      13.698  10.883  33.120  1.00  0.00     0.017 A 
HETATM   14  C18 UNK     1      12.707  11.725  33.623  1.00  0.00     0.037 A 
HETATM   15  C20 UNK     1      12.701  12.066  34.975  1.00  0.00     0.068 A 
HETATM   16  C19 UNK     1      13.687  11.565  35.825  1.00  0.00     0.037 A 
HETATM   17  C17 UNK     1      14.679  10.723  35.322  1.00  0.00     0.017 A 
BRANCH  15  18
HETATM   18  O5  UNK     1      11.734  12.887  35.465  1.00  0.00    -0.356 OA
HETATM   19  C21 UNK     1      11.281  12.637  36.795  1.00  0.00     0.210 C 
ENDBRANCH  15  18
ENDBRANCH  10  12
BRANCH   3  20
HETATM   20  C1  UNK     1      18.944   6.199  31.058  1.00  0.00     0.315 C 
BRANCH  20  21
HETATM   21  N1  UNK     1      18.990   4.776  31.389  1.00  0.00     0.096 N 
HETATM   22  C2  UNK     1      18.739   3.955  30.196  1.00  0.00     0.299 C 
HETATM   23  C5  UNK     1      18.779   2.476  30.567  1.00  0.00     0.198 C 
HETATM   24  O1  UNK     1      17.815   2.191  31.582  1.00  0.00    -0.388 OA
HETATM   25  C6  UNK     1      18.073   2.961  32.757  1.00  0.00     0.198 C 
HETATM   26  C3  UNK     1      18.013   4.452  32.437  1.00  0.00     0.299 C 
ENDBRANCH  20  21
ENDBRANCH   3  20
BRANCH   5  27
HETATM   27  O3  UNK     1      21.170   6.275  32.756  1.00  0.00    -0.360 OA
HETATM   28  H14 UNK     1      20.871   5.550  32.184  1.00  0.00     0.217 HD
ENDBRANCH   5  27
TORSDOF 5
ENDMDL
MODEL 2
REMARK VINA RESULT:      -8.0      5.367     11.073
REMARK  5 active torsions:
REMARK  status: ('A' for Active; 'I' for Inactive)
REMARK    1  A    between atoms: C8_14  and  O3_3 
REMARK    2  A    between atoms: C20_26  and  O5_5 
REMARK    3  A    between atoms: C1_7  and  N1_6 
REMARK    4  A    between atoms: C1_7  and  C4_10 
REMARK    5  A    between atoms: C13_19  and  C15_21 
ROOT
HETATM    1  O2  UNK     1      19.770  -1.474  32.847  1.00  0.00    -0.309 OA
HETATM    2  O4  UNK     1      17.663   1.964  33.433  1.00  0.00    -0.287 OA
HETATM    3  C4  UNK     1      18.659   1.412  30.826  1.00  0.00     0.020 A 
HETATM    4  C7  UNK     1      18.846   0.577  31.930  1.00  0.00     0.059 A 
HETATM    5  C8  UNK     1      19.190   1.046  29.589  1.00  0.00     0.074 A 
HETATM    6  C9  UNK     1      19.557  -0.615  31.799  1.00  0.00     0.091 A 
HETATM    7  C10 UNK     1      18.298   0.935  33.246  1.00  0.00     0.188 A 
HETATM    8  C11 UNK     1      19.902  -0.148  29.456  1.00  0.00     0.040 A 
HETATM    9  C12 UNK     1      20.086  -0.980  30.561  1.00  0.00     0.041 A 
HETATM   10  C13 UNK     1      19.262  -1.134  34.092  1.00  0.00     0.090 A 
HETATM   11  C14 UNK     1      18.557  -0.020  34.343  1.00  0.00     0.093 A 
ENDROOT
BRANCH  10  12
HETATM   12  C15 UNK     1      19.544  -2.130  35.147  1.00  0.00    -0.002 A 
HETATM   13  C16 UNK     1      20.076  -3.377  34.812  1.00  0.00     0.017 A 
HETATM   14  C18 UNK     1      20.340  -4.316  35.809  1.00  0.00     0.037 A 
HETATM   15  C20 UNK     1      20.074  -4.010  37.144  1.00  0.00     0.068 A 
HETATM   16  C19 UNK     1      19.543  -2.765  37.482  1.00  0.00     0.037 A 
HETATM   17  C17 UNK     1      19.278  -1.826  36.485  1.00  0.00     0.017 A 
BRANCH  15  18
HETATM   18  O5  UNK     1      20.333  -4.926  38.116  1.00  0.00    -0.356 OA
HETATM   19  C21 UNK     1      21.623  -5.537  38.106  1.00  0.00     0.210 C 
ENDBRANCH  15  18
ENDBRANCH  10  12
BRANCH   3  20
HETATM   20  C1  UNK     1      17.910   2.709  30.906  1.00  0.00     0.315 C 
BRANCH  20  21
HETATM   21  N1  UNK     1      18.800   3.835  31.183  1.00  0.00     0.096 N 
HETATM   22  C2  UNK     1      18.249   4.686  32.247  1.00  0.00     0.299 C 
HETATM   23  C5  UNK     1      19.188   5.860  32.509  1.00  0.00     0.198 C 
HETATM   24  O1  UNK     1      19.383   6.618  31.315  1.00  0.00    -0.388 OA
HETATM   25  C6  UNK     1      19.949   5.805  30.286  1.00  0.00     0.198 C 
HETATM   26  C3  UNK     1      19.027   4.631  29.969  1.00  0.00     0.299 C 
ENDBRANCH  20  21
ENDBRANCH   3  20
BRANCH   5  27
HETATM   27  O3  UNK     1      19.027   1.840  28.490  1.00  0.00    -0.360 OA
HETATM   28  H14 UNK     1      18.594   2.665  28.764  1.00  0.00     0.217 HD
ENDBRANCH   5  27
TORSDOF 5
ENDMDL
MODEL 3
REMARK VINA RESULT:      -7.9      3.259      8.833
REMARK  5 active torsions:
REMARK  status: ('A' for Active; 'I' for Inactive)
REMARK    1  A    between atoms: C8_14  and  O3_3 
REMARK    2  A    between atoms: C20_26  and  O5_5 
REMARK    3  A    between atoms: C1_7  and  N1_6 
REMARK    4  A    between atoms: C1_7  and  C4_10 
REMARK    5  A    between atoms: C13_19  and  C15_21 
ROOT
HETATM    1  O2  UNK     1      18.387   2.061  32.577  1.00  0.00    -0.309 OA
HETATM    2  O4  UNK     1      18.236   5.743  34.316  1.00  0.00    -0.287 OA
HETATM    3  C4  UNK     1      18.435   5.590  31.483  1.00  0.00     0.020 A 
HETATM    4  C7  UNK     1      18.386   4.478  32.327  1.00  0.00     0.059 A 
HETATM    5  C8  UNK     1      18.530   5.403  30.104  1.00  0.00     0.074 A 
HETATM    6  C9  UNK     1      18.432   3.189  31.797  1.00  0.00     0.091 A 
HETATM    7  C10 UNK     1      18.283   4.642  33.784  1.00  0.00     0.188 A 
HETATM    8  C11 UNK     1      18.577   4.113  29.572  1.00  0.00     0.040 A 
HETATM    9  C12 UNK     1      18.528   3.004  30.418  1.00  0.00     0.041 A 
HETATM   10  C13 UNK     1      18.299   2.213  33.953  1.00  0.00     0.090 A 
HETATM   11  C14 UNK     1      18.241   3.399  34.581  1.00  0.00     0.093 A 
ENDROOT
BRANCH  10  12
HETATM   12  C15 UNK     1      18.251   0.938  34.696  1.00  0.00    -0.002 A 
HETATM   13  C16 UNK     1      18.462  -0.272  34.031  1.00  0.00     0.017 A 
HETATM   14  C18 UNK     1      18.416  -1.475  34.734  1.00  0.00     0.037 A 
HETATM   15  C20 UNK     1      18.159  -1.473  36.105  1.00  0.00     0.068 A 
HETATM   16  C19 UNK     1      17.948  -0.267  36.773  1.00  0.00     0.037 A 
HETATM   17  C17 UNK     1      17.994   0.937  36.070  1.00  0.00     0.017 A 
BRANCH  15  18
HETATM   18  O5  UNK     1      18.115  -2.647  36.790  1.00  0.00    -0.356 OA
HETATM   19  C21 UNK     1      19.283  -3.466  36.752  1.00  0.00     0.210 C 
ENDBRANCH  15  18
ENDBRANCH  10  12
BRANCH   3  20
HETATM   20  C1  UNK     1      18.395   6.999  31.994  1.00  0.00     0.315 C 
BRANCH  20  21
HETATM   21  N1  UNK     1      17.062   7.586  31.868  1.00  0.00     0.096 N 
HETATM   22  C2  UNK     1      16.867   8.654  32.859  1.00  0.00     0.299 C 
HETATM   23  C5  UNK     1      15.467   9.242  32.716  1.00  0.00     0.198 C 
HETATM   24  O1  UNK     1      14.480   8.223  32.881  1.00  0.00    -0.388 OA
HETATM   25  C6  UNK     1      14.642   7.197  31.900  1.00  0.00     0.198 C 
HETATM   26  C3  UNK     1      16.023   6.559  32.025  1.00  0.00     0.299 C 
ENDBRANCH  20  21
ENDBRANCH   3  20
BRANCH   5  27
HETATM   27  O3  UNK     1      18.582   6.467  29.251  1.00  0.00    -0.360 OA
HETATM   28  H14 UNK     1      19.219   7.113  29.598  1.00  0.00     0.217 HD
ENDBRANCH   5  27
TORSDOF 5
ENDMDL
MODEL 4
REMARK VINA RESULT:      -7.9      2.327      8.233
REMARK  5 active torsions:
REMARK  status: ('A' for Active; 'I' for Inactive)
REMARK    1  A    between atoms: C8_14  and  O3_3 
REMARK    2  A    between atoms: C20_26  and  O5_5 
REMARK    3  A    between atoms: C1_7  and  N1_6 
REMARK    4  A    between atoms: C1_7  and  C4_10 
REMARK    5  A    between atoms: C13_19  and  C15_21 
ROOT
HETATM    1  O2  UNK     1      19.054   6.570  33.382  1.00  0.00    -0.309 OA
HETATM    2  O4  UNK     1      15.518   8.537  32.913  1.00  0.00    -0.287 OA
HETATM    3  C4  UNK     1      17.773  10.005  33.833  1.00  0.00     0.020 A 
HETATM    4  C7  UNK     1      17.796   8.642  33.529  1.00  0.00     0.059 A 
HETATM    5  C8  UNK     1      18.939  10.630  34.276  1.00  0.00     0.074 A 
HETATM    6  C9  UNK     1      18.974   7.909  33.666  1.00  0.00     0.091 A 
HETATM    7  C10 UNK     1      16.585   7.955  33.058  1.00  0.00     0.188 A 
HETATM    8  C11 UNK     1      20.120   9.897  34.414  1.00  0.00     0.040 A 
HETATM    9  C12 UNK     1      20.139   8.536  34.110  1.00  0.00     0.041 A 
HETATM   10  C13 UNK     1      17.911   5.917  32.947  1.00  0.00     0.090 A 
HETATM   11  C14 UNK     1      16.721   6.513  32.768  1.00  0.00     0.093 A 
ENDROOT
BRANCH  10  12
HETATM   12  C15 UNK     1      18.110   4.481  32.664  1.00  0.00    -0.002 A 
HETATM   13  C16 UNK     1      18.334   4.047  31.355  1.00  0.00     0.017 A 
HETATM   14  C18 UNK     1      18.522   2.691  31.090  1.00  0.00     0.037 A 
HETATM   15  C20 UNK     1      18.485   1.764  32.132  1.00  0.00     0.068 A 
HETATM   16  C19 UNK     1      18.262   2.194  33.440  1.00  0.00     0.037 A 
HETATM   17  C17 UNK     1      18.074   3.551  33.706  1.00  0.00     0.017 A 
BRANCH  15  18
HETATM   18  O5  UNK     1      18.669   0.441  31.872  1.00  0.00    -0.356 OA
HETATM   19  C21 UNK     1      19.688   0.099  30.933  1.00  0.00     0.210 C 
ENDBRANCH  15  18
ENDBRANCH  10  12
BRANCH   3  20
HETATM   20  C1  UNK     1      16.536  10.844  33.711  1.00  0.00     0.315 C 
BRANCH  20  21
HETATM   21  N1  UNK     1      15.987  11.196  35.019  1.00  0.00     0.096 N 
HETATM   22  C2  UNK     1      14.682  10.552  35.226  1.00  0.00     0.299 C 
HETATM   23  C5  UNK     1      14.123  10.943  36.591  1.00  0.00     0.198 C 
HETATM   24  O1  UNK     1      14.001  12.363  36.690  1.00  0.00    -0.388 OA
HETATM   25  C6  UNK     1      15.271  12.994  36.523  1.00  0.00     0.198 C 
HETATM   26  C3  UNK     1      15.856  12.653  35.155  1.00  0.00     0.299 C 
ENDBRANCH  20  21
ENDBRANCH   3  20
BRANCH   5  27
HETATM   27  O3  UNK     1      18.952  11.960  34.583  1.00  0.00    -0.360 OA
HETATM   28  H14 UNK     1      19.468  12.430  33.908  1.00  0.00     0.217 HD
ENDBRANCH   5  27
TORSDOF 5
ENDMDL
MODEL 5
REMARK VINA RESULT:      -7.8     23.624     25.155
REMARK  5 active torsions:
REMARK  status: ('A' for Active; 'I' for Inactive)
REMARK    1  A    between atoms: C8_14  and  O3_3 
REMARK    2  A    between atoms: C20_26  and  O5_5 
REMARK    3  A    between atoms: C1_7  and  N1_6 
REMARK    4  A    between atoms: C1_7  and  C4_10 
REMARK    5  A    between atoms: C13_19  and  C15_21 
ROOT
HETATM    1  O2  UNK     1      17.416   8.824   9.464  1.00  0.00    -0.309 OA
HETATM    2  O4  UNK     1      13.533  10.033   9.218  1.00  0.00    -0.287 OA
HETATM    3  C4  UNK     1      14.067   7.293   9.761  1.00  0.00     0.020 A 
HETATM    4  C7  UNK     1      15.055   8.261   9.570  1.00  0.00     0.059 A 
HETATM    5  C8  UNK     1      14.439   5.974  10.024  1.00  0.00     0.074 A 
HETATM    6  C9  UNK     1      16.404   7.915   9.642  1.00  0.00     0.091 A 
HETATM    7  C10 UNK     1      14.696   9.659   9.293  1.00  0.00     0.188 A 
HETATM    8  C11 UNK     1      15.789   5.626  10.096  1.00  0.00     0.040 A 
HETATM    9  C12 UNK     1      16.773   6.596   9.905  1.00  0.00     0.041 A 
HETATM   10  C13 UNK     1      17.080  10.142   9.193  1.00  0.00     0.090 A 
HETATM   11  C14 UNK     1      15.820  10.599   9.106  1.00  0.00     0.093 A 
ENDROOT
BRANCH  10  12
HETATM   12  C15 UNK     1      18.243  11.037   9.026  1.00  0.00    -0.002 A 
HETATM   13  C16 UNK     1      18.962  11.472  10.142  1.00  0.00     0.017 A 
HETATM   14  C18 UNK     1      20.060  12.316   9.982  1.00  0.00     0.037 A 
HETATM   15  C20 UNK     1      20.444  12.728   8.705  1.00  0.00     0.068 A 
HETATM   16  C19 UNK     1      19.729  12.295   7.588  1.00  0.00     0.037 A 
HETATM   17  C17 UNK     1      18.629  11.451   7.748  1.00  0.00     0.017 A 
BRANCH  15  18
HETATM   18  O5  UNK     1      21.515  13.551   8.550  1.00  0.00    -0.356 OA
HETATM   19  C21 UNK     1      21.966  13.787   7.216  1.00  0.00     0.210 C 
ENDBRANCH  15  18
ENDBRANCH  10  12
BRANCH   3  20
HETATM   20  C1  UNK     1      12.602   7.602   9.689  1.00  0.00     0.315 C 
BRANCH  20  21
HETATM   21  N1  UNK     1      11.928   6.811   8.661  1.00  0.00     0.096 N 
HETATM   22  C2  UNK     1      12.429   7.159   7.324  1.00  0.00     0.299 C 
HETATM   23  C5  UNK     1      11.704   6.330   6.268  1.00  0.00     0.198 C 
HETATM   24  O1  UNK     1      10.294   6.548   6.346  1.00  0.00    -0.388 OA
HETATM   25  C6  UNK     1       9.795   6.181   7.632  1.00  0.00     0.198 C 
HETATM   26  C3  UNK     1      10.473   7.008   8.720  1.00  0.00     0.299 C 
ENDBRANCH  20  21
ENDBRANCH   3  20
BRANCH   5  27
HETATM   27  O3  UNK     1      13.499   5.002  10.214  1.00  0.00    -0.360 OA
HETATM   28  H14 UNK     1      13.852   4.345  10.835  1.00  0.00     0.217 HD
ENDBRANCH   5  27
TORSDOF 5
ENDMDL
MODEL 6
REMARK VINA RESULT:      -7.8     17.249     21.490
REMARK  5 active torsions:
REMARK  status: ('A' for Active; 'I' for Inactive)
REMARK    1  A    between atoms: C8_14  and  O3_3 
REMARK    2  A    between atoms: C20_26  and  O5_5 
REMARK    3  A    between atoms: C1_7  and  N1_6 
REMARK    4  A    between atoms: C1_7  and  C4_10 
REMARK    5  A    between atoms: C13_19  and  C15_21 
ROOT
HETATM    1  O2  UNK     1      19.455  -0.748  14.935  1.00  0.00    -0.309 OA
HETATM    2  O4  UNK     1      17.965  -4.520  15.327  1.00  0.00    -0.287 OA
HETATM    3  C4  UNK     1      18.984  -3.722  12.794  1.00  0.00     0.020 A 
HETATM    4  C7  UNK     1      18.958  -2.900  13.923  1.00  0.00     0.059 A 
HETATM    5  C8  UNK     1      19.508  -3.230  11.597  1.00  0.00     0.074 A 
HETATM    6  C9  UNK     1      19.454  -1.598  13.858  1.00  0.00     0.091 A 
HETATM    7  C10 UNK     1      18.414  -3.389  15.198  1.00  0.00     0.188 A 
HETATM    8  C11 UNK     1      20.004  -1.927  11.531  1.00  0.00     0.040 A 
HETATM    9  C12 UNK     1      19.978  -1.109  12.662  1.00  0.00     0.041 A 
HETATM   10  C13 UNK     1      18.933  -1.204  16.137  1.00  0.00     0.090 A 
HETATM   11  C14 UNK     1      18.435  -2.436  16.326  1.00  0.00     0.093 A 
ENDROOT
BRANCH  10  12
HETATM   12  C15 UNK     1      18.989  -0.212  17.230  1.00  0.00    -0.002 A 
HETATM   13  C16 UNK     1      19.006   1.154  16.939  1.00  0.00     0.017 A 
HETATM   14  C18 UNK     1      19.059   2.089  17.973  1.00  0.00     0.037 A 
HETATM   15  C20 UNK     1      19.095   1.661  19.300  1.00  0.00     0.068 A 
HETATM   16  C19 UNK     1      19.078   0.298  19.594  1.00  0.00     0.037 A 
HETATM   17  C17 UNK     1      19.026  -0.638  18.560  1.00  0.00     0.017 A 
BRANCH  15  18
HETATM   18  O5  UNK     1      19.146   2.574  20.307  1.00  0.00    -0.356 OA
HETATM   19  C21 UNK     1      19.695   2.139  21.551  1.00  0.00     0.210 C 
ENDBRANCH  15  18
ENDBRANCH  10  12
BRANCH   3  20
HETATM   20  C1  UNK     1      18.461  -5.127  12.800  1.00  0.00     0.315 C 
BRANCH  20  21
HETATM   21  N1  UNK     1      19.511  -6.099  12.502  1.00  0.00     0.096 N 
HETATM   22  C2  UNK     1      18.961  -7.255  11.779  1.00  0.00     0.299 C 
HETATM   23  C5  UNK     1      20.072  -8.261  11.491  1.00  0.00     0.198 C 
HETATM   24  O1  UNK     1      20.690  -8.681  12.708  1.00  0.00    -0.388 OA
HETATM   25  C6  UNK     1      21.256  -7.567  13.400  1.00  0.00     0.198 C 
HETATM   26  C3  UNK     1      20.173  -6.546  13.736  1.00  0.00     0.299 C 
ENDBRANCH  20  21
ENDBRANCH   3  20
BRANCH   5  27
HETATM   27  O3  UNK     1      19.547  -4.006  10.475  1.00  0.00    -0.360 OA
HETATM   28  H14 UNK     1      20.012  -4.832  10.683  1.00  0.00     0.217 HD
ENDBRANCH   5  27
TORSDOF 5
ENDMDL
MODEL 7
REMARK VINA RESULT:      -7.8     16.663     20.965
REMARK  5 active torsions:
REMARK  status: ('A' for Active; 'I' for Inactive)
REMARK    1  A    between atoms: C8_14  and  O3_3 
REMARK    2  A    between atoms: C20_26  and  O5_5 
REMARK    3  A    between atoms: C1_7  and  N1_6 
REMARK    4  A    between atoms: C1_7  and  C4_10 
REMARK    5  A    between atoms: C13_19  and  C15_21 
ROOT
HETATM    1  O2  UNK     1      20.246  -2.222  17.154  1.00  0.00    -0.309 OA
HETATM    2  O4  UNK     1      17.848  -2.210  13.861  1.00  0.00    -0.287 OA
HETATM    3  C4  UNK     1      19.823  -4.243  14.092  1.00  0.00     0.020 A 
HETATM    4  C7  UNK     1      19.618  -3.238  15.040  1.00  0.00     0.059 A 
HETATM    5  C8  UNK     1      20.821  -5.196  14.304  1.00  0.00     0.074 A 
HETATM    6  C9  UNK     1      20.404  -3.185  16.190  1.00  0.00     0.091 A 
HETATM    7  C10 UNK     1      18.574  -2.222  14.846  1.00  0.00     0.188 A 
HETATM    8  C11 UNK     1      21.608  -5.143  15.455  1.00  0.00     0.040 A 
HETATM    9  C12 UNK     1      21.401  -4.138  16.400  1.00  0.00     0.041 A 
HETATM   10  C13 UNK     1      19.269  -1.256  16.970  1.00  0.00     0.090 A 
HETATM   11  C14 UNK     1      18.446  -1.205  15.909  1.00  0.00     0.093 A 
ENDROOT
BRANCH  10  12
HETATM   12  C15 UNK     1      19.181  -0.272  18.068  1.00  0.00    -0.002 A 
HETATM   13  C16 UNK     1      19.259  -0.694  19.397  1.00  0.00     0.017 A 
HETATM   14  C18 UNK     1      19.176   0.236  20.433  1.00  0.00     0.037 A 
HETATM   15  C20 UNK     1      19.014   1.591  20.144  1.00  0.00     0.068 A 
HETATM   16  C19 UNK     1      18.936   2.016  18.818  1.00  0.00     0.037 A 
HETATM   17  C17 UNK     1      19.018   1.086  17.781  1.00  0.00     0.017 A 
BRANCH  15  18
HETATM   18  O5  UNK     1      18.933   2.497  21.155  1.00  0.00    -0.356 OA
HETATM   19  C21 UNK     1      19.936   2.430  22.169  1.00  0.00     0.210 C 
ENDBRANCH  15  18
ENDBRANCH  10  12
BRANCH   3  20
HETATM   20  C1  UNK     1      19.015  -4.350  12.833  1.00  0.00     0.315 C 
BRANCH  20  21
HETATM   21  N1  UNK     1      19.813  -4.042  11.648  1.00  0.00     0.096 N 
HETATM   22  C2  UNK     1      20.280  -2.648  11.681  1.00  0.00     0.299 C 
HETATM   23  C5  UNK     1      21.099  -2.347  10.429  1.00  0.00     0.198 C 
HETATM   24  O1  UNK     1      20.320  -2.584   9.256  1.00  0.00    -0.388 OA
HETATM   25  C6  UNK     1      19.890  -3.945   9.199  1.00  0.00     0.198 C 
HETATM   26  C3  UNK     1      19.041  -4.284  10.421  1.00  0.00     0.299 C 
ENDBRANCH  20  21
ENDBRANCH   3  20
BRANCH   5  27
HETATM   27  O3  UNK     1      21.049  -6.191  13.397  1.00  0.00    -0.360 OA
HETATM   28  H14 UNK     1      21.724  -6.789  13.756  1.00  0.00     0.217 HD
ENDBRANCH   5  27
TORSDOF 5
ENDMDL
MODEL 8
REMARK VINA RESULT:      -7.7      3.137      8.604
REMARK  5 active torsions:
REMARK  status: ('A' for Active; 'I' for Inactive)
REMARK    1  A    between atoms: C8_14  and  O3_3 
REMARK    2  A    between atoms: C20_26  and  O5_5 
REMARK    3  A    between atoms: C1_7  and  N1_6 
REMARK    4  A    between atoms: C1_7  and  C4_10 
REMARK    5  A    between atoms: C13_19  and  C15_21 
ROOT
HETATM    1  O2  UNK     1      16.318   7.572  32.473  1.00  0.00    -0.309 OA
HETATM    2  O4  UNK     1      18.973  10.149  34.179  1.00  0.00    -0.287 OA
HETATM    3  C4  UNK     1      16.213  10.837  34.198  1.00  0.00     0.020 A 
HETATM    4  C7  UNK     1      16.725   9.665  33.637  1.00  0.00     0.059 A 
HETATM    5  C8  UNK     1      14.839  11.077  34.156  1.00  0.00     0.074 A 
HETATM    6  C9  UNK     1      15.871   8.739  33.038  1.00  0.00     0.091 A 
HETATM    7  C10 UNK     1      18.167   9.383  33.668  1.00  0.00     0.188 A 
HETATM    8  C11 UNK     1      13.983  10.151  33.556  1.00  0.00     0.040 A 
HETATM    9  C12 UNK     1      14.498   8.981  32.997  1.00  0.00     0.041 A 
HETATM   10  C13 UNK     1      17.679   7.308  32.492  1.00  0.00     0.090 A 
HETATM   11  C14 UNK     1      18.599   8.115  33.044  1.00  0.00     0.093 A 
ENDROOT
BRANCH  10  12
HETATM   12  C15 UNK     1      18.050   6.024  31.862  1.00  0.00    -0.002 A 
HETATM   13  C16 UNK     1      18.692   6.009  30.622  1.00  0.00     0.017 A 
HETATM   14  C18 UNK     1      19.041   4.796  30.029  1.00  0.00     0.037 A 
HETATM   15  C20 UNK     1      18.751   3.594  30.674  1.00  0.00     0.068 A 
HETATM   16  C19 UNK     1      18.111   3.605  31.914  1.00  0.00     0.037 A 
HETATM   17  C17 UNK     1      17.760   4.818  32.507  1.00  0.00     0.017 A 
BRANCH  15  18
HETATM   18  O5  UNK     1      19.093   2.412  30.096  1.00  0.00    -0.356 OA
HETATM   19  C21 UNK     1      18.290   1.966  29.003  1.00  0.00     0.210 C 
ENDBRANCH  15  18
ENDBRANCH  10  12
BRANCH   3  20
HETATM   20  C1  UNK     1      17.081  11.872  34.850  1.00  0.00     0.315 C 
BRANCH  20  21
HETATM   21  N1  UNK     1      17.178  13.086  34.043  1.00  0.00     0.096 N 
HETATM   22  C2  UNK     1      18.492  13.174  33.389  1.00  0.00     0.299 C 
HETATM   23  C5  UNK     1      18.575  14.454  32.564  1.00  0.00     0.198 C 
HETATM   24  O1  UNK     1      18.353  15.596  33.392  1.00  0.00    -0.388 OA
HETATM   25  C6  UNK     1      17.064  15.534  34.005  1.00  0.00     0.198 C 
HETATM   26  C3  UNK     1      16.946  14.280  34.867  1.00  0.00     0.299 C 
ENDBRANCH  20  21
ENDBRANCH   3  20
BRANCH   5  27
HETATM   27  O3  UNK     1      14.306  12.213  34.693  1.00  0.00    -0.360 OA
HETATM   28  H14 UNK     1      13.368  12.263  34.445  1.00  0.00     0.217 HD
ENDBRANCH   5  27
TORSDOF 5
ENDMDL
MODEL 9
REMARK VINA RESULT:      -7.7     16.324     20.749
REMARK  5 active torsions:
REMARK  status: ('A' for Active; 'I' for Inactive)
REMARK    1  A    between atoms: C8_14  and  O3_3 
REMARK    2  A    between atoms: C20_26  and  O5_5 
REMARK    3  A    between atoms: C1_7  and  N1_6 
REMARK    4  A    between atoms: C1_7  and  C4_10 
REMARK    5  A    between atoms: C13_19  and  C15_21 
ROOT
HETATM    1  O2  UNK     1      20.566  -2.409  17.250  1.00  0.00    -0.309 OA
HETATM    2  O4  UNK     1      17.890  -3.114  14.259  1.00  0.00    -0.287 OA
HETATM    3  C4  UNK     1      20.081  -4.901  14.567  1.00  0.00     0.020 A 
HETATM    4  C7  UNK     1      19.859  -3.787  15.378  1.00  0.00     0.059 A 
HETATM    5  C8  UNK     1      21.189  -5.716  14.805  1.00  0.00     0.074 A 
HETATM    6  C9  UNK     1      20.735  -3.488  16.421  1.00  0.00     0.091 A 
HETATM    7  C10 UNK     1      18.701  -2.911  15.153  1.00  0.00     0.188 A 
HETATM    8  C11 UNK     1      22.067  -5.418  15.849  1.00  0.00     0.040 A 
HETATM    9  C12 UNK     1      21.842  -4.304  16.658  1.00  0.00     0.041 A 
HETATM   10  C13 UNK     1      19.479  -1.574  17.033  1.00  0.00     0.090 A 
HETATM   11  C14 UNK     1      18.563  -1.760  16.069  1.00  0.00     0.093 A 
ENDROOT
BRANCH  10  12
HETATM   12  C15 UNK     1      19.388  -0.448  17.985  1.00  0.00    -0.002 A 
HETATM   13  C16 UNK     1      19.680  -0.644  19.336  1.00  0.00     0.017 A 
HETATM   14  C18 UNK     1      19.594   0.421  20.233  1.00  0.00     0.037 A 
HETATM   15  C20 UNK     1      19.216   1.685  19.781  1.00  0.00     0.068 A 
HETATM   16  C19 UNK     1      18.924   1.885  18.431  1.00  0.00     0.037 A 
HETATM   17  C17 UNK     1      19.010   0.820  17.534  1.00  0.00     0.017 A 
BRANCH  15  18
HETATM   18  O5  UNK     1      19.132   2.723  20.656  1.00  0.00    -0.356 OA
HETATM   19  C21 UNK     1      19.568   2.483  21.993  1.00  0.00     0.210 C 
ENDBRANCH  15  18
ENDBRANCH  10  12
BRANCH   3  20
HETATM   20  C1  UNK     1      19.178  -5.270  13.428  1.00  0.00     0.315 C 
BRANCH  20  21
HETATM   21  N1  UNK     1      18.487  -6.535  13.669  1.00  0.00     0.096 N 
HETATM   22  C2  UNK     1      18.296  -7.273  12.412  1.00  0.00     0.299 C 
HETATM   23  C5  UNK     1      17.563  -8.582  12.687  1.00  0.00     0.198 C 
HETATM   24  O1  UNK     1      16.304  -8.326  13.311  1.00  0.00    -0.388 OA
HETATM   25  C6  UNK     1      16.483  -7.638  14.550  1.00  0.00     0.198 C 
HETATM   26  C3  UNK     1      17.190  -6.305  14.319  1.00  0.00     0.299 C 
ENDBRANCH  20  21
ENDBRANCH   3  20
BRANCH   5  27
HETATM   27  O3  UNK     1      21.437  -6.812  14.030  1.00  0.00    -0.360 OA
HETATM   28  H14 UNK     1      22.397  -6.944  13.977  1.00  0.00     0.217 HD
ENDBRANCH   5  27
TORSDOF 5
ENDMDL
MODEL 10
REMARK VINA RESULT:      -7.7     18.208     19.950
REMARK  5 active torsions:
REMARK  status: ('A' for Active; 'I' for Inactive)
REMARK    1  A    between atoms: C8_14  and  O3_3 
REMARK    2  A    between atoms: C20_26  and  O5_5 
REMARK    3  A    between atoms: C1_7  and  N1_6 
REMARK    4  A    between atoms: C1_7  and  C4_10 
REMARK    5  A    between atoms: C13_19  and  C15_21 
ROOT
HETATM    1  O2  UNK     1      25.701  -6.576  38.582  1.00  0.00    -0.309 OA
HETATM    2  O4  UNK     1      28.461  -9.567  38.393  1.00  0.00    -0.287 OA
HETATM    3  C4  UNK     1      29.382  -6.879  38.509  1.00  0.00     0.020 A 
HETATM    4  C7  UNK     1      28.035  -7.246  38.511  1.00  0.00     0.059 A 
HETATM    5  C8  UNK     1      29.727  -5.528  38.571  1.00  0.00     0.074 A 
HETATM    6  C9  UNK     1      27.039  -6.273  38.575  1.00  0.00     0.091 A 
HETATM    7  C10 UNK     1      27.640  -8.661  38.448  1.00  0.00     0.188 A 
HETATM    8  C11 UNK     1      28.730  -4.552  38.635  1.00  0.00     0.040 A 
HETATM    9  C12 UNK     1      27.385  -4.923  38.637  1.00  0.00     0.041 A 
HETATM   10  C13 UNK     1      25.326  -7.909  38.513  1.00  0.00     0.090 A 
HETATM   11  C14 UNK     1      26.189  -8.936  38.455  1.00  0.00     0.093 A 
ENDROOT
BRANCH  10  12
HETATM   12  C15 UNK     1      23.864  -8.123  38.532  1.00  0.00    -0.002 A 
HETATM   13  C16 UNK     1      23.117  -7.769  39.657  1.00  0.00     0.017 A 
HETATM   14  C18 UNK     1      21.737  -7.972  39.674  1.00  0.00     0.037 A 
HETATM   15  C20 UNK     1      21.100  -8.530  38.565  1.00  0.00     0.068 A 
HETATM   16  C19 UNK     1      21.844  -8.884  37.439  1.00  0.00     0.037 A 
HETATM   17  C17 UNK     1      23.224  -8.682  37.423  1.00  0.00     0.017 A 
BRANCH  15  18
HETATM   18  O5  UNK     1      19.755  -8.727  38.582  1.00  0.00    -0.356 OA
HETATM   19  C21 UNK     1      19.283 -10.024  38.218  1.00  0.00     0.210 C 
ENDBRANCH  15  18
ENDBRANCH  10  12
BRANCH   3  20
HETATM   20  C1  UNK     1      30.497  -7.879  38.435  1.00  0.00     0.315 C 
BRANCH  20  21
HETATM   21  N1  UNK     1      31.265  -7.747  37.199  1.00  0.00     0.096 N 
HETATM   22  C2  UNK     1      30.717  -8.618  36.149  1.00  0.00     0.299 C 
HETATM   23  C5  UNK     1      31.542  -8.472  34.874  1.00  0.00     0.198 C 
HETATM   24  O1  UNK     1      32.910  -8.795  35.126  1.00  0.00    -0.388 OA
HETATM   25  C6  UNK     1      33.459  -7.931  36.122  1.00  0.00     0.198 C 
HETATM   26  C3  UNK     1      32.682  -8.066  37.428  1.00  0.00     0.299 C 
ENDBRANCH  20  21
ENDBRANCH   3  20
BRANCH   5  27
HETATM   27  O3  UNK     1      31.034  -5.134  38.569  1.00  0.00    -0.360 OA
HETATM   28  H14 UNK     1      31.285  -4.886  39.474  1.00  0.00     0.217 HD
ENDBRANCH   5  27
TORSDOF 5
ENDMDL
