MODEL 1
REMARK VINA RESULT:      -9.2      0.000      0.000
REMARK  4 active torsions:
REMARK  status: ('A' for Active; 'I' for Inactive)
REMARK    1  A    between atoms: C15_20  and  O2_2 
REMARK    2  A    between atoms: C1_6  and  N1_5 
REMARK       I    between atoms: C7_12  and  N1_5 
REMARK    3  A    between atoms: C1_6  and  C2_7 
REMARK    4  A    between atoms: C4_9  and  C7_12 
ROOT
HETATM    1  O3  UNK     1      18.084   3.273  28.771  1.00  0.00    -0.267 OA
HETATM    2  N1  UNK     1      19.156   4.243  30.599  1.00  0.00    -0.352 N 
HETATM    3  C7  UNK     1      18.687   3.187  29.838  1.00  0.00     0.258 C 
HETATM    4  H4  UNK     1      19.658   4.068  31.464  1.00  0.00     0.163 HD
ENDROOT
BRANCH   3   5
HETATM    5  C4  UNK     1      18.985   1.880  30.433  1.00  0.00     0.108 A 
HETATM    6  C10 UNK     1      18.600   1.542  31.823  1.00  0.00     0.304 A 
HETATM    7  O1  UNK     1      18.938   0.269  32.273  1.00  0.00    -0.274 OA
HETATM    8  O4  UNK     1      18.014   2.341  32.545  1.00  0.00    -0.259 OA
HETATM    9  C5  UNK     1      19.610  -0.657  31.451  1.00  0.00     0.089 A 
HETATM   10  C12 UNK     1      19.904  -1.907  31.991  1.00  0.00     0.038 A 
HETATM   11  C3  UNK     1      19.962  -0.319  30.149  1.00  0.00    -0.001 A 
HETATM   12  C17 UNK     1      20.569  -2.844  31.202  1.00  0.00     0.003 A 
HETATM   13  C16 UNK     1      20.931  -2.523  29.892  1.00  0.00     0.001 A 
HETATM   14  C11 UNK     1      20.629  -1.265  29.364  1.00  0.00     0.014 A 
HETATM   15  C6  UNK     1      19.624   1.005  29.648  1.00  0.00     0.037 A 
ENDBRANCH   3   5
BRANCH   2  16
HETATM   16  C1  UNK     1      18.985   5.627  30.216  1.00  0.00     0.161 C 
BRANCH  16  17
HETATM   17  C2  UNK     1      18.570   6.557  31.314  1.00  0.00    -0.040 A 
HETATM   18  C8  UNK     1      19.409   6.758  32.406  1.00  0.00     0.011 A 
HETATM   19  C13 UNK     1      19.021   7.625  33.427  1.00  0.00     0.037 A 
HETATM   20  C15 UNK     1      17.795   8.287  33.353  1.00  0.00     0.068 A 
HETATM   21  C14 UNK     1      16.957   8.082  32.257  1.00  0.00     0.037 A 
HETATM   22  C9  UNK     1      17.346   7.216  31.235  1.00  0.00     0.011 A 
BRANCH  20  23
HETATM   23  O2  UNK     1      17.419   9.132  34.351  1.00  0.00    -0.356 OA
HETATM   24  C18 UNK     1      16.025   9.199  34.652  1.00  0.00     0.210 C 
ENDBRANCH  20  23
ENDBRANCH  16  17
ENDBRANCH   2  16
TORSDOF 4
ENDMDL
MODEL 2
REMARK VINA RESULT:      -8.8      1.562      2.289
REMARK  4 active torsions:
REMARK  status: ('A' for Active; 'I' for Inactive)
REMARK    1  A    between atoms: C15_20  and  O2_2 
REMARK    2  A    between atoms: C1_6  and  N1_5 
REMARK       I    between atoms: C7_12  and  N1_5 
REMARK    3  A    between atoms: C1_6  and  C2_7 
REMARK    4  A    between atoms: C4_9  and  C7_12 
ROOT
HETATM    1  O3  UNK     1      17.191   2.828  30.864  1.00  0.00    -0.267 OA
HETATM    2  N1  UNK     1      19.133   3.645  29.866  1.00  0.00    -0.352 N 
HETATM    3  C7  UNK     1      18.305   2.660  30.374  1.00  0.00     0.258 C 
HETATM    4  H4  UNK     1      20.034   3.402  29.467  1.00  0.00     0.163 HD
ENDROOT
BRANCH   3   5
HETATM    5  C4  UNK     1      18.889   1.317  30.273  1.00  0.00     0.108 A 
HETATM    6  C10 UNK     1      19.086   0.641  28.971  1.00  0.00     0.304 A 
HETATM    7  O1  UNK     1      19.651  -0.631  29.006  1.00  0.00    -0.274 OA
HETATM    8  O4  UNK     1      18.769   1.171  27.911  1.00  0.00    -0.259 OA
HETATM    9  C5  UNK     1      20.019  -1.248  30.218  1.00  0.00     0.089 A 
HETATM   10  C12 UNK     1      20.578  -2.522  30.151  1.00  0.00     0.038 A 
HETATM   11  C3  UNK     1      19.825  -0.594  31.430  1.00  0.00    -0.001 A 
HETATM   12  C17 UNK     1      20.952  -3.158  31.333  1.00  0.00     0.003 A 
HETATM   13  C16 UNK     1      20.765  -2.518  32.560  1.00  0.00     0.001 A 
HETATM   14  C11 UNK     1      20.204  -1.240  32.611  1.00  0.00     0.014 A 
HETATM   15  C6  UNK     1      19.237   0.736  31.427  1.00  0.00     0.037 A 
ENDBRANCH   3   5
BRANCH   2  16
HETATM   16  C1  UNK     1      18.773   5.046  29.853  1.00  0.00     0.161 C 
BRANCH  16  17
HETATM   17  C2  UNK     1      19.043   5.797  31.119  1.00  0.00    -0.040 A 
HETATM   18  C8  UNK     1      20.327   5.810  31.657  1.00  0.00     0.011 A 
HETATM   19  C13 UNK     1      20.577   6.510  32.836  1.00  0.00     0.037 A 
HETATM   20  C15 UNK     1      19.543   7.195  33.474  1.00  0.00     0.068 A 
HETATM   21  C14 UNK     1      18.258   7.179  32.932  1.00  0.00     0.037 A 
HETATM   22  C9  UNK     1      18.008   6.480  31.752  1.00  0.00     0.011 A 
BRANCH  20  23
HETATM   23  O2  UNK     1      19.790   7.878  34.625  1.00  0.00    -0.356 OA
HETATM   24  C18 UNK     1      19.981   9.288  34.515  1.00  0.00     0.210 C 
ENDBRANCH  20  23
ENDBRANCH  16  17
ENDBRANCH   2  16
TORSDOF 4
ENDMDL
MODEL 3
REMARK VINA RESULT:      -8.6      4.971      9.953
REMARK  4 active torsions:
REMARK  status: ('A' for Active; 'I' for Inactive)
REMARK    1  A    between atoms: C15_20  and  O2_2 
REMARK    2  A    between atoms: C1_6  and  N1_5 
REMARK       I    between atoms: C7_12  and  N1_5 
REMARK    3  A    between atoms: C1_6  and  C2_7 
REMARK    4  A    between atoms: C4_9  and  C7_12 
ROOT
HETATM    1  O3  UNK     1      17.454  -1.357  35.787  1.00  0.00    -0.267 OA
HETATM    2  N1  UNK     1      19.596  -2.261  35.623  1.00  0.00    -0.352 N 
HETATM    3  C7  UNK     1      18.516  -1.513  35.190  1.00  0.00     0.258 C 
HETATM    4  H4  UNK     1      20.439  -2.317  35.061  1.00  0.00     0.163 HD
ENDROOT
BRANCH   3   5
HETATM    5  C4  UNK     1      18.749  -0.877  33.887  1.00  0.00     0.108 A 
HETATM    6  C10 UNK     1      18.364   0.527  33.618  1.00  0.00     0.304 A 
HETATM    7  O1  UNK     1      18.637   1.016  32.343  1.00  0.00    -0.274 OA
HETATM    8  O4  UNK     1      17.830   1.227  34.470  1.00  0.00    -0.259 OA
HETATM    9  C5  UNK     1      19.251   0.220  31.356  1.00  0.00     0.089 A 
HETATM   10  C12 UNK     1      19.485   0.799  30.111  1.00  0.00     0.038 A 
HETATM   11  C3  UNK     1      19.605  -1.097  31.632  1.00  0.00    -0.001 A 
HETATM   12  C17 UNK     1      20.091   0.035  29.115  1.00  0.00     0.003 A 
HETATM   13  C16 UNK     1      20.453  -1.289  29.372  1.00  0.00     0.001 A 
HETATM   14  C11 UNK     1      20.212  -1.856  30.627  1.00  0.00     0.014 A 
HETATM   15  C6  UNK     1      19.332  -1.639  32.954  1.00  0.00     0.037 A 
ENDBRANCH   3   5
BRANCH   2  16
HETATM   16  C1  UNK     1      19.604  -2.978  36.879  1.00  0.00     0.161 C 
BRANCH  16  17
HETATM   17  C2  UNK     1      20.107  -4.387  36.818  1.00  0.00    -0.040 A 
HETATM   18  C8  UNK     1      20.956  -4.863  37.812  1.00  0.00     0.011 A 
HETATM   19  C13 UNK     1      21.425  -6.174  37.755  1.00  0.00     0.037 A 
HETATM   20  C15 UNK     1      21.043  -7.007  36.702  1.00  0.00     0.068 A 
HETATM   21  C14 UNK     1      20.192  -6.526  35.707  1.00  0.00     0.037 A 
HETATM   22  C9  UNK     1      19.723  -5.214  35.766  1.00  0.00     0.011 A 
BRANCH  20  23
HETATM   23  O2  UNK     1      21.501  -8.287  36.648  1.00  0.00    -0.356 OA
HETATM   24  C18 UNK     1      21.410  -8.955  35.390  1.00  0.00     0.210 C 
ENDBRANCH  20  23
ENDBRANCH  16  17
ENDBRANCH   2  16
TORSDOF 4
ENDMDL
MODEL 4
REMARK VINA RESULT:      -8.5      1.673      8.276
REMARK  4 active torsions:
REMARK  status: ('A' for Active; 'I' for Inactive)
REMARK    1  A    between atoms: C15_20  and  O2_2 
REMARK    2  A    between atoms: C1_6  and  N1_5 
REMARK       I    between atoms: C7_12  and  N1_5 
REMARK    3  A    between atoms: C1_6  and  C2_7 
REMARK    4  A    between atoms: C4_9  and  C7_12 
ROOT
HETATM    1  O3  UNK     1      19.750   4.996  30.059  1.00  0.00    -0.267 OA
HETATM    2  N1  UNK     1      18.245   3.277  30.524  1.00  0.00    -0.352 N 
HETATM    3  C7  UNK     1      18.843   4.508  30.729  1.00  0.00     0.258 C 
HETATM    4  H4  UNK     1      17.489   2.968  31.126  1.00  0.00     0.163 HD
ENDROOT
BRANCH   3   5
HETATM    5  C4  UNK     1      18.275   5.234  31.871  1.00  0.00     0.108 A 
HETATM    6  C10 UNK     1      18.095   4.597  33.196  1.00  0.00     0.304 A 
HETATM    7  O1  UNK     1      17.547   5.389  34.201  1.00  0.00    -0.274 OA
HETATM    8  O4  UNK     1      18.411   3.430  33.402  1.00  0.00    -0.259 OA
HETATM    9  C5  UNK     1      17.181   6.731  33.975  1.00  0.00     0.089 A 
HETATM   10  C12 UNK     1      16.642   7.443  35.043  1.00  0.00     0.038 A 
HETATM   11  C3  UNK     1      17.360   7.309  32.722  1.00  0.00    -0.001 A 
HETATM   12  C17 UNK     1      16.271   8.772  34.849  1.00  0.00     0.003 A 
HETATM   13  C16 UNK     1      16.441   9.370  33.599  1.00  0.00     0.001 A 
HETATM   14  C11 UNK     1      16.985   8.643  32.537  1.00  0.00     0.014 A 
HETATM   15  C6  UNK     1      17.930   6.508  31.650  1.00  0.00     0.037 A 
ENDBRANCH   3   5
BRANCH   2  16
HETATM   16  C1  UNK     1      18.633   2.382  29.457  1.00  0.00     0.161 C 
BRANCH  16  17
HETATM   17  C2  UNK     1      19.187   1.059  29.888  1.00  0.00    -0.040 A 
HETATM   18  C8  UNK     1      19.784   0.220  28.953  1.00  0.00     0.011 A 
HETATM   19  C13 UNK     1      20.300  -1.011  29.357  1.00  0.00     0.037 A 
HETATM   20  C15 UNK     1      20.215  -1.399  30.694  1.00  0.00     0.068 A 
HETATM   21  C14 UNK     1      19.614  -0.555  31.628  1.00  0.00     0.037 A 
HETATM   22  C9  UNK     1      19.099   0.677  31.224  1.00  0.00     0.011 A 
BRANCH  20  23
HETATM   23  O2  UNK     1      20.718  -2.601  31.086  1.00  0.00    -0.356 OA
HETATM   24  C18 UNK     1      21.020  -2.757  32.472  1.00  0.00     0.210 C 
ENDBRANCH  20  23
ENDBRANCH  16  17
ENDBRANCH   2  16
TORSDOF 4
ENDMDL
MODEL 5
REMARK VINA RESULT:      -8.4      6.614     10.214
REMARK  4 active torsions:
REMARK  status: ('A' for Active; 'I' for Inactive)
REMARK    1  A    between atoms: C15_20  and  O2_2 
REMARK    2  A    between atoms: C1_6  and  N1_5 
REMARK       I    between atoms: C7_12  and  N1_5 
REMARK    3  A    between atoms: C1_6  and  C2_7 
REMARK    4  A    between atoms: C4_9  and  C7_12 
ROOT
HETATM    1  O3  UNK     1      21.122  -3.903  37.403  1.00  0.00    -0.267 OA
HETATM    2  N1  UNK     1      19.752  -3.918  35.516  1.00  0.00    -0.352 N 
HETATM    3  C7  UNK     1      20.445  -4.495  36.566  1.00  0.00     0.258 C 
HETATM    4  H4  UNK     1      19.207  -4.495  34.883  1.00  0.00     0.163 HD
ENDROOT
BRANCH   3   5
HETATM    5  C4  UNK     1      20.300  -5.955  36.610  1.00  0.00     0.108 A 
HETATM    6  C10 UNK     1      20.377  -6.790  35.389  1.00  0.00     0.304 A 
HETATM    7  O1  UNK     1      20.224  -8.163  35.560  1.00  0.00    -0.274 OA
HETATM    8  O4  UNK     1      20.565  -6.301  34.281  1.00  0.00    -0.259 OA
HETATM    9  C5  UNK     1      20.008  -8.735  36.830  1.00  0.00     0.089 A 
HETATM   10  C12 UNK     1      19.868 -10.119  36.900  1.00  0.00     0.038 A 
HETATM   11  C3  UNK     1      19.939  -7.931  37.963  1.00  0.00    -0.001 A 
HETATM   12  C17 UNK     1      19.653 -10.713  38.142  1.00  0.00     0.003 A 
HETATM   13  C16 UNK     1      19.581  -9.924  39.291  1.00  0.00     0.001 A 
HETATM   14  C11 UNK     1      19.723  -8.536  39.205  1.00  0.00     0.014 A 
HETATM   15  C6  UNK     1      20.094  -6.492  37.818  1.00  0.00     0.037 A 
ENDBRANCH   3   5
BRANCH   2  16
HETATM   16  C1  UNK     1      19.742  -2.494  35.269  1.00  0.00     0.161 C 
BRANCH  16  17
HETATM   17  C2  UNK     1      19.826  -2.084  33.831  1.00  0.00    -0.040 A 
HETATM   18  C8  UNK     1      20.775  -2.670  32.998  1.00  0.00     0.011 A 
HETATM   19  C13 UNK     1      20.852  -2.289  31.660  1.00  0.00     0.037 A 
HETATM   20  C15 UNK     1      19.980  -1.322  31.158  1.00  0.00     0.068 A 
HETATM   21  C14 UNK     1      19.030  -0.737  31.996  1.00  0.00     0.037 A 
HETATM   22  C9  UNK     1      18.953  -1.120  33.335  1.00  0.00     0.011 A 
BRANCH  20  23
HETATM   23  O2  UNK     1      20.057  -0.951  29.851  1.00  0.00    -0.356 OA
HETATM   24  C18 UNK     1      19.722   0.401  29.540  1.00  0.00     0.210 C 
ENDBRANCH  20  23
ENDBRANCH  16  17
ENDBRANCH   2  16
TORSDOF 4
ENDMDL
MODEL 6
REMARK VINA RESULT:      -8.4      6.577     12.303
REMARK  4 active torsions:
REMARK  status: ('A' for Active; 'I' for Inactive)
REMARK    1  A    between atoms: C15_20  and  O2_2 
REMARK    2  A    between atoms: C1_6  and  N1_5 
REMARK       I    between atoms: C7_12  and  N1_5 
REMARK    3  A    between atoms: C1_6  and  C2_7 
REMARK    4  A    between atoms: C4_9  and  C7_12 
ROOT
HETATM    1  O3  UNK     1      20.398  -4.388  37.805  1.00  0.00    -0.267 OA
HETATM    2  N1  UNK     1      18.416  -4.994  36.739  1.00  0.00    -0.352 N 
HETATM    3  C7  UNK     1      19.429  -4.123  37.097  1.00  0.00     0.258 C 
HETATM    4  H4  UNK     1      17.662  -4.683  36.134  1.00  0.00     0.163 HD
ENDROOT
BRANCH   3   5
HETATM    5  C4  UNK     1      19.253  -2.781  36.532  1.00  0.00     0.108 A 
HETATM    6  C10 UNK     1      19.838  -2.393  35.228  1.00  0.00     0.304 A 
HETATM    7  O1  UNK     1      19.601  -1.090  34.799  1.00  0.00    -0.274 OA
HETATM    8  O4  UNK     1      20.501  -3.177  34.557  1.00  0.00    -0.259 OA
HETATM    9  C5  UNK     1      18.841  -0.182  35.562  1.00  0.00     0.089 A 
HETATM   10  C12 UNK     1      18.657   1.099  35.048  1.00  0.00     0.038 A 
HETATM   11  C3  UNK     1      18.300  -0.568  36.784  1.00  0.00    -0.001 A 
HETATM   12  C17 UNK     1      17.909   2.019  35.781  1.00  0.00     0.003 A 
HETATM   13  C16 UNK     1      17.359   1.651  37.010  1.00  0.00     0.001 A 
HETATM   14  C11 UNK     1      17.552   0.362  37.513  1.00  0.00     0.014 A 
HETATM   15  C6  UNK     1      18.531  -1.923  37.262  1.00  0.00     0.037 A 
ENDBRANCH   3   5
BRANCH   2  16
HETATM   16  C1  UNK     1      18.373  -6.373  37.171  1.00  0.00     0.161 C 
BRANCH  16  17
HETATM   17  C2  UNK     1      19.306  -7.305  36.461  1.00  0.00    -0.040 A 
HETATM   18  C8  UNK     1      19.584  -8.555  37.006  1.00  0.00     0.011 A 
HETATM   19  C13 UNK     1      20.452  -9.421  36.344  1.00  0.00     0.037 A 
HETATM   20  C15 UNK     1      21.040  -9.035  35.139  1.00  0.00     0.068 A 
HETATM   21  C14 UNK     1      20.758  -7.781  34.596  1.00  0.00     0.037 A 
HETATM   22  C9  UNK     1      19.888  -6.915  35.259  1.00  0.00     0.011 A 
BRANCH  20  23
HETATM   23  O2  UNK     1      21.887  -9.882  34.493  1.00  0.00    -0.356 OA
HETATM   24  C18 UNK     1      22.475 -10.926  35.269  1.00  0.00     0.210 C 
ENDBRANCH  20  23
ENDBRANCH  16  17
ENDBRANCH   2  16
TORSDOF 4
ENDMDL
MODEL 7
REMARK VINA RESULT:      -8.2      5.594     11.043
REMARK  4 active torsions:
REMARK  status: ('A' for Active; 'I' for Inactive)
REMARK    1  A    between atoms: C15_20  and  O2_2 
REMARK    2  A    between atoms: C1_6  and  N1_5 
REMARK       I    between atoms: C7_12  and  N1_5 
REMARK    3  A    between atoms: C1_6  and  C2_7 
REMARK    4  A    between atoms: C4_9  and  C7_12 
ROOT
HETATM    1  O3  UNK     1      21.372  -2.669  35.974  1.00  0.00    -0.267 OA
HETATM    2  N1  UNK     1      19.424  -3.885  35.572  1.00  0.00    -0.352 N 
HETATM    3  C7  UNK     1      20.350  -2.887  35.327  1.00  0.00     0.258 C 
HETATM    4  H4  UNK     1      18.615  -3.993  34.969  1.00  0.00     0.163 HD
ENDROOT
BRANCH   3   5
HETATM    5  C4  UNK     1      20.002  -2.059  34.166  1.00  0.00     0.108 A 
HETATM    6  C10 UNK     1      19.107  -0.885  34.278  1.00  0.00     0.304 A 
HETATM    7  O1  UNK     1      18.853  -0.180  33.105  1.00  0.00    -0.274 OA
HETATM    8  O4  UNK     1      18.612  -0.547  35.347  1.00  0.00    -0.259 OA
HETATM    9  C5  UNK     1      19.417  -0.559  31.871  1.00  0.00     0.089 A 
HETATM   10  C12 UNK     1      19.105   0.211  30.753  1.00  0.00     0.038 A 
HETATM   11  C3  UNK     1      20.256  -1.666  31.790  1.00  0.00    -0.001 A 
HETATM   12  C17 UNK     1      19.648  -0.141  29.519  1.00  0.00     0.003 A 
HETATM   13  C16 UNK     1      20.492  -1.248  29.416  1.00  0.00     0.001 A 
HETATM   14  C11 UNK     1      20.797  -2.010  30.547  1.00  0.00     0.014 A 
HETATM   15  C6  UNK     1      20.541  -2.425  32.997  1.00  0.00     0.037 A 
ENDBRANCH   3   5
BRANCH   2  16
HETATM   16  C1  UNK     1      19.553  -4.828  36.661  1.00  0.00     0.161 C 
BRANCH  16  17
HETATM   17  C2  UNK     1      20.225  -6.122  36.321  1.00  0.00    -0.040 A 
HETATM   18  C8  UNK     1      20.047  -6.686  35.062  1.00  0.00     0.011 A 
HETATM   19  C13 UNK     1      20.674  -7.891  34.747  1.00  0.00     0.037 A 
HETATM   20  C15 UNK     1      21.477  -8.528  35.693  1.00  0.00     0.068 A 
HETATM   21  C14 UNK     1      21.652  -7.960  36.955  1.00  0.00     0.037 A 
HETATM   22  C9  UNK     1      21.026  -6.754  37.269  1.00  0.00     0.011 A 
BRANCH  20  23
HETATM   23  O2  UNK     1      22.088  -9.704  35.384  1.00  0.00    -0.356 OA
HETATM   24  C18 UNK     1      21.839 -10.812  36.249  1.00  0.00     0.210 C 
ENDBRANCH  20  23
ENDBRANCH  16  17
ENDBRANCH   2  16
TORSDOF 4
ENDMDL
MODEL 8
REMARK VINA RESULT:      -8.2      3.016      9.733
REMARK  4 active torsions:
REMARK  status: ('A' for Active; 'I' for Inactive)
REMARK    1  A    between atoms: C15_20  and  O2_2 
REMARK    2  A    between atoms: C1_6  and  N1_5 
REMARK       I    between atoms: C7_12  and  N1_5 
REMARK    3  A    between atoms: C1_6  and  C2_7 
REMARK    4  A    between atoms: C4_9  and  C7_12 
ROOT
HETATM    1  O3  UNK     1      17.018   6.811  34.741  1.00  0.00    -0.267 OA
HETATM    2  N1  UNK     1      18.041   7.724  32.855  1.00  0.00    -0.352 N 
HETATM    3  C7  UNK     1      17.069   7.642  33.837  1.00  0.00     0.258 C 
HETATM    4  H4  UNK     1      18.003   8.460  32.157  1.00  0.00     0.163 HD
ENDROOT
BRANCH   3   5
HETATM    5  C4  UNK     1      16.044   8.685  33.713  1.00  0.00     0.108 A 
HETATM    6  C10 UNK     1      15.462   9.064  32.405  1.00  0.00     0.304 A 
HETATM    7  O1  UNK     1      14.498  10.068  32.417  1.00  0.00    -0.274 OA
HETATM    8  O4  UNK     1      15.809   8.523  31.360  1.00  0.00    -0.259 OA
HETATM    9  C5  UNK     1      14.091  10.694  33.612  1.00  0.00     0.089 A 
HETATM   10  C12 UNK     1      13.119  11.687  33.523  1.00  0.00     0.038 A 
HETATM   11  C3  UNK     1      14.651  10.322  34.829  1.00  0.00    -0.001 A 
HETATM   12  C17 UNK     1      12.697  12.325  34.688  1.00  0.00     0.003 A 
HETATM   13  C16 UNK     1      13.247  11.966  35.920  1.00  0.00     0.001 A 
HETATM   14  C11 UNK     1      14.222  10.967  35.993  1.00  0.00     0.014 A 
HETATM   15  C6  UNK     1      15.663   9.277  34.851  1.00  0.00     0.037 A 
ENDBRANCH   3   5
BRANCH   2  16
HETATM   16  C1  UNK     1      19.155   6.806  32.772  1.00  0.00     0.161 C 
BRANCH  16  17
HETATM   17  C2  UNK     1      18.880   5.514  32.068  1.00  0.00    -0.040 A 
HETATM   18  C8  UNK     1      18.323   4.448  32.768  1.00  0.00     0.011 A 
HETATM   19  C13 UNK     1      18.067   3.245  32.111  1.00  0.00     0.037 A 
HETATM   20  C15 UNK     1      18.369   3.112  30.756  1.00  0.00     0.068 A 
HETATM   21  C14 UNK     1      18.927   4.183  30.058  1.00  0.00     0.037 A 
HETATM   22  C9  UNK     1      19.182   5.386  30.715  1.00  0.00     0.011 A 
BRANCH  20  23
HETATM   23  O2  UNK     1      18.118   1.937  30.116  1.00  0.00    -0.356 OA
HETATM   24  C18 UNK     1      17.916   1.998  28.705  1.00  0.00     0.210 C 
ENDBRANCH  20  23
ENDBRANCH  16  17
ENDBRANCH   2  16
TORSDOF 4
ENDMDL
MODEL 9
REMARK VINA RESULT:      -8.0      3.069      4.314
REMARK  4 active torsions:
REMARK  status: ('A' for Active; 'I' for Inactive)
REMARK    1  A    between atoms: C15_20  and  O2_2 
REMARK    2  A    between atoms: C1_6  and  N1_5 
REMARK       I    between atoms: C7_12  and  N1_5 
REMARK    3  A    between atoms: C1_6  and  C2_7 
REMARK    4  A    between atoms: C4_9  and  C7_12 
ROOT
HETATM    1  O3  UNK     1      19.386   5.097  33.916  1.00  0.00    -0.267 OA
HETATM    2  N1  UNK     1      17.520   4.797  32.552  1.00  0.00    -0.352 N 
HETATM    3  C7  UNK     1      18.467   4.407  33.482  1.00  0.00     0.258 C 
HETATM    4  H4  UNK     1      16.787   4.155  32.267  1.00  0.00     0.163 HD
ENDROOT
BRANCH   3   5
HETATM    5  C4  UNK     1      18.279   3.026  33.942  1.00  0.00     0.108 A 
HETATM    6  C10 UNK     1      18.198   1.887  32.999  1.00  0.00     0.304 A 
HETATM    7  O1  UNK     1      18.018   0.625  33.558  1.00  0.00    -0.274 OA
HETATM    8  O4  UNK     1      18.283   2.044  31.786  1.00  0.00    -0.259 OA
HETATM    9  C5  UNK     1      17.920   0.434  34.950  1.00  0.00     0.089 A 
HETATM   10  C12 UNK     1      17.742  -0.867  35.414  1.00  0.00     0.038 A 
HETATM   11  C3  UNK     1      17.999   1.519  35.818  1.00  0.00    -0.001 A 
HETATM   12  C17 UNK     1      17.641  -1.086  36.787  1.00  0.00     0.003 A 
HETATM   13  C16 UNK     1      17.718  -0.011  37.674  1.00  0.00     0.001 A 
HETATM   14  C11 UNK     1      17.896   1.290  37.193  1.00  0.00     0.014 A 
HETATM   15  C6  UNK     1      18.185   2.852  35.266  1.00  0.00     0.037 A 
ENDBRANCH   3   5
BRANCH   2  16
HETATM   16  C1  UNK     1      17.498   6.114  31.956  1.00  0.00     0.161 C 
BRANCH  16  17
HETATM   17  C2  UNK     1      17.025   7.221  32.846  1.00  0.00    -0.040 A 
HETATM   18  C8  UNK     1      17.892   8.254  33.187  1.00  0.00     0.011 A 
HETATM   19  C13 UNK     1      17.451   9.285  34.015  1.00  0.00     0.037 A 
HETATM   20  C15 UNK     1      16.143   9.278  34.502  1.00  0.00     0.068 A 
HETATM   21  C14 UNK     1      15.277   8.239  34.159  1.00  0.00     0.037 A 
HETATM   22  C9  UNK     1      15.719   7.209  33.329  1.00  0.00     0.011 A 
BRANCH  20  23
HETATM   23  O2  UNK     1      15.714  10.284  35.311  1.00  0.00    -0.356 OA
HETATM   24  C18 UNK     1      14.321  10.591  35.281  1.00  0.00     0.210 C 
ENDBRANCH  20  23
ENDBRANCH  16  17
ENDBRANCH   2  16
TORSDOF 4
ENDMDL
MODEL 10
REMARK VINA RESULT:      -8.0     11.995     14.982
REMARK  4 active torsions:
REMARK  status: ('A' for Active; 'I' for Inactive)
REMARK    1  A    between atoms: C15_20  and  O2_2 
REMARK    2  A    between atoms: C1_6  and  N1_5 
REMARK       I    between atoms: C7_12  and  N1_5 
REMARK    3  A    between atoms: C1_6  and  C2_7 
REMARK    4  A    between atoms: C4_9  and  C7_12 
ROOT
HETATM    1  O3  UNK     1      25.929  -8.959  37.865  1.00  0.00    -0.267 OA
HETATM    2  N1  UNK     1      24.760  -7.346  39.077  1.00  0.00    -0.352 N 
HETATM    3  C7  UNK     1      25.868  -7.874  38.439  1.00  0.00     0.258 C 
HETATM    4  H4  UNK     1      24.806  -6.430  39.511  1.00  0.00     0.163 HD
ENDROOT
BRANCH   3   5
HETATM    5  C4  UNK     1      27.035  -6.986  38.497  1.00  0.00     0.108 A 
HETATM    6  C10 UNK     1      26.902  -5.525  38.694  1.00  0.00     0.304 A 
HETATM    7  O1  UNK     1      28.084  -4.789  38.732  1.00  0.00    -0.274 OA
HETATM    8  O4  UNK     1      25.808  -4.984  38.818  1.00  0.00    -0.259 OA
HETATM    9  C5  UNK     1      29.345  -5.400  38.593  1.00  0.00     0.089 A 
HETATM   10  C12 UNK     1      30.470  -4.580  38.646  1.00  0.00     0.038 A 
HETATM   11  C3  UNK     1      29.447  -6.775  38.408  1.00  0.00    -0.001 A 
HETATM   12  C17 UNK     1      31.732  -5.156  38.510  1.00  0.00     0.003 A 
HETATM   13  C16 UNK     1      31.855  -6.534  38.324  1.00  0.00     0.001 A 
HETATM   14  C11 UNK     1      30.717  -7.344  38.273  1.00  0.00     0.014 A 
HETATM   15  C6  UNK     1      28.231  -7.572  38.363  1.00  0.00     0.037 A 
ENDBRANCH   3   5
BRANCH   2  16
HETATM   16  C1  UNK     1      23.491  -8.036  39.149  1.00  0.00     0.161 C 
BRANCH  16  17
HETATM   17  C2  UNK     1      22.479  -7.641  38.119  1.00  0.00    -0.040 A 
HETATM   18  C8  UNK     1      22.232  -8.478  37.034  1.00  0.00     0.011 A 
HETATM   19  C13 UNK     1      21.289  -8.110  36.076  1.00  0.00     0.037 A 
HETATM   20  C15 UNK     1      20.597  -6.905  36.204  1.00  0.00     0.068 A 
HETATM   21  C14 UNK     1      20.848  -6.069  37.292  1.00  0.00     0.037 A 
HETATM   22  C9  UNK     1      21.790  -6.439  38.252  1.00  0.00     0.011 A 
BRANCH  20  23
HETATM   23  O2  UNK     1      19.677  -6.547  35.267  1.00  0.00    -0.356 OA
HETATM   24  C18 UNK     1      18.412  -7.208  35.315  1.00  0.00     0.210 C 
ENDBRANCH  20  23
ENDBRANCH  16  17
ENDBRANCH   2  16
TORSDOF 4
ENDMDL
