MODEL 1
REMARK VINA RESULT:      -9.8      0.000      0.000
REMARK  2 active torsions:
REMARK  status: ('A' for Active; 'I' for Inactive)
REMARK       I    between atoms: C11_18  and  N1_5 
REMARK    1  A    between atoms: C2_9  and  N1_5 
REMARK    2  A    between atoms: C11_18  and  C5_12 
ROOT
HETATM    1  O2  UNK     1      17.615   3.302  32.905  1.00  0.00    -0.267 OA
HETATM    2  N1  UNK     1      18.794   4.796  31.517  1.00  0.00    -0.323 N 
HETATM    3  C11 UNK     1      18.311   3.559  31.924  1.00  0.00     0.262 C 
HETATM    4  H5  UNK     1      19.358   4.828  30.671  1.00  0.00     0.169 HD
ENDROOT
BRANCH   3   5
HETATM    5  C5  UNK     1      18.726   2.480  31.021  1.00  0.00     0.108 A 
HETATM    6  C14 UNK     1      18.664   2.620  29.548  1.00  0.00     0.304 A 
HETATM    7  O1  UNK     1      19.087   1.526  28.798  1.00  0.00    -0.274 OA
HETATM    8  O3  UNK     1      18.261   3.646  29.012  1.00  0.00    -0.259 OA
HETATM    9  C7  UNK     1      19.551   0.343  29.405  1.00  0.00     0.089 A 
HETATM   10  C15 UNK     1      19.953  -0.699  28.571  1.00  0.00     0.040 A 
HETATM   11  C4  UNK     1      19.602   0.233  30.791  1.00  0.00     0.001 A 
HETATM   12  C17 UNK     1      20.417  -1.881  29.142  1.00  0.00     0.026 A 
HETATM   13  C16 UNK     1      20.474  -2.011  30.531  1.00  0.00     0.035 A 
HETATM   14  C12 UNK     1      20.068  -0.958  31.356  1.00  0.00     0.038 A 
HETATM   15 Cl1  UNK     1      21.049  -3.475  31.232  1.00  0.00    -0.084 Cl
HETATM   16  C8  UNK     1      19.167   1.359  31.603  1.00  0.00     0.037 A 
ENDBRANCH   3   5
BRANCH   2  17
HETATM   17  C2  UNK     1      18.591   6.051  32.144  1.00  0.00     0.035 A 
HETATM   18  C6  UNK     1      17.377   6.724  31.961  1.00  0.00     0.044 A 
HETATM   19  C1  UNK     1      17.198   7.967  32.591  1.00  0.00     0.013 A 
HETATM   20  C3  UNK     1      18.224   8.488  33.373  1.00  0.00     0.062 A 
HETATM   21  C13 UNK     1      16.174   8.936  32.667  1.00  0.00     0.152 A 
HETATM   22  C10 UNK     1      19.441   7.833  33.568  1.00  0.00     0.034 A 
HETATM   23  N2  UNK     1      17.749   9.686  33.837  1.00  0.00    -0.278 N 
HETATM   24  C9  UNK     1      19.604   6.597  32.934  1.00  0.00     0.032 A 
HETATM   25  H8  UNK     1      18.223  10.346  34.440  1.00  0.00     0.189 HD
HETATM   26  N3  UNK     1      16.505   9.983  33.424  1.00  0.00    -0.186 NA
ENDBRANCH   2  17
TORSDOF 2
ENDMDL
MODEL 2
REMARK VINA RESULT:      -9.7      4.115      8.965
REMARK  2 active torsions:
REMARK  status: ('A' for Active; 'I' for Inactive)
REMARK       I    between atoms: C11_18  and  N1_5 
REMARK    1  A    between atoms: C2_9  and  N1_5 
REMARK    2  A    between atoms: C11_18  and  C5_12 
ROOT
HETATM    1  O2  UNK     1      19.214   5.445  30.342  1.00  0.00    -0.267 OA
HETATM    2  N1  UNK     1      18.045   3.670  31.355  1.00  0.00    -0.323 N 
HETATM    3  C11 UNK     1      18.461   4.985  31.198  1.00  0.00     0.262 C 
HETATM    4  H5  UNK     1      17.411   3.463  32.125  1.00  0.00     0.169 HD
ENDROOT
BRANCH   3   5
HETATM    5  C5  UNK     1      17.888   5.871  32.218  1.00  0.00     0.108 A 
HETATM    6  C14 UNK     1      18.187   5.709  33.659  1.00  0.00     0.304 A 
HETATM    7  O1  UNK     1      17.584   6.613  34.529  1.00  0.00    -0.274 OA
HETATM    8  O3  UNK     1      18.928   4.823  34.070  1.00  0.00    -0.259 OA
HETATM    9  C7  UNK     1      16.731   7.633  34.065  1.00  0.00     0.089 A 
HETATM   10  C15 UNK     1      16.172   8.491  35.011  1.00  0.00     0.040 A 
HETATM   11  C4  UNK     1      16.463   7.769  32.706  1.00  0.00     0.001 A 
HETATM   12  C17 UNK     1      15.325   9.510  34.583  1.00  0.00     0.026 A 
HETATM   13  C16 UNK     1      15.045   9.661  33.224  1.00  0.00     0.035 A 
HETATM   14  C12 UNK     1      15.611   8.793  32.285  1.00  0.00     0.038 A 
HETATM   15 Cl1  UNK     1      13.996  10.923  32.700  1.00  0.00    -0.084 Cl
HETATM   16  C8  UNK     1      17.079   6.839  31.772  1.00  0.00     0.037 A 
ENDBRANCH   3   5
BRANCH   2  17
HETATM   17  C2  UNK     1      18.395   2.552  30.559  1.00  0.00     0.035 A 
HETATM   18  C6  UNK     1      19.242   1.569  31.085  1.00  0.00     0.044 A 
HETATM   19  C1  UNK     1      19.577   0.469  30.278  1.00  0.00     0.013 A 
HETATM   20  C3  UNK     1      19.061   0.388  28.989  1.00  0.00     0.062 A 
HETATM   21  C13 UNK     1      20.365  -0.694  30.412  1.00  0.00     0.152 A 
HETATM   22  C10 UNK     1      18.215   1.357  28.445  1.00  0.00     0.034 A 
HETATM   23  N2  UNK     1      19.564  -0.775  28.472  1.00  0.00    -0.278 N 
HETATM   24  C9  UNK     1      17.891   2.446  29.261  1.00  0.00     0.032 A 
HETATM   25  H8  UNK     1      19.402  -1.163  27.552  1.00  0.00     0.189 HD
HETATM   26  N3  UNK     1      20.359  -1.454  29.316  1.00  0.00    -0.186 NA
ENDBRANCH   2  17
TORSDOF 2
ENDMDL
MODEL 3
REMARK VINA RESULT:      -9.7      8.998     12.682
REMARK  2 active torsions:
REMARK  status: ('A' for Active; 'I' for Inactive)
REMARK       I    between atoms: C11_18  and  N1_5 
REMARK    1  A    between atoms: C2_9  and  N1_5 
REMARK    2  A    between atoms: C11_18  and  C5_12 
ROOT
HETATM    1  O2  UNK     1      21.493  -4.393  37.189  1.00  0.00    -0.267 OA
HETATM    2  N1  UNK     1      19.315  -5.285  37.094  1.00  0.00    -0.323 N 
HETATM    3  C11 UNK     1      20.300  -4.325  36.899  1.00  0.00     0.262 C 
HETATM    4  H5  UNK     1      18.371  -5.061  36.788  1.00  0.00     0.169 HD
ENDROOT
BRANCH   3   5
HETATM    5  C5  UNK     1      19.772  -3.113  36.264  1.00  0.00     0.108 A 
HETATM    6  C14 UNK     1      20.030  -2.794  34.842  1.00  0.00     0.304 A 
HETATM    7  O1  UNK     1      19.474  -1.614  34.354  1.00  0.00    -0.274 OA
HETATM    8  O3  UNK     1      20.700  -3.528  34.125  1.00  0.00    -0.259 OA
HETATM    9  C7  UNK     1      18.703  -0.764  35.170  1.00  0.00     0.089 A 
HETATM   10  C15 UNK     1      18.188   0.395  34.593  1.00  0.00     0.040 A 
HETATM   11  C4  UNK     1      18.472  -1.082  36.505  1.00  0.00     0.001 A 
HETATM   12  C17 UNK     1      17.421   1.257  35.375  1.00  0.00     0.026 A 
HETATM   13  C16 UNK     1      17.179   0.954  36.716  1.00  0.00     0.035 A 
HETATM   14  C12 UNK     1      17.702  -0.212  37.282  1.00  0.00     0.038 A 
HETATM   15 Cl1  UNK     1      16.230   2.022  37.678  1.00  0.00    -0.084 Cl
HETATM   16  C8  UNK     1      19.039  -2.308  37.044  1.00  0.00     0.037 A 
ENDBRANCH   3   5
BRANCH   2  17
HETATM   17  C2  UNK     1      19.463  -6.569  37.675  1.00  0.00     0.035 A 
HETATM   18  C6  UNK     1      19.192  -7.708  36.907  1.00  0.00     0.044 A 
HETATM   19  C1  UNK     1      19.344  -8.971  37.503  1.00  0.00     0.013 A 
HETATM   20  C3  UNK     1      19.758  -9.053  38.828  1.00  0.00     0.062 A 
HETATM   21  C13 UNK     1      19.182 -10.315  37.103  1.00  0.00     0.152 A 
HETATM   22  C10 UNK     1      20.035  -7.930  39.610  1.00  0.00     0.034 A 
HETATM   23  N2  UNK     1      19.809 -10.393  39.106  1.00  0.00    -0.278 N 
HETATM   24  C9  UNK     1      19.878  -6.680  39.003  1.00  0.00     0.032 A 
HETATM   25  H8  UNK     1      20.072 -10.832  39.979  1.00  0.00     0.189 HD
HETATM   26  N3  UNK     1      19.464 -11.183  38.076  1.00  0.00    -0.186 NA
ENDBRANCH   2  17
TORSDOF 2
ENDMDL
MODEL 4
REMARK VINA RESULT:      -9.1     14.013     16.746
REMARK  2 active torsions:
REMARK  status: ('A' for Active; 'I' for Inactive)
REMARK       I    between atoms: C11_18  and  N1_5 
REMARK    1  A    between atoms: C2_9  and  N1_5 
REMARK    2  A    between atoms: C11_18  and  C5_12 
ROOT
HETATM    1  O2  UNK     1      16.928  -2.089  16.660  1.00  0.00    -0.267 OA
HETATM    2  N1  UNK     1      19.040  -1.096  16.344  1.00  0.00    -0.323 N 
HETATM    3  C11 UNK     1      17.999  -1.972  16.067  1.00  0.00     0.262 C 
HETATM    4  H5  UNK     1      19.860  -1.132  15.743  1.00  0.00     0.169 HD
ENDROOT
BRANCH   3   5
HETATM    5  C5  UNK     1      18.289  -2.826  14.909  1.00  0.00     0.108 A 
HETATM    6  C14 UNK     1      18.889  -2.290  13.667  1.00  0.00     0.304 A 
HETATM    7  O1  UNK     1      19.118  -3.201  12.639  1.00  0.00    -0.274 OA
HETATM    8  O3  UNK     1      19.173  -1.104  13.545  1.00  0.00    -0.259 OA
HETATM    9  C7  UNK     1      18.796  -4.566  12.771  1.00  0.00     0.089 A 
HETATM   10  C15 UNK     1      19.061  -5.401  11.687  1.00  0.00     0.040 A 
HETATM   11  C4  UNK     1      18.232  -5.049  13.947  1.00  0.00     0.001 A 
HETATM   12  C17 UNK     1      18.753  -6.756  11.787  1.00  0.00     0.026 A 
HETATM   13  C16 UNK     1      18.187  -7.259  12.959  1.00  0.00     0.035 A 
HETATM   14  C12 UNK     1      17.925  -6.410  14.038  1.00  0.00     0.038 A 
HETATM   15 Cl1  UNK     1      17.808  -8.935  13.077  1.00  0.00    -0.084 Cl
HETATM   16  C8  UNK     1      17.981  -4.122  15.040  1.00  0.00     0.037 A 
ENDBRANCH   3   5
BRANCH   2  17
HETATM   17  C2  UNK     1      19.105  -0.133  17.381  1.00  0.00     0.035 A 
HETATM   18  C6  UNK     1      19.280  -0.556  18.704  1.00  0.00     0.044 A 
HETATM   19  C1  UNK     1      19.341   0.416  19.717  1.00  0.00     0.013 A 
HETATM   20  C3  UNK     1      19.228   1.760  19.378  1.00  0.00     0.062 A 
HETATM   21  C13 UNK     1      19.502   0.421  21.119  1.00  0.00     0.152 A 
HETATM   22  C10 UNK     1      19.054   2.203  18.065  1.00  0.00     0.034 A 
HETATM   23  N2  UNK     1      19.326   2.439  20.563  1.00  0.00    -0.278 N 
HETATM   24  C9  UNK     1      18.995   1.223  17.069  1.00  0.00     0.032 A 
HETATM   25  H8  UNK     1      19.287   3.440  20.706  1.00  0.00     0.189 HD
HETATM   26  N3  UNK     1      19.493   1.650  21.638  1.00  0.00    -0.186 NA
ENDBRANCH   2  17
TORSDOF 2
ENDMDL
MODEL 5
REMARK VINA RESULT:      -9.1     14.655     18.723
REMARK  2 active torsions:
REMARK  status: ('A' for Active; 'I' for Inactive)
REMARK       I    between atoms: C11_18  and  N1_5 
REMARK    1  A    between atoms: C2_9  and  N1_5 
REMARK    2  A    between atoms: C11_18  and  C5_12 
ROOT
HETATM    1  O2  UNK     1      20.222  -3.420  14.921  1.00  0.00    -0.267 OA
HETATM    2  N1  UNK     1      17.956  -3.540  15.552  1.00  0.00    -0.323 N 
HETATM    3  C11 UNK     1      19.186  -2.924  15.361  1.00  0.00     0.262 C 
HETATM    4  H5  UNK     1      17.198  -2.974  15.927  1.00  0.00     0.169 HD
ENDROOT
BRANCH   3   5
HETATM    5  C5  UNK     1      19.163  -1.511  15.754  1.00  0.00     0.108 A 
HETATM    6  C14 UNK     1      19.228  -0.417  14.758  1.00  0.00     0.304 A 
HETATM    7  O1  UNK     1      19.197   0.883  15.255  1.00  0.00    -0.274 OA
HETATM    8  O3  UNK     1      19.304  -0.640  13.555  1.00  0.00    -0.259 OA
HETATM    9  C7  UNK     1      19.110   1.149  16.636  1.00  0.00     0.089 A 
HETATM   10  C15 UNK     1      19.086   2.484  17.038  1.00  0.00     0.040 A 
HETATM   11  C4  UNK     1      19.050   0.106  17.554  1.00  0.00     0.001 A 
HETATM   12  C17 UNK     1      19.000   2.778  18.396  1.00  0.00     0.026 A 
HETATM   13  C16 UNK     1      18.940   1.745  19.333  1.00  0.00     0.035 A 
HETATM   14  C12 UNK     1      18.965   0.411  18.915  1.00  0.00     0.038 A 
HETATM   15 Cl1  UNK     1      18.833   2.115  21.012  1.00  0.00    -0.084 Cl
HETATM   16  C8  UNK     1      19.080  -1.264  17.066  1.00  0.00     0.037 A 
ENDBRANCH   3   5
BRANCH   2  17
HETATM   17  C2  UNK     1      17.614  -4.888  15.283  1.00  0.00     0.035 A 
HETATM   18  C6  UNK     1      17.924  -5.441  14.034  1.00  0.00     0.044 A 
HETATM   19  C1  UNK     1      17.575  -6.780  13.787  1.00  0.00     0.013 A 
HETATM   20  C3  UNK     1      16.938  -7.512  14.784  1.00  0.00     0.062 A 
HETATM   21  C13 UNK     1      17.698  -7.686  12.713  1.00  0.00     0.152 A 
HETATM   22  C10 UNK     1      16.621  -6.980  16.035  1.00  0.00     0.034 A 
HETATM   23  N2  UNK     1      16.736  -8.754  14.245  1.00  0.00    -0.278 N 
HETATM   24  C9  UNK     1      16.974  -5.646  16.265  1.00  0.00     0.032 A 
HETATM   25  H8  UNK     1      16.298  -9.553  14.683  1.00  0.00     0.189 HD
HETATM   26  N3  UNK     1      17.189  -8.888  12.987  1.00  0.00    -0.186 NA
ENDBRANCH   2  17
TORSDOF 2
ENDMDL
MODEL 6
REMARK VINA RESULT:      -9.1      7.784      9.816
REMARK  2 active torsions:
REMARK  status: ('A' for Active; 'I' for Inactive)
REMARK       I    between atoms: C11_18  and  N1_5 
REMARK    1  A    between atoms: C2_9  and  N1_5 
REMARK    2  A    between atoms: C11_18  and  C5_12 
ROOT
HETATM    1  O2  UNK     1      20.539  -3.756  35.366  1.00  0.00    -0.267 OA
HETATM    2  N1  UNK     1      18.632  -3.483  36.721  1.00  0.00    -0.323 N 
HETATM    3  C11 UNK     1      19.629  -4.195  36.068  1.00  0.00     0.262 C 
HETATM    4  H5  UNK     1      17.955  -4.011  37.268  1.00  0.00     0.169 HD
ENDROOT
BRANCH   3   5
HETATM    5  C5  UNK     1      19.516  -5.640  36.295  1.00  0.00     0.108 A 
HETATM    6  C14 UNK     1      18.241  -6.274  36.702  1.00  0.00     0.304 A 
HETATM    7  O1  UNK     1      18.260  -7.654  36.885  1.00  0.00    -0.274 OA
HETATM    8  O3  UNK     1      17.218  -5.621  36.869  1.00  0.00    -0.259 OA
HETATM    9  C7  UNK     1      19.431  -8.413  36.695  1.00  0.00     0.089 A 
HETATM   10  C15 UNK     1      19.352  -9.788  36.904  1.00  0.00     0.040 A 
HETATM   11  C4  UNK     1      20.619  -7.797  36.313  1.00  0.00     0.001 A 
HETATM   12  C17 UNK     1      20.494 -10.566  36.724  1.00  0.00     0.026 A 
HETATM   13  C16 UNK     1      21.695  -9.965  36.341  1.00  0.00     0.035 A 
HETATM   14  C12 UNK     1      21.760  -8.584  36.136  1.00  0.00     0.038 A 
HETATM   15 Cl1  UNK     1      23.104 -10.931  36.119  1.00  0.00    -0.084 Cl
HETATM   16  C8  UNK     1      20.631  -6.356  36.113  1.00  0.00     0.037 A 
ENDBRANCH   3   5
BRANCH   2  17
HETATM   17  C2  UNK     1      18.434  -2.080  36.725  1.00  0.00     0.035 A 
HETATM   18  C6  UNK     1      18.587  -1.358  35.535  1.00  0.00     0.044 A 
HETATM   19  C1  UNK     1      18.386   0.032  35.562  1.00  0.00     0.013 A 
HETATM   20  C3  UNK     1      18.043   0.647  36.761  1.00  0.00     0.062 A 
HETATM   21  C13 UNK     1      18.437   1.090  34.629  1.00  0.00     0.152 A 
HETATM   22  C10 UNK     1      17.884  -0.054  37.958  1.00  0.00     0.034 A 
HETATM   23  N2  UNK     1      17.921   1.977  36.461  1.00  0.00    -0.278 N 
HETATM   24  C9  UNK     1      18.088  -1.437  37.915  1.00  0.00     0.032 A 
HETATM   25  H8  UNK     1      17.680   2.732  37.090  1.00  0.00     0.189 HD
HETATM   26  N3  UNK     1      18.155   2.275  35.172  1.00  0.00    -0.186 NA
ENDBRANCH   2  17
TORSDOF 2
ENDMDL
MODEL 7
REMARK VINA RESULT:      -9.0      8.215     10.082
REMARK  2 active torsions:
REMARK  status: ('A' for Active; 'I' for Inactive)
REMARK       I    between atoms: C11_18  and  N1_5 
REMARK    1  A    between atoms: C2_9  and  N1_5 
REMARK    2  A    between atoms: C11_18  and  C5_12 
ROOT
HETATM    1  O2  UNK     1      20.961  -3.606  37.748  1.00  0.00    -0.267 OA
HETATM    2  N1  UNK     1      18.905  -3.466  36.609  1.00  0.00    -0.323 N 
HETATM    3  C11 UNK     1      20.014  -4.107  37.144  1.00  0.00     0.262 C 
HETATM    4  H5  UNK     1      18.208  -4.040  36.139  1.00  0.00     0.169 HD
ENDROOT
BRANCH   3   5
HETATM    5  C5  UNK     1      19.976  -5.556  36.920  1.00  0.00     0.108 A 
HETATM    6  C14 UNK     1      20.130  -6.148  35.571  1.00  0.00     0.304 A 
HETATM    7  O1  UNK     1      20.077  -7.536  35.487  1.00  0.00    -0.274 OA
HETATM    8  O3  UNK     1      20.296  -5.453  34.575  1.00  0.00    -0.259 OA
HETATM    9  C7  UNK     1      19.887  -8.342  36.627  1.00  0.00     0.089 A 
HETATM   10  C15 UNK     1      19.847  -9.723  36.443  1.00  0.00     0.040 A 
HETATM   11  C4  UNK     1      19.744  -7.766  37.885  1.00  0.00     0.001 A 
HETATM   12  C17 UNK     1      19.660 -10.547  37.551  1.00  0.00     0.026 A 
HETATM   13  C16 UNK     1      19.515  -9.987  38.822  1.00  0.00     0.035 A 
HETATM   14  C12 UNK     1      19.556  -8.600  38.991  1.00  0.00     0.038 A 
HETATM   15 Cl1  UNK     1      19.284 -11.010  40.188  1.00  0.00    -0.084 Cl
HETATM   16  C8  UNK     1      19.796  -6.317  38.005  1.00  0.00     0.037 A 
ENDBRANCH   3   5
BRANCH   2  17
HETATM   17  C2  UNK     1      18.610  -2.080  36.638  1.00  0.00     0.035 A 
HETATM   18  C6  UNK     1      18.805  -1.310  35.485  1.00  0.00     0.044 A 
HETATM   19  C1  UNK     1      18.508   0.062  35.536  1.00  0.00     0.013 A 
HETATM   20  C3  UNK     1      18.030   0.611  36.721  1.00  0.00     0.062 A 
HETATM   21  C13 UNK     1      18.558   1.152  34.641  1.00  0.00     0.152 A 
HETATM   22  C10 UNK     1      17.827  -0.139  37.881  1.00  0.00     0.034 A 
HETATM   23  N2  UNK     1      17.840   1.940  36.451  1.00  0.00    -0.278 N 
HETATM   24  C9  UNK     1      18.129  -1.503  37.815  1.00  0.00     0.032 A 
HETATM   25  H8  UNK     1      17.499   2.655  37.080  1.00  0.00     0.189 HD
HETATM   26  N3  UNK     1      18.152   2.297  35.194  1.00  0.00    -0.186 NA
ENDBRANCH   2  17
TORSDOF 2
ENDMDL
MODEL 8
REMARK VINA RESULT:      -8.9      8.536     12.339
REMARK  2 active torsions:
REMARK  status: ('A' for Active; 'I' for Inactive)
REMARK       I    between atoms: C11_18  and  N1_5 
REMARK    1  A    between atoms: C2_9  and  N1_5 
REMARK    2  A    between atoms: C11_18  and  C5_12 
ROOT
HETATM    1  O2  UNK     1      21.490  -4.349  37.185  1.00  0.00    -0.267 OA
HETATM    2  N1  UNK     1      19.340  -5.294  37.010  1.00  0.00    -0.323 N 
HETATM    3  C11 UNK     1      20.313  -4.320  36.830  1.00  0.00     0.262 C 
HETATM    4  H5  UNK     1      18.408  -5.104  36.646  1.00  0.00     0.169 HD
ENDROOT
BRANCH   3   5
HETATM    5  C5  UNK     1      19.795  -3.145  36.120  1.00  0.00     0.108 A 
HETATM    6  C14 UNK     1      18.988  -2.107  36.802  1.00  0.00     0.304 A 
HETATM    7  O1  UNK     1      18.555  -1.039  36.022  1.00  0.00    -0.274 OA
HETATM    8  O3  UNK     1      18.715  -2.180  37.995  1.00  0.00    -0.259 OA
HETATM    9  C7  UNK     1      18.864  -0.947  34.651  1.00  0.00     0.089 A 
HETATM   10  C15 UNK     1      18.385   0.159  33.952  1.00  0.00     0.040 A 
HETATM   11  C4  UNK     1      19.623  -1.933  34.029  1.00  0.00     0.001 A 
HETATM   12  C17 UNK     1      18.675   0.278  32.594  1.00  0.00     0.026 A 
HETATM   13  C16 UNK     1      19.435  -0.702  31.953  1.00  0.00     0.035 A 
HETATM   14  C12 UNK     1      19.909  -1.807  32.667  1.00  0.00     0.038 A 
HETATM   15 Cl1  UNK     1      19.790  -0.550  30.275  1.00  0.00    -0.084 Cl
HETATM   16  C8  UNK     1      20.092  -3.062  34.818  1.00  0.00     0.037 A 
ENDBRANCH   3   5
BRANCH   2  17
HETATM   17  C2  UNK     1      19.483  -6.550  37.648  1.00  0.00     0.035 A 
HETATM   18  C6  UNK     1      19.195  -7.722  36.936  1.00  0.00     0.044 A 
HETATM   19  C1  UNK     1      19.342  -8.957  37.588  1.00  0.00     0.013 A 
HETATM   20  C3  UNK     1      19.769  -8.981  38.912  1.00  0.00     0.062 A 
HETATM   21  C13 UNK     1      19.166 -10.317  37.253  1.00  0.00     0.152 A 
HETATM   22  C10 UNK     1      20.063  -7.826  39.639  1.00  0.00     0.034 A 
HETATM   23  N2  UNK     1      19.812 -10.307  39.252  1.00  0.00    -0.278 N 
HETATM   24  C9  UNK     1      19.910  -6.604  38.976  1.00  0.00     0.032 A 
HETATM   25  H8  UNK     1      20.080 -10.708  40.141  1.00  0.00     0.189 HD
HETATM   26  N3  UNK     1      19.451 -11.141  38.262  1.00  0.00    -0.186 NA
ENDBRANCH   2  17
TORSDOF 2
ENDMDL
MODEL 9
REMARK VINA RESULT:      -8.9     14.925     16.352
REMARK  2 active torsions:
REMARK  status: ('A' for Active; 'I' for Inactive)
REMARK       I    between atoms: C11_18  and  N1_5 
REMARK    1  A    between atoms: C2_9  and  N1_5 
REMARK    2  A    between atoms: C11_18  and  C5_12 
ROOT
HETATM    1  O2  UNK     1      26.167  -9.106  39.466  1.00  0.00    -0.267 OA
HETATM    2  N1  UNK     1      24.775  -7.470  38.501  1.00  0.00    -0.323 N 
HETATM    3  C11 UNK     1      25.971  -8.000  38.967  1.00  0.00     0.262 C 
HETATM    4  H5  UNK     1      24.795  -6.529  38.111  1.00  0.00     0.169 HD
ENDROOT
BRANCH   3   5
HETATM    5  C5  UNK     1      27.089  -7.064  38.807  1.00  0.00     0.108 A 
HETATM    6  C14 UNK     1      26.894  -5.596  38.813  1.00  0.00     0.304 A 
HETATM    7  O1  UNK     1      28.033  -4.812  38.653  1.00  0.00    -0.274 OA
HETATM    8  O3  UNK     1      25.785  -5.091  38.951  1.00  0.00    -0.259 OA
HETATM    9  C7  UNK     1      29.311  -5.383  38.493  1.00  0.00     0.089 A 
HETATM   10  C15 UNK     1      30.392  -4.518  38.339  1.00  0.00     0.040 A 
HETATM   11  C4  UNK     1      29.473  -6.765  38.490  1.00  0.00     0.001 A 
HETATM   12  C17 UNK     1      31.668  -5.053  38.179  1.00  0.00     0.026 A 
HETATM   13  C16 UNK     1      31.850  -6.437  38.174  1.00  0.00     0.035 A 
HETATM   14  C12 UNK     1      30.756  -7.293  38.328  1.00  0.00     0.038 A 
HETATM   15 Cl1  UNK     1      33.431  -7.093  37.975  1.00  0.00    -0.084 Cl
HETATM   16  C8  UNK     1      28.301  -7.611  38.656  1.00  0.00     0.037 A 
ENDBRANCH   3   5
BRANCH   2  17
HETATM   17  C2  UNK     1      23.500  -8.088  38.495  1.00  0.00     0.035 A 
HETATM   18  C6  UNK     1      23.057  -8.743  37.340  1.00  0.00     0.044 A 
HETATM   19  C1  UNK     1      21.789  -9.348  37.356  1.00  0.00     0.013 A 
HETATM   20  C3  UNK     1      21.017  -9.282  38.511  1.00  0.00     0.062 A 
HETATM   21  C13 UNK     1      20.994 -10.079  36.446  1.00  0.00     0.152 A 
HETATM   22  C10 UNK     1      21.441  -8.635  39.674  1.00  0.00     0.034 A 
HETATM   23  N2  UNK     1      19.863  -9.953  38.211  1.00  0.00    -0.278 N 
HETATM   24  C9  UNK     1      22.705  -8.036  39.642  1.00  0.00     0.032 A 
HETATM   25  H8  UNK     1      19.065 -10.109  38.814  1.00  0.00     0.189 HD
HETATM   26  N3  UNK     1      19.822 -10.449  36.963  1.00  0.00    -0.186 NA
ENDBRANCH   2  17
TORSDOF 2
ENDMDL
MODEL 10
REMARK VINA RESULT:      -8.8     14.285     17.044
REMARK  2 active torsions:
REMARK  status: ('A' for Active; 'I' for Inactive)
REMARK       I    between atoms: C11_18  and  N1_5 
REMARK    1  A    between atoms: C2_9  and  N1_5 
REMARK    2  A    between atoms: C11_18  and  C5_12 
ROOT
HETATM    1  O2  UNK     1      16.983  -2.081  16.625  1.00  0.00    -0.267 OA
HETATM    2  N1  UNK     1      19.105  -1.091  16.371  1.00  0.00    -0.323 N 
HETATM    3  C11 UNK     1      18.072  -1.967  16.065  1.00  0.00     0.262 C 
HETATM    4  H5  UNK     1      19.943  -1.130  15.796  1.00  0.00     0.169 HD
ENDROOT
BRANCH   3   5
HETATM    5  C5  UNK     1      18.396  -2.825  14.920  1.00  0.00     0.108 A 
HETATM    6  C14 UNK     1      17.957  -4.237  14.845  1.00  0.00     0.304 A 
HETATM    7  O1  UNK     1      18.326  -4.948  13.707  1.00  0.00    -0.274 OA
HETATM    8  O3  UNK     1      17.300  -4.758  15.739  1.00  0.00    -0.259 OA
HETATM    9  C7  UNK     1      19.081  -4.357  12.675  1.00  0.00     0.089 A 
HETATM   10  C15 UNK     1      19.403  -5.149  11.574  1.00  0.00     0.040 A 
HETATM   11  C4  UNK     1      19.484  -3.029  12.764  1.00  0.00     0.001 A 
HETATM   12  C17 UNK     1      20.149  -4.593  10.537  1.00  0.00     0.026 A 
HETATM   13  C16 UNK     1      20.563  -3.262  10.610  1.00  0.00     0.035 A 
HETATM   14  C12 UNK     1      20.233  -2.479  11.720  1.00  0.00     0.038 A 
HETATM   15 Cl1  UNK     1      21.485  -2.580   9.324  1.00  0.00    -0.084 Cl
HETATM   16  C8  UNK     1      19.113  -2.259  13.942  1.00  0.00     0.037 A 
ENDBRANCH   3   5
BRANCH   2  17
HETATM   17  C2  UNK     1      19.139  -0.125  17.407  1.00  0.00     0.035 A 
HETATM   18  C6  UNK     1      19.339  -0.539  18.730  1.00  0.00     0.044 A 
HETATM   19  C1  UNK     1      19.369   0.436  19.741  1.00  0.00     0.013 A 
HETATM   20  C3  UNK     1      19.202   1.774  19.401  1.00  0.00     0.062 A 
HETATM   21  C13 UNK     1      19.538   0.449  21.142  1.00  0.00     0.152 A 
HETATM   22  C10 UNK     1      19.003   2.208  18.089  1.00  0.00     0.034 A 
HETATM   23  N2  UNK     1      19.281   2.458  20.585  1.00  0.00    -0.278 N 
HETATM   24  C9  UNK     1      18.975   1.226  17.094  1.00  0.00     0.032 A 
HETATM   25  H8  UNK     1      19.204   3.457  20.727  1.00  0.00     0.189 HD
HETATM   26  N3  UNK     1      19.485   1.677  21.660  1.00  0.00    -0.186 NA
ENDBRANCH   2  17
TORSDOF 2
ENDMDL
