MODEL 1
REMARK VINA RESULT:      -9.9      0.000      0.000
REMARK  5 active torsions:
REMARK  status: ('A' for Active; 'I' for Inactive)
REMARK    1  A    between atoms: C5_12  and  N1_5 
REMARK    2  A    between atoms: C6_13  and  N2_6 
REMARK    3  A    between atoms: C5_12  and  C7_14 
REMARK    4  A    between atoms: C6_13  and  C8_15 
REMARK    5  A    between atoms: C14_21  and  C20_27 
ROOT
HETATM    1  N1  UNK     1      19.788  -4.369  36.570  1.00  0.00     0.096 N 
HETATM    2  N2  UNK     1      18.768  -1.690  36.196  1.00  0.00     0.097 N 
HETATM    3  C1  UNK     1      18.377  -4.049  36.816  1.00  0.00     0.303 C 
HETATM    4  C2  UNK     1      20.344  -3.479  35.544  1.00  0.00     0.303 C 
HETATM    5  C3  UNK     1      18.213  -2.581  37.222  1.00  0.00     0.303 C 
HETATM    6  C4  UNK     1      20.179  -2.010  35.949  1.00  0.00     0.303 C 
ENDROOT
BRANCH   2   7
HETATM    7  C6  UNK     1      18.614  -0.290  36.586  1.00  0.00     0.334 C 
BRANCH   7   8
HETATM    8  C8  UNK     1      18.079   0.488  35.427  1.00  0.00     0.095 A 
HETATM    9  C10 UNK     1      16.859   0.383  34.805  1.00  0.00     0.078 A 
HETATM   10  O1  UNK     1      16.822   1.299  33.798  1.00  0.00    -0.294 OA
HETATM   11  C16 UNK     1      15.669  -0.454  34.991  1.00  0.00     0.079 C 
HETATM   12  C14 UNK     1      18.037   1.908  33.875  1.00  0.00     0.180 A 
HETATM   13  N3  UNK     1      18.829   1.466  34.826  1.00  0.00    -0.224 NA
BRANCH  12  14
HETATM   14  C20 UNK     1      18.267   2.939  32.903  1.00  0.00     0.017 A 
HETATM   15  C22 UNK     1      18.480   2.603  31.566  1.00  0.00     0.017 A 
HETATM   16  C24 UNK     1      18.705   3.606  30.622  1.00  0.00     0.025 A 
HETATM   17  C26 UNK     1      18.716   4.944  31.016  1.00  0.00     0.034 A 
HETATM   18  C25 UNK     1      18.502   5.281  32.352  1.00  0.00     0.025 A 
HETATM   19 Cl1  UNK     1      18.992   6.180  29.851  1.00  0.00    -0.084 Cl
HETATM   20  C23 UNK     1      18.278   4.278  33.296  1.00  0.00     0.017 A 
ENDBRANCH  12  14
ENDBRANCH   7   8
ENDBRANCH   2   7
BRANCH   1  21
HETATM   21  C5  UNK     1      19.944  -5.769  36.183  1.00  0.00     0.312 C 
BRANCH  21  22
HETATM   22  C7  UNK     1      21.049  -6.438  36.924  1.00  0.00    -0.011 A 
HETATM   23  C11 UNK     1      21.617  -5.860  37.992  1.00  0.00     0.092 A 
HETATM   24  C15 UNK     1      22.711  -6.483  38.755  1.00  0.00     0.288 A 
HETATM   25  O2  UNK     1      23.146  -7.725  38.319  1.00  0.00    -0.275 OA
HETATM   26  O3  UNK     1      23.206  -5.925  39.728  1.00  0.00    -0.260 OA
HETATM   27  C12 UNK     1      22.570  -8.357  37.200  1.00  0.00     0.090 A 
HETATM   28  C9  UNK     1      21.532  -7.753  36.486  1.00  0.00     0.006 A 
HETATM   29  C17 UNK     1      23.087  -9.606  36.851  1.00  0.00     0.045 A 
HETATM   30  C13 UNK     1      21.012  -8.448  35.385  1.00  0.00     0.015 A 
HETATM   31  C18 UNK     1      21.522  -9.700  35.023  1.00  0.00     0.007 A 
HETATM   32  C19 UNK     1      22.558 -10.278  35.755  1.00  0.00    -0.059 A 
HETATM   33  C21 UNK     1      23.095 -11.613  35.364  1.00  0.00     0.048 C 
ENDBRANCH  21  22
ENDBRANCH   1  21
TORSDOF 5
ENDMDL
MODEL 2
REMARK VINA RESULT:      -9.7      5.258     13.381
REMARK  5 active torsions:
REMARK  status: ('A' for Active; 'I' for Inactive)
REMARK    1  A    between atoms: C5_12  and  N1_5 
REMARK    2  A    between atoms: C6_13  and  N2_6 
REMARK    3  A    between atoms: C5_12  and  C7_14 
REMARK    4  A    between atoms: C6_13  and  C8_15 
REMARK    5  A    between atoms: C14_21  and  C20_27 
ROOT
HETATM    1  N1  UNK     1      18.083   5.600  31.507  1.00  0.00     0.096 N 
HETATM    2  N2  UNK     1      18.972   3.029  30.527  1.00  0.00     0.097 N 
HETATM    3  C1  UNK     1      18.057   4.408  32.363  1.00  0.00     0.303 C 
HETATM    4  C2  UNK     1      19.157   5.494  30.512  1.00  0.00     0.303 C 
HETATM    5  C3  UNK     1      17.898   3.136  31.523  1.00  0.00     0.303 C 
HETATM    6  C4  UNK     1      18.999   4.221  29.672  1.00  0.00     0.303 C 
ENDROOT
BRANCH   2   7
HETATM    7  C6  UNK     1      18.817   1.817  29.725  1.00  0.00     0.334 C 
BRANCH   7   8
HETATM    8  C8  UNK     1      19.271   0.637  30.521  1.00  0.00     0.095 A 
HETATM    9  C10 UNK     1      20.016  -0.443  30.118  1.00  0.00     0.078 A 
HETATM   10  O1  UNK     1      20.182  -1.263  31.193  1.00  0.00    -0.294 OA
HETATM   11  C16 UNK     1      20.629  -0.866  28.854  1.00  0.00     0.079 C 
HETATM   12  C14 UNK     1      19.518  -0.619  32.191  1.00  0.00     0.180 A 
HETATM   13  N3  UNK     1      18.956   0.519  31.851  1.00  0.00    -0.224 NA
BRANCH  12  14
HETATM   14  C20 UNK     1      19.536  -1.282  33.464  1.00  0.00     0.017 A 
HETATM   15  C22 UNK     1      18.743  -0.807  34.509  1.00  0.00     0.017 A 
HETATM   16  C24 UNK     1      18.760  -1.452  35.747  1.00  0.00     0.025 A 
HETATM   17  C26 UNK     1      19.571  -2.570  35.938  1.00  0.00     0.034 A 
HETATM   18  C25 UNK     1      20.364  -3.046  34.894  1.00  0.00     0.025 A 
HETATM   19 Cl1  UNK     1      19.592  -3.365  37.464  1.00  0.00    -0.084 Cl
HETATM   20  C23 UNK     1      20.346  -2.402  33.657  1.00  0.00     0.017 A 
ENDBRANCH  12  14
ENDBRANCH   7   8
ENDBRANCH   2   7
BRANCH   1  21
HETATM   21  C5  UNK     1      18.236   6.811  32.308  1.00  0.00     0.312 C 
BRANCH  21  22
HETATM   22  C7  UNK     1      16.936   7.501  32.538  1.00  0.00    -0.011 A 
HETATM   23  C11 UNK     1      15.776   6.933  32.176  1.00  0.00     0.092 A 
HETATM   24  C15 UNK     1      14.468   7.577  32.384  1.00  0.00     0.288 A 
HETATM   25  O2  UNK     1      14.477   8.826  32.984  1.00  0.00    -0.275 OA
HETATM   26  O3  UNK     1      13.428   7.027  32.042  1.00  0.00    -0.260 OA
HETATM   27  C12 UNK     1      15.679   9.449  33.374  1.00  0.00     0.090 A 
HETATM   28  C9  UNK     1      16.912   8.826  33.171  1.00  0.00     0.006 A 
HETATM   29  C17 UNK     1      15.568  10.707  33.969  1.00  0.00     0.045 A 
HETATM   30  C13 UNK     1      18.062   9.511  33.588  1.00  0.00     0.015 A 
HETATM   31  C18 UNK     1      17.966  10.773  34.184  1.00  0.00     0.007 A 
HETATM   32  C19 UNK     1      16.720  11.370  34.375  1.00  0.00    -0.059 A 
HETATM   33  C21 UNK     1      16.627  12.715  35.012  1.00  0.00     0.048 C 
ENDBRANCH  21  22
ENDBRANCH   1  21
TORSDOF 5
ENDMDL
MODEL 3
REMARK VINA RESULT:      -9.5      6.548     15.155
REMARK  5 active torsions:
REMARK  status: ('A' for Active; 'I' for Inactive)
REMARK    1  A    between atoms: C5_12  and  N1_5 
REMARK    2  A    between atoms: C6_13  and  N2_6 
REMARK    3  A    between atoms: C5_12  and  C7_14 
REMARK    4  A    between atoms: C6_13  and  C8_15 
REMARK    5  A    between atoms: C14_21  and  C20_27 
ROOT
HETATM    1  N1  UNK     1      16.498   8.654  33.801  1.00  0.00     0.096 N 
HETATM    2  N2  UNK     1      17.581   6.226  32.668  1.00  0.00     0.097 N 
HETATM    3  C1  UNK     1      15.663   7.463  33.612  1.00  0.00     0.303 C 
HETATM    4  C2  UNK     1      17.898   8.270  34.020  1.00  0.00     0.303 C 
HETATM    5  C3  UNK     1      16.182   6.611  32.450  1.00  0.00     0.303 C 
HETATM    6  C4  UNK     1      18.417   7.417  32.858  1.00  0.00     0.303 C 
ENDROOT
BRANCH   2   7
HETATM    7  C6  UNK     1      18.077   5.416  31.556  1.00  0.00     0.334 C 
BRANCH   7   8
HETATM    8  C8  UNK     1      18.156   3.987  31.986  1.00  0.00     0.095 A 
HETATM    9  C10 UNK     1      18.311   2.860  31.217  1.00  0.00     0.078 A 
HETATM   10  O1  UNK     1      18.329   1.782  32.050  1.00  0.00    -0.294 OA
HETATM   11  C16 UNK     1      18.451   2.596  29.780  1.00  0.00     0.079 C 
HETATM   12  C14 UNK     1      18.183   2.333  33.286  1.00  0.00     0.180 A 
HETATM   13  N3  UNK     1      18.075   3.642  33.311  1.00  0.00    -0.224 NA
BRANCH  12  14
HETATM   14  C20 UNK     1      18.169   1.396  34.374  1.00  0.00     0.017 A 
HETATM   15  C22 UNK     1      18.270   0.029  34.118  1.00  0.00     0.017 A 
HETATM   16  C24 UNK     1      18.255  -0.882  35.176  1.00  0.00     0.025 A 
HETATM   17  C26 UNK     1      18.139  -0.424  36.488  1.00  0.00     0.034 A 
HETATM   18  C25 UNK     1      18.039   0.944  36.745  1.00  0.00     0.025 A 
HETATM   19 Cl1  UNK     1      18.122  -1.547  37.792  1.00  0.00    -0.084 Cl
HETATM   20  C23 UNK     1      18.053   1.854  35.687  1.00  0.00     0.017 A 
ENDBRANCH  12  14
ENDBRANCH   7   8
ENDBRANCH   2   7
BRANCH   1  21
HETATM   21  C5  UNK     1      16.003   9.466  34.910  1.00  0.00     0.312 C 
BRANCH  21  22
HETATM   22  C7  UNK     1      15.275  10.677  34.440  1.00  0.00    -0.011 A 
HETATM   23  C11 UNK     1      13.944  10.665  34.275  1.00  0.00     0.092 A 
HETATM   24  C15 UNK     1      13.182  11.838  33.813  1.00  0.00     0.288 A 
HETATM   25  O2  UNK     1      13.909  12.987  33.546  1.00  0.00    -0.275 OA
HETATM   26  O3  UNK     1      11.965  11.790  33.674  1.00  0.00    -0.260 OA
HETATM   27  C12 UNK     1      15.307  13.030  33.709  1.00  0.00     0.090 A 
HETATM   28  C9  UNK     1      16.017  11.910  34.148  1.00  0.00     0.006 A 
HETATM   29  C17 UNK     1      15.935  14.240  33.411  1.00  0.00     0.045 A 
HETATM   30  C13 UNK     1      17.406  12.034  34.286  1.00  0.00     0.015 A 
HETATM   31  C18 UNK     1      18.049  13.241  33.989  1.00  0.00     0.007 A 
HETATM   32  C19 UNK     1      17.315  14.343  33.553  1.00  0.00    -0.059 A 
HETATM   33  C21 UNK     1      18.007  15.625  33.240  1.00  0.00     0.048 C 
ENDBRANCH  21  22
ENDBRANCH   1  21
TORSDOF 5
ENDMDL
MODEL 4
REMARK VINA RESULT:      -9.5      6.578     15.178
REMARK  5 active torsions:
REMARK  status: ('A' for Active; 'I' for Inactive)
REMARK    1  A    between atoms: C5_12  and  N1_5 
REMARK    2  A    between atoms: C6_13  and  N2_6 
REMARK    3  A    between atoms: C5_12  and  C7_14 
REMARK    4  A    between atoms: C6_13  and  C8_15 
REMARK    5  A    between atoms: C14_21  and  C20_27 
ROOT
HETATM    1  N1  UNK     1      16.723   8.731  33.596  1.00  0.00     0.096 N 
HETATM    2  N2  UNK     1      17.677   6.213  32.545  1.00  0.00     0.097 N 
HETATM    3  C1  UNK     1      15.812   7.602  33.378  1.00  0.00     0.303 C 
HETATM    4  C2  UNK     1      18.078   8.248  33.890  1.00  0.00     0.303 C 
HETATM    5  C3  UNK     1      16.323   6.698  32.253  1.00  0.00     0.303 C 
HETATM    6  C4  UNK     1      18.589   7.342  32.765  1.00  0.00     0.303 C 
ENDROOT
BRANCH   2   7
HETATM    7  C6  UNK     1      18.165   5.353  31.469  1.00  0.00     0.334 C 
BRANCH   7   8
HETATM    8  C8  UNK     1      18.195   3.937  31.945  1.00  0.00     0.095 A 
HETATM    9  C10 UNK     1      18.277   2.779  31.212  1.00  0.00     0.078 A 
HETATM   10  O1  UNK     1      18.273   1.730  32.081  1.00  0.00    -0.294 OA
HETATM   11  C16 UNK     1      18.364   2.462  29.782  1.00  0.00     0.079 C 
HETATM   12  C14 UNK     1      18.187   2.328  33.301  1.00  0.00     0.180 A 
HETATM   13  N3  UNK     1      18.138   3.641  33.284  1.00  0.00    -0.224 NA
BRANCH  12  14
HETATM   14  C20 UNK     1      18.164   1.430  34.421  1.00  0.00     0.017 A 
HETATM   15  C22 UNK     1      18.182   0.051  34.210  1.00  0.00     0.017 A 
HETATM   16  C24 UNK     1      18.158  -0.822  35.299  1.00  0.00     0.025 A 
HETATM   17  C26 UNK     1      18.116  -0.314  36.598  1.00  0.00     0.034 A 
HETATM   18  C25 UNK     1      18.099   1.064  36.809  1.00  0.00     0.025 A 
HETATM   19 Cl1  UNK     1      18.088  -1.391  37.940  1.00  0.00    -0.084 Cl
HETATM   20  C23 UNK     1      18.123   1.936  35.721  1.00  0.00     0.017 A 
ENDBRANCH  12  14
ENDBRANCH   7   8
ENDBRANCH   2   7
BRANCH   1  21
HETATM   21  C5  UNK     1      16.235   9.593  34.670  1.00  0.00     0.312 C 
BRANCH  21  22
HETATM   22  C7  UNK     1      16.244  11.032  34.285  1.00  0.00    -0.011 A 
HETATM   23  C11 UNK     1      17.390  11.726  34.222  1.00  0.00     0.092 A 
HETATM   24  C15 UNK     1      17.447  13.148  33.846  1.00  0.00     0.288 A 
HETATM   25  O2  UNK     1      16.241  13.764  33.551  1.00  0.00    -0.275 OA
HETATM   26  O3  UNK     1      18.514  13.751  33.797  1.00  0.00    -0.260 OA
HETATM   27  C12 UNK     1      15.021  13.061  33.609  1.00  0.00     0.090 A 
HETATM   28  C9  UNK     1      14.982  11.712  33.967  1.00  0.00     0.006 A 
HETATM   29  C17 UNK     1      13.868  13.782  33.292  1.00  0.00     0.045 A 
HETATM   30  C13 UNK     1      13.729  11.085  34.001  1.00  0.00     0.015 A 
HETATM   31  C18 UNK     1      12.565  11.795  33.686  1.00  0.00     0.007 A 
HETATM   32  C19 UNK     1      12.634  13.142  33.332  1.00  0.00    -0.059 A 
HETATM   33  C21 UNK     1      11.390  13.891  32.997  1.00  0.00     0.048 C 
ENDBRANCH  21  22
ENDBRANCH   1  21
TORSDOF 5
ENDMDL
MODEL 5
REMARK VINA RESULT:      -9.4      4.696     11.019
REMARK  5 active torsions:
REMARK  status: ('A' for Active; 'I' for Inactive)
REMARK    1  A    between atoms: C5_12  and  N1_5 
REMARK    2  A    between atoms: C6_13  and  N2_6 
REMARK    3  A    between atoms: C5_12  and  C7_14 
REMARK    4  A    between atoms: C6_13  and  C8_15 
REMARK    5  A    between atoms: C14_21  and  C20_27 
ROOT
HETATM    1  N1  UNK     1      19.995  -3.779  36.696  1.00  0.00     0.096 N 
HETATM    2  N2  UNK     1      20.896  -6.525  36.748  1.00  0.00     0.097 N 
HETATM    3  C1  UNK     1      20.935  -4.253  37.719  1.00  0.00     0.303 C 
HETATM    4  C2  UNK     1      20.149  -4.553  35.459  1.00  0.00     0.303 C 
HETATM    5  C3  UNK     1      20.742  -5.750  37.985  1.00  0.00     0.303 C 
HETATM    6  C4  UNK     1      19.957  -6.050  35.725  1.00  0.00     0.303 C 
ENDROOT
BRANCH   2   7
HETATM    7  C6  UNK     1      20.708  -7.952  37.003  1.00  0.00     0.334 C 
BRANCH   7   8
HETATM    8  C8  UNK     1      22.020  -8.655  36.860  1.00  0.00     0.095 A 
HETATM    9  C10 UNK     1      22.317  -9.799  36.162  1.00  0.00     0.078 A 
HETATM   10  O1  UNK     1      23.644 -10.056  36.323  1.00  0.00    -0.294 OA
HETATM   11  C16 UNK     1      21.550 -10.735  35.333  1.00  0.00     0.079 C 
HETATM   12  C14 UNK     1      24.072  -9.039  37.119  1.00  0.00     0.180 A 
HETATM   13  N3  UNK     1      23.149  -8.172  37.472  1.00  0.00    -0.224 NA
BRANCH  12  14
HETATM   14  C20 UNK     1      25.468  -9.069  37.452  1.00  0.00     0.017 A 
HETATM   15  C22 UNK     1      26.384  -9.635  36.566  1.00  0.00     0.017 A 
HETATM   16  C24 UNK     1      27.742  -9.666  36.890  1.00  0.00     0.025 A 
HETATM   17  C26 UNK     1      28.181  -9.130  38.101  1.00  0.00     0.034 A 
HETATM   18  C25 UNK     1      27.265  -8.563  38.987  1.00  0.00     0.025 A 
HETATM   19 Cl1  UNK     1      29.854  -9.166  38.499  1.00  0.00    -0.084 Cl
HETATM   20  C23 UNK     1      25.909  -8.533  38.663  1.00  0.00     0.017 A 
ENDBRANCH  12  14
ENDBRANCH   7   8
ENDBRANCH   2   7
BRANCH   1  21
HETATM   21  C5  UNK     1      20.180  -2.352  36.443  1.00  0.00     0.312 C 
BRANCH  21  22
HETATM   22  C7  UNK     1      19.198  -1.824  35.456  1.00  0.00    -0.011 A 
HETATM   23  C11 UNK     1      18.002  -1.360  35.848  1.00  0.00     0.092 A 
HETATM   24  C15 UNK     1      17.000  -0.829  34.909  1.00  0.00     0.288 A 
HETATM   25  O2  UNK     1      17.344  -0.824  33.567  1.00  0.00    -0.275 OA
HETATM   26  O3  UNK     1      15.917  -0.412  35.305  1.00  0.00    -0.260 OA
HETATM   27  C12 UNK     1      18.592  -1.306  33.124  1.00  0.00     0.090 A 
HETATM   28  C9  UNK     1      19.533  -1.807  34.027  1.00  0.00     0.006 A 
HETATM   29  C17 UNK     1      18.832  -1.253  31.750  1.00  0.00     0.045 A 
HETATM   30  C13 UNK     1      20.751  -2.266  33.507  1.00  0.00     0.015 A 
HETATM   31  C18 UNK     1      21.005  -2.220  32.131  1.00  0.00     0.007 A 
HETATM   32  C19 UNK     1      20.046  -1.714  31.254  1.00  0.00    -0.059 A 
HETATM   33  C21 UNK     1      20.324  -1.668  29.790  1.00  0.00     0.048 C 
ENDBRANCH  21  22
ENDBRANCH   1  21
TORSDOF 5
ENDMDL
MODEL 6
REMARK VINA RESULT:      -9.4      8.769     12.062
REMARK  5 active torsions:
REMARK  status: ('A' for Active; 'I' for Inactive)
REMARK    1  A    between atoms: C5_12  and  N1_5 
REMARK    2  A    between atoms: C6_13  and  N2_6 
REMARK    3  A    between atoms: C5_12  and  C7_14 
REMARK    4  A    between atoms: C6_13  and  C8_15 
REMARK    5  A    between atoms: C14_21  and  C20_27 
ROOT
HETATM    1  N1  UNK     1      30.280  -6.655  35.166  1.00  0.00     0.096 N 
HETATM    2  N2  UNK     1      29.011  -7.062  37.732  1.00  0.00     0.097 N 
HETATM    3  C1  UNK     1      31.071  -6.794  36.394  1.00  0.00     0.303 C 
HETATM    4  C2  UNK     1      29.018  -7.395  35.282  1.00  0.00     0.303 C 
HETATM    5  C3  UNK     1      30.273  -6.322  37.614  1.00  0.00     0.303 C 
HETATM    6  C4  UNK     1      28.220  -6.924  36.503  1.00  0.00     0.303 C 
ENDROOT
BRANCH   2   7
HETATM    7  C6  UNK     1      28.249  -6.608  38.894  1.00  0.00     0.334 C 
BRANCH   7   8
HETATM    8  C8  UNK     1      26.990  -7.406  39.000  1.00  0.00     0.095 A 
HETATM    9  C10 UNK     1      26.821  -8.703  39.419  1.00  0.00     0.078 A 
HETATM   10  O1  UNK     1      25.494  -8.998  39.345  1.00  0.00    -0.294 OA
HETATM   11  C16 UNK     1      27.716  -9.762  39.898  1.00  0.00     0.079 C 
HETATM   12  C14 UNK     1      24.936  -7.847  38.880  1.00  0.00     0.180 A 
HETATM   13  N3  UNK     1      25.778  -6.863  38.656  1.00  0.00    -0.224 NA
BRANCH  12  14
HETATM   14  C20 UNK     1      23.512  -7.885  38.705  1.00  0.00     0.017 A 
HETATM   15  C22 UNK     1      22.963  -8.509  37.585  1.00  0.00     0.017 A 
HETATM   16  C24 UNK     1      21.578  -8.545  37.415  1.00  0.00     0.025 A 
HETATM   17  C26 UNK     1      20.744  -7.955  38.365  1.00  0.00     0.034 A 
HETATM   18  C25 UNK     1      21.292  -7.332  39.486  1.00  0.00     0.025 A 
HETATM   19 Cl1  UNK     1      19.037  -8.001  38.156  1.00  0.00    -0.084 Cl
HETATM   20  C23 UNK     1      22.677  -7.296  39.656  1.00  0.00     0.017 A 
ENDBRANCH  12  14
ENDBRANCH   7   8
ENDBRANCH   2   7
BRANCH   1  21
HETATM   21  C5  UNK     1      31.041  -7.106  34.004  1.00  0.00     0.312 C 
BRANCH  21  22
HETATM   22  C7  UNK     1      30.505  -6.551  32.730  1.00  0.00    -0.011 A 
HETATM   23  C11 UNK     1      30.472  -5.228  32.510  1.00  0.00     0.092 A 
HETATM   24  C15 UNK     1      29.952  -4.634  31.267  1.00  0.00     0.288 A 
HETATM   25  O2  UNK     1      29.484  -5.514  30.304  1.00  0.00    -0.275 OA
HETATM   26  O3  UNK     1      29.939  -3.420  31.100  1.00  0.00    -0.260 OA
HETATM   27  C12 UNK     1      29.504  -6.908  30.507  1.00  0.00     0.090 A 
HETATM   28  C9  UNK     1      30.001  -7.457  31.691  1.00  0.00     0.006 A 
HETATM   29  C17 UNK     1      29.007  -7.699  29.469  1.00  0.00     0.045 A 
HETATM   30  C13 UNK     1      29.987  -8.853  31.815  1.00  0.00     0.015 A 
HETATM   31  C18 UNK     1      29.491  -9.659  30.784  1.00  0.00     0.007 A 
HETATM   32  C19 UNK     1      29.001  -9.082  29.612  1.00  0.00    -0.059 A 
HETATM   33  C21 UNK     1      28.475  -9.946  28.518  1.00  0.00     0.048 C 
ENDBRANCH  21  22
ENDBRANCH   1  21
TORSDOF 5
ENDMDL
MODEL 7
REMARK VINA RESULT:      -9.2     27.563     29.201
REMARK  5 active torsions:
REMARK  status: ('A' for Active; 'I' for Inactive)
REMARK    1  A    between atoms: C5_12  and  N1_5 
REMARK    2  A    between atoms: C6_13  and  N2_6 
REMARK    3  A    between atoms: C5_12  and  C7_14 
REMARK    4  A    between atoms: C6_13  and  C8_15 
REMARK    5  A    between atoms: C14_21  and  C20_27 
ROOT
HETATM    1  N1  UNK     1      15.431   9.460  10.281  1.00  0.00     0.096 N 
HETATM    2  N2  UNK     1      17.751  11.182  10.189  1.00  0.00     0.097 N 
HETATM    3  C1  UNK     1      16.773   8.919  10.037  1.00  0.00     0.303 C 
HETATM    4  C2  UNK     1      15.509  10.676  11.099  1.00  0.00     0.303 C 
HETATM    5  C3  UNK     1      17.671   9.966   9.371  1.00  0.00     0.303 C 
HETATM    6  C4  UNK     1      16.409  11.724  10.435  1.00  0.00     0.303 C 
ENDROOT
BRANCH   2   7
HETATM    7  C6  UNK     1      18.605  12.182   9.551  1.00  0.00     0.334 C 
BRANCH   7   8
HETATM    8  C8  UNK     1      19.751  12.501  10.457  1.00  0.00     0.095 A 
HETATM    9  C10 UNK     1      19.731  13.048  11.716  1.00  0.00     0.078 A 
HETATM   10  O1  UNK     1      21.019  13.151  12.148  1.00  0.00    -0.294 OA
HETATM   11  C16 UNK     1      18.680  13.511  12.629  1.00  0.00     0.079 C 
HETATM   12  C14 UNK     1      21.745  12.653  11.110  1.00  0.00     0.180 A 
HETATM   13  N3  UNK     1      21.044  12.250  10.074  1.00  0.00    -0.224 NA
BRANCH  12  14
HETATM   14  C20 UNK     1      23.167  12.646  11.307  1.00  0.00     0.017 A 
HETATM   15  C22 UNK     1      23.736  13.429  12.311  1.00  0.00     0.017 A 
HETATM   16  C24 UNK     1      25.119  13.423  12.502  1.00  0.00     0.025 A 
HETATM   17  C26 UNK     1      25.931  12.634  11.687  1.00  0.00     0.034 A 
HETATM   18  C25 UNK     1      25.362  11.850  10.684  1.00  0.00     0.025 A 
HETATM   19 Cl1  UNK     1      27.635  12.625  11.923  1.00  0.00    -0.084 Cl
HETATM   20  C23 UNK     1      23.980  11.856  10.493  1.00  0.00     0.017 A 
ENDBRANCH  12  14
ENDBRANCH   7   8
ENDBRANCH   2   7
BRANCH   1  21
HETATM   21  C5  UNK     1      14.575   8.461  10.916  1.00  0.00     0.312 C 
BRANCH  21  22
HETATM   22  C7  UNK     1      14.465   7.217  10.106  1.00  0.00    -0.011 A 
HETATM   23  C11 UNK     1      15.297   6.184  10.304  1.00  0.00     0.092 A 
HETATM   24  C15 UNK     1      15.226   4.935   9.528  1.00  0.00     0.288 A 
HETATM   25  O2  UNK     1      14.242   4.861   8.555  1.00  0.00    -0.275 OA
HETATM   26  O3  UNK     1      16.004   4.011   9.739  1.00  0.00    -0.260 OA
HETATM   27  C12 UNK     1      13.354   5.930   8.322  1.00  0.00     0.090 A 
HETATM   28  C9  UNK     1      13.433   7.109   9.067  1.00  0.00     0.006 A 
HETATM   29  C17 UNK     1      12.402   5.745   7.318  1.00  0.00     0.045 A 
HETATM   30  C13 UNK     1      12.513   8.124   8.774  1.00  0.00     0.015 A 
HETATM   31  C18 UNK     1      11.553   7.954   7.769  1.00  0.00     0.007 A 
HETATM   32  C19 UNK     1      11.498   6.765   7.042  1.00  0.00    -0.059 A 
HETATM   33  C21 UNK     1      10.473   6.591   5.974  1.00  0.00     0.048 C 
ENDBRANCH  21  22
ENDBRANCH   1  21
TORSDOF 5
ENDMDL
MODEL 8
REMARK VINA RESULT:      -9.2      4.127     11.147
REMARK  5 active torsions:
REMARK  status: ('A' for Active; 'I' for Inactive)
REMARK    1  A    between atoms: C5_12  and  N1_5 
REMARK    2  A    between atoms: C6_13  and  N2_6 
REMARK    3  A    between atoms: C5_12  and  C7_14 
REMARK    4  A    between atoms: C6_13  and  C8_15 
REMARK    5  A    between atoms: C14_21  and  C20_27 
ROOT
HETATM    1  N1  UNK     1      18.855  -1.004  35.216  1.00  0.00     0.096 N 
HETATM    2  N2  UNK     1      19.628  -3.453  36.543  1.00  0.00     0.097 N 
HETATM    3  C1  UNK     1      19.585  -2.060  34.504  1.00  0.00     0.303 C 
HETATM    4  C2  UNK     1      18.034  -1.581  36.287  1.00  0.00     0.303 C 
HETATM    5  C3  UNK     1      20.447  -2.875  35.472  1.00  0.00     0.303 C 
HETATM    6  C4  UNK     1      18.896  -2.398  37.255  1.00  0.00     0.303 C 
ENDROOT
BRANCH   2   7
HETATM    7  C6  UNK     1      20.453  -4.228  37.469  1.00  0.00     0.334 C 
BRANCH   7   8
HETATM    8  C8  UNK     1      20.415  -5.669  37.073  1.00  0.00     0.095 A 
HETATM    9  C10 UNK     1      19.331  -6.453  36.766  1.00  0.00     0.078 A 
HETATM   10  O1  UNK     1      19.787  -7.701  36.464  1.00  0.00    -0.294 OA
HETATM   11  C16 UNK     1      17.881  -6.238  36.699  1.00  0.00     0.079 C 
HETATM   12  C14 UNK     1      21.136  -7.591  36.611  1.00  0.00     0.180 A 
HETATM   13  N3  UNK     1      21.569  -6.404  36.972  1.00  0.00    -0.224 NA
BRANCH  12  14
HETATM   14  C20 UNK     1      21.879  -8.791  36.348  1.00  0.00     0.017 A 
HETATM   15  C22 UNK     1      21.327  -9.792  35.550  1.00  0.00     0.017 A 
HETATM   16  C24 UNK     1      22.049 -10.959  35.296  1.00  0.00     0.025 A 
HETATM   17  C26 UNK     1      23.322 -11.123  35.840  1.00  0.00     0.034 A 
HETATM   18  C25 UNK     1      23.876 -10.121  36.637  1.00  0.00     0.025 A 
HETATM   19 Cl1  UNK     1      24.213 -12.562  35.525  1.00  0.00    -0.084 Cl
HETATM   20  C23 UNK     1      23.154  -8.955  36.891  1.00  0.00     0.017 A 
ENDBRANCH  12  14
ENDBRANCH   7   8
ENDBRANCH   2   7
BRANCH   1  21
HETATM   21  C5  UNK     1      18.032  -0.227  34.292  1.00  0.00     0.312 C 
BRANCH  21  22
HETATM   22  C7  UNK     1      18.621  -0.169  32.926  1.00  0.00    -0.011 A 
HETATM   23  C11 UNK     1      19.115  -1.268  32.337  1.00  0.00     0.092 A 
HETATM   24  C15 UNK     1      19.707  -1.258  30.988  1.00  0.00     0.288 A 
HETATM   25  O2  UNK     1      19.738  -0.039  30.330  1.00  0.00    -0.275 OA
HETATM   26  O3  UNK     1      20.148  -2.283  30.480  1.00  0.00    -0.260 OA
HETATM   27  C12 UNK     1      19.228   1.133  30.924  1.00  0.00     0.090 A 
HETATM   28  C9  UNK     1      18.669   1.108  32.203  1.00  0.00     0.006 A 
HETATM   29  C17 UNK     1      19.311   2.304  30.169  1.00  0.00     0.045 A 
HETATM   30  C13 UNK     1      18.183   2.316  32.723  1.00  0.00     0.015 A 
HETATM   31  C18 UNK     1      18.261   3.498  31.978  1.00  0.00     0.007 A 
HETATM   32  C19 UNK     1      18.824   3.492  30.703  1.00  0.00    -0.059 A 
HETATM   33  C21 UNK     1      18.903   4.756  29.915  1.00  0.00     0.048 C 
ENDBRANCH  21  22
ENDBRANCH   1  21
TORSDOF 5
ENDMDL
MODEL 9
REMARK VINA RESULT:      -9.2     12.582     17.208
REMARK  5 active torsions:
REMARK  status: ('A' for Active; 'I' for Inactive)
REMARK    1  A    between atoms: C5_12  and  N1_5 
REMARK    2  A    between atoms: C6_13  and  N2_6 
REMARK    3  A    between atoms: C5_12  and  C7_14 
REMARK    4  A    between atoms: C6_13  and  C8_15 
REMARK    5  A    between atoms: C14_21  and  C20_27 
ROOT
HETATM    1  N1  UNK     1      31.749  -5.877  35.753  1.00  0.00     0.096 N 
HETATM    2  N2  UNK     1      34.308  -6.298  34.475  1.00  0.00     0.097 N 
HETATM    3  C1  UNK     1      32.290  -4.908  34.793  1.00  0.00     0.303 C 
HETATM    4  C2  UNK     1      32.235  -7.228  35.447  1.00  0.00     0.303 C 
HETATM    5  C3  UNK     1      33.822  -4.947  34.781  1.00  0.00     0.303 C 
HETATM    6  C4  UNK     1      33.767  -7.267  35.435  1.00  0.00     0.303 C 
ENDROOT
BRANCH   2   7
HETATM    7  C6  UNK     1      35.769  -6.334  34.469  1.00  0.00     0.334 C 
BRANCH   7   8
HETATM    8  C8  UNK     1      36.230  -7.447  33.583  1.00  0.00     0.095 A 
HETATM    9  C10 UNK     1      35.995  -7.641  32.244  1.00  0.00     0.078 A 
HETATM   10  O1  UNK     1      36.617  -8.793  31.872  1.00  0.00    -0.294 OA
HETATM   11  C16 UNK     1      35.262  -6.910  31.205  1.00  0.00     0.079 C 
HETATM   12  C14 UNK     1      37.196  -9.230  33.023  1.00  0.00     0.180 A 
HETATM   13  N3  UNK     1      37.001  -8.469  34.076  1.00  0.00    -0.224 NA
BRANCH  12  14
HETATM   14  C20 UNK     1      37.934 -10.457  32.910  1.00  0.00     0.017 A 
HETATM   15  C22 UNK     1      38.873 -10.614  31.890  1.00  0.00     0.017 A 
HETATM   16  C24 UNK     1      39.588 -11.807  31.779  1.00  0.00     0.025 A 
HETATM   17  C26 UNK     1      39.364 -12.842  32.687  1.00  0.00     0.034 A 
HETATM   18  C25 UNK     1      38.425 -12.684  33.707  1.00  0.00     0.025 A 
HETATM   19 Cl1  UNK     1      40.247 -14.312  32.551  1.00  0.00    -0.084 Cl
HETATM   20  C23 UNK     1      37.710 -11.492  33.818  1.00  0.00     0.017 A 
ENDBRANCH  12  14
ENDBRANCH   7   8
ENDBRANCH   2   7
BRANCH   1  21
HETATM   21  C5  UNK     1      30.289  -5.839  35.763  1.00  0.00     0.312 C 
BRANCH  21  22
HETATM   22  C7  UNK     1      29.738  -5.761  37.144  1.00  0.00    -0.011 A 
HETATM   23  C11 UNK     1      29.851  -4.642  37.873  1.00  0.00     0.092 A 
HETATM   24  C15 UNK     1      29.321  -4.519  39.242  1.00  0.00     0.288 A 
HETATM   25  O2  UNK     1      28.683  -5.632  39.765  1.00  0.00    -0.275 OA
HETATM   26  O3  UNK     1      29.442  -3.478  39.879  1.00  0.00    -0.260 OA
HETATM   27  C12 UNK     1      28.549  -6.823  39.024  1.00  0.00     0.090 A 
HETATM   28  C9  UNK     1      29.057  -6.924  37.726  1.00  0.00     0.006 A 
HETATM   29  C17 UNK     1      27.888  -7.880  39.651  1.00  0.00     0.045 A 
HETATM   30  C13 UNK     1      28.882  -8.142  37.055  1.00  0.00     0.015 A 
HETATM   31  C18 UNK     1      28.223  -9.212  37.672  1.00  0.00     0.007 A 
HETATM   32  C19 UNK     1      27.726  -9.080  38.968  1.00  0.00    -0.059 A 
HETATM   33  C21 UNK     1      27.024 -10.224  39.618  1.00  0.00     0.048 C 
ENDBRANCH  21  22
ENDBRANCH   1  21
TORSDOF 5
ENDMDL
MODEL 10
REMARK VINA RESULT:      -9.1      2.120      2.846
REMARK  5 active torsions:
REMARK  status: ('A' for Active; 'I' for Inactive)
REMARK    1  A    between atoms: C5_12  and  N1_5 
REMARK    2  A    between atoms: C6_13  and  N2_6 
REMARK    3  A    between atoms: C5_12  and  C7_14 
REMARK    4  A    between atoms: C6_13  and  C8_15 
REMARK    5  A    between atoms: C14_21  and  C20_27 
ROOT
HETATM    1  N1  UNK     1      19.777  -3.249  36.249  1.00  0.00     0.096 N 
HETATM    2  N2  UNK     1      18.931  -0.612  37.077  1.00  0.00     0.097 N 
HETATM    3  C1  UNK     1      20.279  -2.043  35.580  1.00  0.00     0.303 C 
HETATM    4  C2  UNK     1      19.448  -2.960  37.649  1.00  0.00     0.303 C 
HETATM    5  C3  UNK     1      19.261  -0.902  35.676  1.00  0.00     0.303 C 
HETATM    6  C4  UNK     1      18.430  -1.818  37.746  1.00  0.00     0.303 C 
ENDROOT
BRANCH   2   7
HETATM    7  C6  UNK     1      17.957   0.475  37.167  1.00  0.00     0.334 C 
BRANCH   7   8
HETATM    8  C8  UNK     1      17.673   0.996  35.796  1.00  0.00     0.095 A 
HETATM    9  C10 UNK     1      16.736   0.573  34.886  1.00  0.00     0.078 A 
HETATM   10  O1  UNK     1      16.849   1.351  33.774  1.00  0.00    -0.294 OA
HETATM   11  C16 UNK     1      15.707  -0.473  34.868  1.00  0.00     0.079 C 
HETATM   12  C14 UNK     1      17.861   2.206  34.085  1.00  0.00     0.180 A 
HETATM   13  N3  UNK     1      18.391   2.043  35.276  1.00  0.00    -0.224 NA
BRANCH  12  14
HETATM   14  C20 UNK     1      18.194   3.157  33.061  1.00  0.00     0.017 A 
HETATM   15  C22 UNK     1      18.330   2.737  31.738  1.00  0.00     0.017 A 
HETATM   16  C24 UNK     1      18.656   3.661  30.743  1.00  0.00     0.025 A 
HETATM   17  C26 UNK     1      18.845   5.002  31.073  1.00  0.00     0.034 A 
HETATM   18  C25 UNK     1      18.708   5.422  32.396  1.00  0.00     0.025 A 
HETATM   19 Cl1  UNK     1      19.245   6.141  29.847  1.00  0.00    -0.084 Cl
HETATM   20  C23 UNK     1      18.383   4.499  33.390  1.00  0.00     0.017 A 
ENDBRANCH  12  14
ENDBRANCH   7   8
ENDBRANCH   2   7
BRANCH   1  21
HETATM   21  C5  UNK     1      20.748  -4.336  36.157  1.00  0.00     0.312 C 
BRANCH  21  22
HETATM   22  C7  UNK     1      20.154  -5.653  36.514  1.00  0.00    -0.011 A 
HETATM   23  C11 UNK     1      19.077  -6.126  35.869  1.00  0.00     0.092 A 
HETATM   24  C15 UNK     1      18.455  -7.423  36.187  1.00  0.00     0.288 A 
HETATM   25  O2  UNK     1      19.038  -8.160  37.206  1.00  0.00    -0.275 OA
HETATM   26  O3  UNK     1      17.472  -7.823  35.575  1.00  0.00    -0.260 OA
HETATM   27  C12 UNK     1      20.169  -7.690  37.902  1.00  0.00     0.090 A 
HETATM   28  C9  UNK     1      20.748  -6.458  37.589  1.00  0.00     0.006 A 
HETATM   29  C17 UNK     1      20.672  -8.515  38.909  1.00  0.00     0.045 A 
HETATM   30  C13 UNK     1      21.872  -6.062  38.328  1.00  0.00     0.015 A 
HETATM   31  C18 UNK     1      22.386  -6.879  39.341  1.00  0.00     0.007 A 
HETATM   32  C19 UNK     1      21.787  -8.104  39.631  1.00  0.00    -0.059 A 
HETATM   33  C21 UNK     1      22.342  -8.969  40.711  1.00  0.00     0.048 C 
ENDBRANCH  21  22
ENDBRANCH   1  21
TORSDOF 5
ENDMDL
