MODEL 1
REMARK VINA RESULT:      -8.9      0.000      0.000
REMARK  6 active torsions:
REMARK  status: ('A' for Active; 'I' for Inactive)
REMARK    1  A    between atoms: C20_27  and  O3_3 
REMARK    2  A    between atoms: C22_29  and  O3_3 
REMARK    3  A    between atoms: C5_12  and  N1_5 
REMARK    4  A    between atoms: C11_18  and  N2_6 
REMARK       I    between atoms: C12_19  and  N3_7 
REMARK    5  A    between atoms: C12_19  and  C5_12 
REMARK    6  A    between atoms: C11_18  and  C13_20 
ROOT
HETATM    1  N1  UNK     1      18.734   5.881  32.043  1.00  0.00     0.100 N 
HETATM    2  N2  UNK     1      18.731   3.119  31.192  1.00  0.00     0.096 N 
HETATM    3  C1  UNK     1      19.552   5.432  30.910  1.00  0.00     0.303 C 
HETATM    4  C2  UNK     1      18.544   4.788  33.004  1.00  0.00     0.303 C 
HETATM    5  C3  UNK     1      18.922   4.212  30.231  1.00  0.00     0.303 C 
HETATM    6  C4  UNK     1      17.912   3.569  32.324  1.00  0.00     0.303 C 
ENDROOT
BRANCH   2   7
HETATM    7  C11 UNK     1      18.126   1.957  30.542  1.00  0.00     0.312 C 
BRANCH   7   8
HETATM    8  C13 UNK     1      19.065   0.804  30.464  1.00  0.00    -0.011 A 
HETATM    9  C14 UNK     1      19.209  -0.104  31.609  1.00  0.00     0.009 A 
HETATM   10  C16 UNK     1      20.096  -1.176  31.505  1.00  0.00     0.090 A 
HETATM   11  C17 UNK     1      18.501   0.040  32.810  1.00  0.00     0.051 A 
HETATM   12  O2  UNK     1      20.844  -1.391  30.331  1.00  0.00    -0.275 OA
HETATM   13  C19 UNK     1      20.292  -2.086  32.546  1.00  0.00     0.041 A 
HETATM   14  C18 UNK     1      20.729  -0.551  29.234  1.00  0.00     0.288 A 
HETATM   15  C15 UNK     1      19.789   0.575  29.358  1.00  0.00     0.092 A 
HETATM   16  O4  UNK     1      21.375  -0.730  28.207  1.00  0.00    -0.260 OA
HETATM   17  C21 UNK     1      19.581  -1.925  33.730  1.00  0.00     0.039 A 
HETATM   18  C20 UNK     1      18.687  -0.864  33.862  1.00  0.00     0.069 A 
BRANCH  18  19
HETATM   19  O3  UNK     1      17.989  -0.706  35.022  1.00  0.00    -0.351 OA
BRANCH  19  20
HETATM   20  C22 UNK     1      17.243   0.501  35.171  1.00  0.00     0.171 C 
HETATM   21  C23 UNK     1      15.780   0.155  35.356  1.00  0.00     0.034 C 
ENDBRANCH  19  20
ENDBRANCH  18  19
ENDBRANCH   7   8
ENDBRANCH   2   7
BRANCH   1  22
HETATM   22  C5  UNK     1      19.337   7.044  32.691  1.00  0.00     0.374 C 
BRANCH  22  23
HETATM   23  C12 UNK     1      18.431   7.620  33.749  1.00  0.00     0.248 C 
HETATM   24  N3  UNK     1      17.171   8.044  33.331  1.00  0.00    -0.351 N 
HETATM   25  C6  UNK     1      16.233   8.612  34.301  1.00  0.00     0.126 C 
HETATM   26  C7  UNK     1      16.681   8.016  31.947  1.00  0.00     0.126 C 
HETATM   27  C8  UNK     1      14.894   7.883  34.258  1.00  0.00     0.020 C 
HETATM   28  C10 UNK     1      14.327   7.849  32.839  1.00  0.00     0.003 C 
HETATM   29  C9  UNK     1      15.349   7.276  31.858  1.00  0.00     0.020 C 
HETATM   30  O1  UNK     1      18.833   7.689  34.914  1.00  0.00    -0.271 OA
ENDBRANCH  22  23
ENDBRANCH   1  22
TORSDOF 6
ENDMDL
MODEL 2
REMARK VINA RESULT:      -8.5     22.555     25.109
REMARK  6 active torsions:
REMARK  status: ('A' for Active; 'I' for Inactive)
REMARK    1  A    between atoms: C20_27  and  O3_3 
REMARK    2  A    between atoms: C22_29  and  O3_3 
REMARK    3  A    between atoms: C5_12  and  N1_5 
REMARK    4  A    between atoms: C11_18  and  N2_6 
REMARK       I    between atoms: C12_19  and  N3_7 
REMARK    5  A    between atoms: C12_19  and  C5_12 
REMARK    6  A    between atoms: C11_18  and  C13_20 
ROOT
HETATM    1  N1  UNK     1      14.706   7.641   9.420  1.00  0.00     0.100 N 
HETATM    2  N2  UNK     1      16.719   9.715   9.422  1.00  0.00     0.096 N 
HETATM    3  C1  UNK     1      16.127   7.323   9.606  1.00  0.00     0.303 C 
HETATM    4  C2  UNK     1      14.554   8.851   8.604  1.00  0.00     0.303 C 
HETATM    5  C3  UNK     1      16.872   8.504  10.237  1.00  0.00     0.303 C 
HETATM    6  C4  UNK     1      15.298  10.032   9.237  1.00  0.00     0.303 C 
ENDROOT
BRANCH   2   7
HETATM    7  C11 UNK     1      17.427  10.841  10.028  1.00  0.00     0.312 C 
BRANCH   7   8
HETATM    8  C13 UNK     1      18.453  11.418   9.114  1.00  0.00    -0.011 A 
HETATM    9  C14 UNK     1      19.775  11.789   9.636  1.00  0.00     0.009 A 
HETATM   10  C16 UNK     1      20.714  12.326   8.756  1.00  0.00     0.090 A 
HETATM   11  C17 UNK     1      20.154  11.633  10.976  1.00  0.00     0.051 A 
HETATM   12  O2  UNK     1      20.411  12.515   7.393  1.00  0.00    -0.275 OA
HETATM   13  C19 UNK     1      21.993  12.705   9.169  1.00  0.00     0.041 A 
HETATM   14  C18 UNK     1      19.173  12.173   6.872  1.00  0.00     0.288 A 
HETATM   15  C15 UNK     1      18.192  11.607   7.813  1.00  0.00     0.092 A 
HETATM   16  O4  UNK     1      18.899  12.332   5.687  1.00  0.00    -0.260 OA
HETATM   17  C21 UNK     1      22.350  12.542  10.504  1.00  0.00     0.039 A 
HETATM   18  C20 UNK     1      21.432  12.007  11.405  1.00  0.00     0.069 A 
BRANCH  18  19
HETATM   19  O3  UNK     1      21.782  11.847  12.712  1.00  0.00    -0.351 OA
BRANCH  19  20
HETATM   20  C22 UNK     1      20.960  12.489  13.687  1.00  0.00     0.171 C 
HETATM   21  C23 UNK     1      21.382  12.030  15.066  1.00  0.00     0.034 C 
ENDBRANCH  19  20
ENDBRANCH  18  19
ENDBRANCH   7   8
ENDBRANCH   2   7
BRANCH   1  22
HETATM   22  C5  UNK     1      13.997   6.514   8.817  1.00  0.00     0.374 C 
BRANCH  22  23
HETATM   23  C12 UNK     1      12.569   6.439   9.295  1.00  0.00     0.248 C 
HETATM   24  N3  UNK     1      11.581   6.764   8.367  1.00  0.00    -0.351 N 
HETATM   25  C6  UNK     1      10.170   6.711   8.755  1.00  0.00     0.126 C 
HETATM   26  C7  UNK     1      11.822   7.213   6.991  1.00  0.00     0.126 C 
HETATM   27  C8  UNK     1       9.371   5.835   7.795  1.00  0.00     0.020 C 
HETATM   28  C10 UNK     1       9.569   6.281   6.346  1.00  0.00     0.003 C 
HETATM   29  C9  UNK     1      11.054   6.348   5.994  1.00  0.00     0.020 C 
HETATM   30  O1  UNK     1      12.341   6.099  10.459  1.00  0.00    -0.271 OA
ENDBRANCH  22  23
ENDBRANCH   1  22
TORSDOF 6
ENDMDL
MODEL 3
REMARK VINA RESULT:      -8.4      6.447     12.297
REMARK  6 active torsions:
REMARK  status: ('A' for Active; 'I' for Inactive)
REMARK    1  A    between atoms: C20_27  and  O3_3 
REMARK    2  A    between atoms: C22_29  and  O3_3 
REMARK    3  A    between atoms: C5_12  and  N1_5 
REMARK    4  A    between atoms: C11_18  and  N2_6 
REMARK       I    between atoms: C12_19  and  N3_7 
REMARK    5  A    between atoms: C12_19  and  C5_12 
REMARK    6  A    between atoms: C11_18  and  C13_20 
ROOT
HETATM    1  N1  UNK     1      19.642  -7.075  37.867  1.00  0.00     0.100 N 
HETATM    2  N2  UNK     1      19.996  -4.273  37.252  1.00  0.00     0.096 N 
HETATM    3  C1  UNK     1      18.600  -6.311  37.171  1.00  0.00     0.303 C 
HETATM    4  C2  UNK     1      20.423  -6.196  38.744  1.00  0.00     0.303 C 
HETATM    5  C3  UNK     1      19.212  -5.153  36.376  1.00  0.00     0.303 C 
HETATM    6  C4  UNK     1      21.037  -5.039  37.948  1.00  0.00     0.303 C 
ENDROOT
BRANCH   2   7
HETATM    7  C11 UNK     1      20.582  -3.171  36.491  1.00  0.00     0.312 C 
BRANCH   7   8
HETATM    8  C13 UNK     1      19.575  -2.134  36.136  1.00  0.00    -0.011 A 
HETATM    9  C14 UNK     1      19.425  -1.704  34.740  1.00  0.00     0.009 A 
HETATM   10  C16 UNK     1      18.472  -0.730  34.439  1.00  0.00     0.090 A 
HETATM   11  C17 UNK     1      20.187  -2.217  33.681  1.00  0.00     0.051 A 
HETATM   12  O2  UNK     1      17.665  -0.164  35.446  1.00  0.00    -0.275 OA
HETATM   13  C19 UNK     1      18.266  -0.265  33.138  1.00  0.00     0.041 A 
HETATM   14  C18 UNK     1      17.783  -0.551  36.771  1.00  0.00     0.288 A 
HETATM   15  C15 UNK     1      18.792  -1.579  37.074  1.00  0.00     0.092 A 
HETATM   16  O4  UNK     1      17.085  -0.066  37.655  1.00  0.00    -0.260 OA
HETATM   17  C21 UNK     1      19.033  -0.787  32.102  1.00  0.00     0.039 A 
HETATM   18  C20 UNK     1      19.991  -1.761  32.373  1.00  0.00     0.069 A 
BRANCH  18  19
HETATM   19  O3  UNK     1      20.742  -2.273  31.358  1.00  0.00    -0.351 OA
BRANCH  19  20
HETATM   20  C22 UNK     1      20.197  -2.191  30.042  1.00  0.00     0.171 C 
HETATM   21  C23 UNK     1      20.908  -1.091  29.282  1.00  0.00     0.034 C 
ENDBRANCH  19  20
ENDBRANCH  18  19
ENDBRANCH   7   8
ENDBRANCH   2   7
BRANCH   1  22
HETATM   22  C5  UNK     1      19.056  -8.179  38.626  1.00  0.00     0.374 C 
BRANCH  22  23
HETATM   23  C12 UNK     1      19.907  -9.420  38.544  1.00  0.00     0.248 C 
HETATM   24  N3  UNK     1      20.285  -9.837  37.269  1.00  0.00    -0.351 N 
HETATM   25  C6  UNK     1      21.115 -11.033  37.108  1.00  0.00     0.126 C 
HETATM   26  C7  UNK     1      19.883  -9.194  36.012  1.00  0.00     0.126 C 
HETATM   27  C8  UNK     1      22.360 -10.726  36.282  1.00  0.00     0.020 C 
HETATM   28  C10 UNK     1      21.993 -10.078  34.947  1.00  0.00     0.003 C 
HETATM   29  C9  UNK     1      21.105  -8.853  35.162  1.00  0.00     0.020 C 
HETATM   30  O1  UNK     1      20.228 -10.001  39.586  1.00  0.00    -0.271 OA
ENDBRANCH  22  23
ENDBRANCH   1  22
TORSDOF 6
ENDMDL
MODEL 4
REMARK VINA RESULT:      -8.4     10.260     15.066
REMARK  6 active torsions:
REMARK  status: ('A' for Active; 'I' for Inactive)
REMARK    1  A    between atoms: C20_27  and  O3_3 
REMARK    2  A    between atoms: C22_29  and  O3_3 
REMARK    3  A    between atoms: C5_12  and  N1_5 
REMARK    4  A    between atoms: C11_18  and  N2_6 
REMARK       I    between atoms: C12_19  and  N3_7 
REMARK    5  A    between atoms: C12_19  and  C5_12 
REMARK    6  A    between atoms: C11_18  and  C13_20 
ROOT
HETATM    1  N1  UNK     1      26.307  -8.462  38.325  1.00  0.00     0.100 N 
HETATM    2  N2  UNK     1      23.809  -9.383  37.202  1.00  0.00     0.096 N 
HETATM    3  C1  UNK     1      26.216  -9.749  37.626  1.00  0.00     0.303 C 
HETATM    4  C2  UNK     1      25.022  -8.123  38.946  1.00  0.00     0.303 C 
HETATM    5  C3  UNK     1      25.095  -9.724  36.581  1.00  0.00     0.303 C 
HETATM    6  C4  UNK     1      23.902  -8.096  37.901  1.00  0.00     0.303 C 
ENDROOT
BRANCH   2   7
HETATM    7  C11 UNK     1      22.742  -9.357  36.203  1.00  0.00     0.312 C 
BRANCH   7   8
HETATM    8  C13 UNK     1      21.390  -9.451  36.821  1.00  0.00    -0.011 A 
HETATM    9  C14 UNK     1      20.500  -8.283  36.819  1.00  0.00     0.009 A 
HETATM   10  C16 UNK     1      19.239  -8.402  37.405  1.00  0.00     0.090 A 
HETATM   11  C17 UNK     1      20.841  -7.044  36.257  1.00  0.00     0.051 A 
HETATM   12  O2  UNK     1      18.819  -9.613  37.990  1.00  0.00    -0.275 OA
HETATM   13  C19 UNK     1      18.332  -7.341  37.445  1.00  0.00     0.041 A 
HETATM   14  C18 UNK     1      19.637 -10.732  38.006  1.00  0.00     0.288 A 
HETATM   15  C15 UNK     1      20.964 -10.591  37.384  1.00  0.00     0.092 A 
HETATM   16  O4  UNK     1      19.282 -11.791  38.512  1.00  0.00    -0.260 OA
HETATM   17  C21 UNK     1      18.690  -6.121  36.883  1.00  0.00     0.039 A 
HETATM   18  C20 UNK     1      19.942  -5.973  36.290  1.00  0.00     0.069 A 
BRANCH  18  19
HETATM   19  O3  UNK     1      20.294  -4.777  35.739  1.00  0.00    -0.351 OA
BRANCH  19  20
HETATM   20  C22 UNK     1      19.764  -3.601  36.348  1.00  0.00     0.171 C 
HETATM   21  C23 UNK     1      20.604  -2.411  35.936  1.00  0.00     0.034 C 
ENDBRANCH  19  20
ENDBRANCH  18  19
ENDBRANCH   7   8
ENDBRANCH   2   7
BRANCH   1  22
HETATM   22  C5  UNK     1      27.376  -8.487  39.322  1.00  0.00     0.374 C 
BRANCH  22  23
HETATM   23  C12 UNK     1      28.737  -8.461  38.676  1.00  0.00     0.248 C 
HETATM   24  N3  UNK     1      29.209  -7.217  38.262  1.00  0.00    -0.351 N 
HETATM   25  C6  UNK     1      30.525  -7.110  37.628  1.00  0.00     0.126 C 
HETATM   26  C7  UNK     1      28.472  -5.952  38.363  1.00  0.00     0.126 C 
HETATM   27  C8  UNK     1      31.394  -6.080  38.343  1.00  0.00     0.020 C 
HETATM   28  C10 UNK     1      30.679  -4.733  38.451  1.00  0.00     0.003 C 
HETATM   29  C9  UNK     1      29.301  -4.897  39.091  1.00  0.00     0.020 C 
HETATM   30  O1  UNK     1      29.362  -9.518  38.545  1.00  0.00    -0.271 OA
ENDBRANCH  22  23
ENDBRANCH   1  22
TORSDOF 6
ENDMDL
MODEL 5
REMARK VINA RESULT:      -8.3     22.842     25.114
REMARK  6 active torsions:
REMARK  status: ('A' for Active; 'I' for Inactive)
REMARK    1  A    between atoms: C20_27  and  O3_3 
REMARK    2  A    between atoms: C22_29  and  O3_3 
REMARK    3  A    between atoms: C5_12  and  N1_5 
REMARK    4  A    between atoms: C11_18  and  N2_6 
REMARK       I    between atoms: C12_19  and  N3_7 
REMARK    5  A    between atoms: C12_19  and  C5_12 
REMARK    6  A    between atoms: C11_18  and  C13_20 
ROOT
HETATM    1  N1  UNK     1       9.337   5.868   7.774  1.00  0.00     0.100 N 
HETATM    2  N2  UNK     1      11.944   7.004   7.257  1.00  0.00     0.096 N 
HETATM    3  C1  UNK     1       9.663   6.467   6.474  1.00  0.00     0.303 C 
HETATM    4  C2  UNK     1      10.115   6.506   8.842  1.00  0.00     0.303 C 
HETATM    5  C3  UNK     1      11.165   6.367   6.188  1.00  0.00     0.303 C 
HETATM    6  C4  UNK     1      11.617   6.404   8.557  1.00  0.00     0.303 C 
ENDROOT
BRANCH   2   7
HETATM    7  C11 UNK     1      13.377   6.904   6.984  1.00  0.00     0.312 C 
BRANCH   7   8
HETATM    8  C13 UNK     1      14.164   6.607   8.213  1.00  0.00    -0.011 A 
HETATM    9  C14 UNK     1      14.589   7.702   9.095  1.00  0.00     0.009 A 
HETATM   10  C16 UNK     1      15.326   7.391  10.238  1.00  0.00     0.090 A 
HETATM   11  C17 UNK     1      14.296   9.052   8.856  1.00  0.00     0.051 A 
HETATM   12  O2  UNK     1      15.661   6.059  10.550  1.00  0.00    -0.275 OA
HETATM   13  C19 UNK     1      15.768   8.372  11.130  1.00  0.00     0.041 A 
HETATM   14  C18 UNK     1      15.273   5.005   9.737  1.00  0.00     0.288 A 
HETATM   15  C15 UNK     1      14.497   5.348   8.535  1.00  0.00     0.092 A 
HETATM   16  O4  UNK     1      15.559   3.842   9.999  1.00  0.00    -0.260 OA
HETATM   17  C21 UNK     1      15.468   9.705  10.874  1.00  0.00     0.039 A 
HETATM   18  C20 UNK     1      14.733  10.044   9.740  1.00  0.00     0.069 A 
BRANCH  18  19
HETATM   19  O3  UNK     1      14.437  11.351   9.491  1.00  0.00    -0.351 OA
BRANCH  19  20
HETATM   20  C22 UNK     1      15.521  12.202   9.121  1.00  0.00     0.171 C 
HETATM   21  C23 UNK     1      15.583  12.293   7.611  1.00  0.00     0.034 C 
ENDBRANCH  19  20
ENDBRANCH  18  19
ENDBRANCH   7   8
ENDBRANCH   2   7
BRANCH   1  22
HETATM   22  C5  UNK     1       7.904   5.965   8.046  1.00  0.00     0.374 C 
BRANCH  22  23
HETATM   23  C12 UNK     1       7.523   5.202   9.289  1.00  0.00     0.248 C 
HETATM   24  N3  UNK     1       7.038   5.952  10.359  1.00  0.00    -0.351 N 
HETATM   25  C6  UNK     1       6.644   5.283  11.600  1.00  0.00     0.126 C 
HETATM   26  C7  UNK     1       6.914   7.415  10.385  1.00  0.00     0.126 C 
HETATM   27  C8  UNK     1       5.219   5.658  11.995  1.00  0.00     0.020 C 
HETATM   28  C10 UNK     1       5.045   7.175  12.062  1.00  0.00     0.003 C 
HETATM   29  C9  UNK     1       5.494   7.833  10.758  1.00  0.00     0.020 C 
HETATM   30  O1  UNK     1       7.653   3.975   9.306  1.00  0.00    -0.271 OA
ENDBRANCH  22  23
ENDBRANCH   1  22
TORSDOF 6
ENDMDL
MODEL 6
REMARK VINA RESULT:      -8.3     14.106     16.311
REMARK  6 active torsions:
REMARK  status: ('A' for Active; 'I' for Inactive)
REMARK    1  A    between atoms: C20_27  and  O3_3 
REMARK    2  A    between atoms: C22_29  and  O3_3 
REMARK    3  A    between atoms: C5_12  and  N1_5 
REMARK    4  A    between atoms: C11_18  and  N2_6 
REMARK       I    between atoms: C12_19  and  N3_7 
REMARK    5  A    between atoms: C12_19  and  C5_12 
REMARK    6  A    between atoms: C11_18  and  C13_20 
ROOT
HETATM    1  N1  UNK     1      30.875  -6.459  33.737  1.00  0.00     0.100 N 
HETATM    2  N2  UNK     1      31.620  -7.213  36.426  1.00  0.00     0.096 N 
HETATM    3  C1  UNK     1      31.298  -7.828  34.054  1.00  0.00     0.303 C 
HETATM    4  C2  UNK     1      31.513  -5.501  34.648  1.00  0.00     0.303 C 
HETATM    5  C3  UNK     1      30.984  -8.172  35.514  1.00  0.00     0.303 C 
HETATM    6  C4  UNK     1      31.196  -5.844  36.107  1.00  0.00     0.303 C 
ENDROOT
BRANCH   2   7
HETATM    7  C11 UNK     1      31.315  -7.541  37.817  1.00  0.00     0.312 C 
BRANCH   7   8
HETATM    8  C13 UNK     1      30.189  -6.728  38.354  1.00  0.00    -0.011 A 
HETATM    9  C14 UNK     1      28.833  -7.288  38.393  1.00  0.00     0.009 A 
HETATM   10  C16 UNK     1      27.799  -6.501  38.902  1.00  0.00     0.090 A 
HETATM   11  C17 UNK     1      28.510  -8.577  37.948  1.00  0.00     0.051 A 
HETATM   12  O2  UNK     1      28.040  -5.195  39.371  1.00  0.00    -0.275 OA
HETATM   13  C19 UNK     1      26.481  -6.958  38.975  1.00  0.00     0.041 A 
HETATM   14  C18 UNK     1      29.310  -4.640  39.347  1.00  0.00     0.288 A 
HETATM   15  C15 UNK     1      30.390  -5.481  38.808  1.00  0.00     0.092 A 
HETATM   16  O4  UNK     1      29.531  -3.504  39.753  1.00  0.00    -0.260 OA
HETATM   17  C21 UNK     1      26.181  -8.240  38.528  1.00  0.00     0.039 A 
HETATM   18  C20 UNK     1      27.194  -9.048  38.016  1.00  0.00     0.069 A 
BRANCH  18  19
HETATM   19  O3  UNK     1      26.901 -10.305  37.578  1.00  0.00    -0.351 OA
BRANCH  19  20
HETATM   20  C22 UNK     1      26.238 -10.415  36.320  1.00  0.00     0.171 C 
HETATM   21  C23 UNK     1      25.341 -11.635  36.341  1.00  0.00     0.034 C 
ENDBRANCH  19  20
ENDBRANCH  18  19
ENDBRANCH   7   8
ENDBRANCH   2   7
BRANCH   1  22
HETATM   22  C5  UNK     1      31.177  -6.131  32.344  1.00  0.00     0.374 C 
BRANCH  22  23
HETATM   23  C12 UNK     1      29.960  -5.614  31.621  1.00  0.00     0.248 C 
HETATM   24  N3  UNK     1      29.257  -6.533  30.843  1.00  0.00    -0.351 N 
HETATM   25  C6  UNK     1      28.062  -6.107  30.112  1.00  0.00     0.126 C 
HETATM   26  C7  UNK     1      29.632  -7.938  30.641  1.00  0.00     0.126 C 
HETATM   27  C8  UNK     1      26.869  -6.998  30.448  1.00  0.00     0.020 C 
HETATM   28  C10 UNK     1      27.202  -8.473  30.228  1.00  0.00     0.003 C 
HETATM   29  C9  UNK     1      28.470  -8.866  30.985  1.00  0.00     0.020 C 
HETATM   30  O1  UNK     1      29.644  -4.427  31.745  1.00  0.00    -0.271 OA
ENDBRANCH  22  23
ENDBRANCH   1  22
TORSDOF 6
ENDMDL
MODEL 7
REMARK VINA RESULT:      -8.2     13.273     16.064
REMARK  6 active torsions:
REMARK  status: ('A' for Active; 'I' for Inactive)
REMARK    1  A    between atoms: C20_27  and  O3_3 
REMARK    2  A    between atoms: C22_29  and  O3_3 
REMARK    3  A    between atoms: C5_12  and  N1_5 
REMARK    4  A    between atoms: C11_18  and  N2_6 
REMARK       I    between atoms: C12_19  and  N3_7 
REMARK    5  A    between atoms: C12_19  and  C5_12 
REMARK    6  A    between atoms: C11_18  and  C13_20 
ROOT
HETATM    1  N1  UNK     1      29.250  -7.271  36.080  1.00  0.00     0.100 N 
HETATM    2  N2  UNK     1      26.921  -8.859  36.722  1.00  0.00     0.096 N 
HETATM    3  C1  UNK     1      28.028  -6.652  36.607  1.00  0.00     0.303 C 
HETATM    4  C2  UNK     1      28.924  -8.486  35.324  1.00  0.00     0.303 C 
HETATM    5  C3  UNK     1      27.246  -7.642  37.477  1.00  0.00     0.303 C 
HETATM    6  C4  UNK     1      28.144  -9.477  36.195  1.00  0.00     0.303 C 
ENDROOT
BRANCH   2   7
HETATM    7  C11 UNK     1      26.179  -9.803  37.554  1.00  0.00     0.312 C 
BRANCH   7   8
HETATM    8  C13 UNK     1      25.119 -10.516  36.789  1.00  0.00    -0.011 A 
HETATM    9  C14 UNK     1      23.800  -9.896  36.609  1.00  0.00     0.009 A 
HETATM   10  C16 UNK     1      22.829 -10.589  35.886  1.00  0.00     0.090 A 
HETATM   11  C17 UNK     1      23.455  -8.638  37.122  1.00  0.00     0.051 A 
HETATM   12  O2  UNK     1      23.096 -11.859  35.337  1.00  0.00    -0.275 OA
HETATM   13  C19 UNK     1      21.550 -10.071  35.668  1.00  0.00     0.041 A 
HETATM   14  C18 UNK     1      24.331 -12.468  35.489  1.00  0.00     0.288 A 
HETATM   15  C15 UNK     1      25.346 -11.725  36.254  1.00  0.00     0.092 A 
HETATM   16  O4  UNK     1      24.575 -13.573  35.015  1.00  0.00    -0.260 OA
HETATM   17  C21 UNK     1      21.227  -8.821  36.186  1.00  0.00     0.039 A 
HETATM   18  C20 UNK     1      22.178  -8.106  36.911  1.00  0.00     0.069 A 
BRANCH  18  19
HETATM   19  O3  UNK     1      21.863  -6.881  37.418  1.00  0.00    -0.351 OA
BRANCH  19  20
HETATM   20  C22 UNK     1      21.838  -6.755  38.839  1.00  0.00     0.171 C 
HETATM   21  C23 UNK     1      20.441  -7.060  39.337  1.00  0.00     0.034 C 
ENDBRANCH  19  20
ENDBRANCH  18  19
ENDBRANCH   7   8
ENDBRANCH   2   7
BRANCH   1  22
HETATM   22  C5  UNK     1      29.994  -6.326  35.249  1.00  0.00     0.374 C 
BRANCH  22  23
HETATM   23  C12 UNK     1      31.060  -5.613  36.041  1.00  0.00     0.248 C 
HETATM   24  N3  UNK     1      32.382  -5.955  35.759  1.00  0.00    -0.351 N 
HETATM   25  C6  UNK     1      33.474  -5.304  36.484  1.00  0.00     0.126 C 
HETATM   26  C7  UNK     1      32.808  -6.978  34.795  1.00  0.00     0.126 C 
HETATM   27  C8  UNK     1      34.483  -4.691  35.518  1.00  0.00     0.020 C 
HETATM   28  C10 UNK     1      34.979  -5.725  34.507  1.00  0.00     0.003 C 
HETATM   29  C9  UNK     1      33.806  -6.398  33.795  1.00  0.00     0.020 C 
HETATM   30  O1  UNK     1      30.726  -4.776  36.884  1.00  0.00    -0.271 OA
ENDBRANCH  22  23
ENDBRANCH   1  22
TORSDOF 6
ENDMDL
MODEL 8
REMARK VINA RESULT:      -8.2     12.987     16.847
REMARK  6 active torsions:
REMARK  status: ('A' for Active; 'I' for Inactive)
REMARK    1  A    between atoms: C20_27  and  O3_3 
REMARK    2  A    between atoms: C22_29  and  O3_3 
REMARK    3  A    between atoms: C5_12  and  N1_5 
REMARK    4  A    between atoms: C11_18  and  N2_6 
REMARK       I    between atoms: C12_19  and  N3_7 
REMARK    5  A    between atoms: C12_19  and  C5_12 
REMARK    6  A    between atoms: C11_18  and  C13_20 
ROOT
HETATM    1  N1  UNK     1      29.757  -9.121  37.914  1.00  0.00     0.100 N 
HETATM    2  N2  UNK     1      26.924  -9.430  37.436  1.00  0.00     0.096 N 
HETATM    3  C1  UNK     1      29.213  -9.142  36.551  1.00  0.00     0.303 C 
HETATM    4  C2  UNK     1      28.915  -9.917  38.814  1.00  0.00     0.303 C 
HETATM    5  C3  UNK     1      27.766  -8.636  36.534  1.00  0.00     0.303 C 
HETATM    6  C4  UNK     1      27.469  -9.410  38.798  1.00  0.00     0.303 C 
ENDROOT
BRANCH   2   7
HETATM    7  C11 UNK     1      25.545  -8.944  37.420  1.00  0.00     0.312 C 
BRANCH   7   8
HETATM    8  C13 UNK     1      24.621  -9.892  36.739  1.00  0.00    -0.011 A 
HETATM    9  C14 UNK     1      23.210  -9.533  36.549  1.00  0.00     0.009 A 
HETATM   10  C16 UNK     1      22.369 -10.442  35.907  1.00  0.00     0.090 A 
HETATM   11  C17 UNK     1      22.651  -8.320  36.977  1.00  0.00     0.051 A 
HETATM   12  O2  UNK     1      22.853 -11.683  35.446  1.00  0.00    -0.275 OA
HETATM   13  C19 UNK     1      21.015 -10.179  35.686  1.00  0.00     0.041 A 
HETATM   14  C18 UNK     1      24.180 -12.049  35.610  1.00  0.00     0.288 A 
HETATM   15  C15 UNK     1      25.055 -11.079  36.290  1.00  0.00     0.092 A 
HETATM   16  O4  UNK     1      24.612 -13.125  35.213  1.00  0.00    -0.260 OA
HETATM   17  C21 UNK     1      20.480  -8.971  36.118  1.00  0.00     0.039 A 
HETATM   18  C20 UNK     1      21.297  -8.043  36.762  1.00  0.00     0.069 A 
BRANCH  18  19
HETATM   19  O3  UNK     1      20.773  -6.858  37.185  1.00  0.00    -0.351 OA
BRANCH  19  20
HETATM   20  C22 UNK     1      21.013  -6.491  38.543  1.00  0.00     0.171 C 
HETATM   21  C23 UNK     1      20.034  -7.228  39.433  1.00  0.00     0.034 C 
ENDBRANCH  19  20
ENDBRANCH  18  19
ENDBRANCH   7   8
ENDBRANCH   2   7
BRANCH   1  22
HETATM   22  C5  UNK     1      31.137  -9.605  37.929  1.00  0.00     0.374 C 
BRANCH  22  23
HETATM   23  C12 UNK     1      32.121  -8.479  37.744  1.00  0.00     0.248 C 
HETATM   24  N3  UNK     1      32.765  -8.407  36.510  1.00  0.00    -0.351 N 
HETATM   25  C6  UNK     1      33.733  -7.339  36.253  1.00  0.00     0.126 C 
HETATM   26  C7  UNK     1      32.594  -9.360  35.406  1.00  0.00     0.126 C 
HETATM   27  C8  UNK     1      33.378  -6.574  34.981  1.00  0.00     0.020 C 
HETATM   28  C10 UNK     1      33.215  -7.522  33.793  1.00  0.00     0.003 C 
HETATM   29  C9  UNK     1      32.219  -8.635  34.116  1.00  0.00     0.020 C 
HETATM   30  O1  UNK     1      32.310  -7.686  38.671  1.00  0.00    -0.271 OA
ENDBRANCH  22  23
ENDBRANCH   1  22
TORSDOF 6
ENDMDL
MODEL 9
REMARK VINA RESULT:      -8.2      2.978      4.307
REMARK  6 active torsions:
REMARK  status: ('A' for Active; 'I' for Inactive)
REMARK    1  A    between atoms: C20_27  and  O3_3 
REMARK    2  A    between atoms: C22_29  and  O3_3 
REMARK    3  A    between atoms: C5_12  and  N1_5 
REMARK    4  A    between atoms: C11_18  and  N2_6 
REMARK       I    between atoms: C12_19  and  N3_7 
REMARK    5  A    between atoms: C12_19  and  C5_12 
REMARK    6  A    between atoms: C11_18  and  C13_20 
ROOT
HETATM    1  N1  UNK     1      15.664   8.381  33.499  1.00  0.00     0.100 N 
HETATM    2  N2  UNK     1      17.371   6.210  32.647  1.00  0.00     0.096 N 
HETATM    3  C1  UNK     1      15.946   7.243  34.382  1.00  0.00     0.303 C 
HETATM    4  C2  UNK     1      15.724   7.966  32.092  1.00  0.00     0.303 C 
HETATM    5  C3  UNK     1      17.309   6.623  34.055  1.00  0.00     0.303 C 
HETATM    6  C4  UNK     1      17.088   7.348  31.765  1.00  0.00     0.303 C 
ENDROOT
BRANCH   2   7
HETATM    7  C11 UNK     1      18.673   5.623  32.336  1.00  0.00     0.312 C 
BRANCH   7   8
HETATM    8  C13 UNK     1      18.551   4.247  31.779  1.00  0.00    -0.011 A 
HETATM    9  C14 UNK     1      18.450   3.095  32.684  1.00  0.00     0.009 A 
HETATM   10  C16 UNK     1      18.337   1.819  32.132  1.00  0.00     0.090 A 
HETATM   11  C17 UNK     1      18.460   3.200  34.082  1.00  0.00     0.051 A 
HETATM   12  O2  UNK     1      18.319   1.628  30.736  1.00  0.00    -0.275 OA
HETATM   13  C19 UNK     1      18.236   0.670  32.921  1.00  0.00     0.041 A 
HETATM   14  C18 UNK     1      18.412   2.695  29.857  1.00  0.00     0.288 A 
HETATM   15  C15 UNK     1      18.531   4.036  30.455  1.00  0.00     0.092 A 
HETATM   16  O4  UNK     1      18.396   2.541  28.641  1.00  0.00    -0.260 OA
HETATM   17  C21 UNK     1      18.248   0.796  34.306  1.00  0.00     0.039 A 
HETATM   18  C20 UNK     1      18.359   2.059  34.885  1.00  0.00     0.069 A 
BRANCH  18  19
HETATM   19  O3  UNK     1      18.370   2.183  36.242  1.00  0.00    -0.351 OA
BRANCH  19  20
HETATM   20  C22 UNK     1      17.232   1.690  36.948  1.00  0.00     0.171 C 
HETATM   21  C23 UNK     1      17.669   0.564  37.861  1.00  0.00     0.034 C 
ENDBRANCH  19  20
ENDBRANCH  18  19
ENDBRANCH   7   8
ENDBRANCH   2   7
BRANCH   1  22
HETATM   22  C5  UNK     1      14.363   8.970  33.811  1.00  0.00     0.374 C 
BRANCH  22  23
HETATM   23  C12 UNK     1      14.508  10.247  34.599  1.00  0.00     0.248 C 
HETATM   24  N3  UNK     1      13.901  11.383  34.067  1.00  0.00    -0.351 N 
HETATM   25  C6  UNK     1      13.995  12.661  34.776  1.00  0.00     0.126 C 
HETATM   26  C7  UNK     1      13.180  11.441  32.790  1.00  0.00     0.126 C 
HETATM   27  C8  UNK     1      12.611  13.260  35.009  1.00  0.00     0.020 C 
HETATM   28  C10 UNK     1      11.827  13.366  33.701  1.00  0.00     0.003 C 
HETATM   29  C9  UNK     1      11.779  12.018  32.983  1.00  0.00     0.020 C 
HETATM   30  O1  UNK     1      15.142  10.233  35.658  1.00  0.00    -0.271 OA
ENDBRANCH  22  23
ENDBRANCH   1  22
TORSDOF 6
ENDMDL
MODEL 10
REMARK VINA RESULT:      -8.1      8.124     11.314
REMARK  6 active torsions:
REMARK  status: ('A' for Active; 'I' for Inactive)
REMARK    1  A    between atoms: C20_27  and  O3_3 
REMARK    2  A    between atoms: C22_29  and  O3_3 
REMARK    3  A    between atoms: C5_12  and  N1_5 
REMARK    4  A    between atoms: C11_18  and  N2_6 
REMARK       I    between atoms: C12_19  and  N3_7 
REMARK    5  A    between atoms: C12_19  and  C5_12 
REMARK    6  A    between atoms: C11_18  and  C13_20 
ROOT
HETATM    1  N1  UNK     1      19.837  -4.263  37.050  1.00  0.00     0.100 N 
HETATM    2  N2  UNK     1      21.501  -6.593  37.446  1.00  0.00     0.096 N 
HETATM    3  C1  UNK     1      19.493  -5.556  36.447  1.00  0.00     0.303 C 
HETATM    4  C2  UNK     1      21.291  -4.142  37.209  1.00  0.00     0.303 C 
HETATM    5  C3  UNK     1      20.047  -6.714  37.284  1.00  0.00     0.303 C 
HETATM    6  C4  UNK     1      21.844  -5.299  38.048  1.00  0.00     0.303 C 
ENDROOT
BRANCH   2   7
HETATM    7  C11 UNK     1      22.028  -7.696  38.248  1.00  0.00     0.312 C 
BRANCH   7   8
HETATM    8  C13 UNK     1      22.713  -8.721  37.413  1.00  0.00    -0.011 A 
HETATM    9  C14 UNK     1      24.158  -8.941  37.561  1.00  0.00     0.009 A 
HETATM   10  C16 UNK     1      24.771  -9.909  36.765  1.00  0.00     0.090 A 
HETATM   11  C17 UNK     1      24.965  -8.232  38.461  1.00  0.00     0.051 A 
HETATM   12  O2  UNK     1      24.030 -10.665  35.835  1.00  0.00    -0.275 OA
HETATM   13  C19 UNK     1      26.139 -10.181  36.842  1.00  0.00     0.041 A 
HETATM   14  C18 UNK     1      22.666 -10.480  35.675  1.00  0.00     0.288 A 
HETATM   15  C15 UNK     1      22.032  -9.456  36.521  1.00  0.00     0.092 A 
HETATM   16  O4  UNK     1      22.011 -11.133  34.870  1.00  0.00    -0.260 OA
HETATM   17  C21 UNK     1      26.922  -9.466  37.742  1.00  0.00     0.039 A 
HETATM   18  C20 UNK     1      26.337  -8.494  38.550  1.00  0.00     0.069 A 
BRANCH  18  19
HETATM   19  O3  UNK     1      27.104  -7.795  39.432  1.00  0.00    -0.351 OA
BRANCH  19  20
HETATM   20  C22 UNK     1      28.227  -7.093  38.900  1.00  0.00     0.171 C 
HETATM   21  C23 UNK     1      27.841  -5.646  38.674  1.00  0.00     0.034 C 
ENDBRANCH  19  20
ENDBRANCH  18  19
ENDBRANCH   7   8
ENDBRANCH   2   7
BRANCH   1  22
HETATM   22  C5  UNK     1      19.308  -3.160  36.250  1.00  0.00     0.374 C 
BRANCH  22  23
HETATM   23  C12 UNK     1      18.862  -2.010  37.117  1.00  0.00     0.248 C 
HETATM   24  N3  UNK     1      18.207  -0.961  36.476  1.00  0.00    -0.351 N 
HETATM   25  C6  UNK     1      17.740   0.191  37.251  1.00  0.00     0.126 C 
HETATM   26  C7  UNK     1      17.961  -0.868  35.031  1.00  0.00     0.126 C 
HETATM   27  C8  UNK     1      16.255   0.446  37.011  1.00  0.00     0.020 C 
HETATM   28  C10 UNK     1      15.951   0.576  35.518  1.00  0.00     0.003 C 
HETATM   29  C9  UNK     1      16.480  -0.632  34.747  1.00  0.00     0.020 C 
HETATM   30  O1  UNK     1      19.090  -2.047  38.329  1.00  0.00    -0.271 OA
ENDBRANCH  22  23
ENDBRANCH   1  22
TORSDOF 6
ENDMDL
