MODEL 1
REMARK VINA RESULT:     -10.5      0.000      0.000
REMARK  6 active torsions:
REMARK  status: ('A' for Active; 'I' for Inactive)
REMARK    1  A    between atoms: C19_26  and  O4_4 
REMARK    2  A    between atoms: C5_12  and  N1_5 
REMARK    3  A    between atoms: C6_13  and  N2_6 
REMARK    4  A    between atoms: C17_24  and  N3_7 
REMARK       I    between atoms: C9_16  and  N3_7 
REMARK    5  A    between atoms: C5_12  and  C7_14 
REMARK    6  A    between atoms: C6_13  and  C9_16 
ROOT
HETATM    1  N1  UNK     1      19.285  -3.168  36.247  1.00  0.00     0.096 N 
HETATM    2  N2  UNK     1      18.303  -0.549  35.515  1.00  0.00     0.100 N 
HETATM    3  C1  UNK     1      18.512  -2.353  37.191  1.00  0.00     0.303 C 
HETATM    4  C2  UNK     1      20.026  -2.309  35.314  1.00  0.00     0.303 C 
HETATM    5  C3  UNK     1      17.562  -1.408  36.447  1.00  0.00     0.303 C 
HETATM    6  C4  UNK     1      19.075  -1.365  34.570  1.00  0.00     0.303 C 
ENDROOT
BRANCH   1   7
HETATM    7  C5  UNK     1      20.193  -4.066  36.958  1.00  0.00     0.312 C 
BRANCH   7   8
HETATM    8  C7  UNK     1      20.180  -5.444  36.393  1.00  0.00    -0.011 A 
HETATM    9  C10 UNK     1      20.269  -5.652  35.071  1.00  0.00     0.092 A 
HETATM   10  C13 UNK     1      20.260  -6.994  34.467  1.00  0.00     0.288 A 
HETATM   11  O1  UNK     1      20.155  -8.068  35.337  1.00  0.00    -0.275 OA
HETATM   12  O3  UNK     1      20.345  -7.146  33.254  1.00  0.00    -0.260 OA
HETATM   13  C11 UNK     1      20.059  -7.882  36.731  1.00  0.00     0.090 A 
HETATM   14  C14 UNK     1      19.956  -9.036  37.510  1.00  0.00     0.045 A 
HETATM   15  C8  UNK     1      20.068  -6.602  37.289  1.00  0.00     0.006 A 
HETATM   16  C15 UNK     1      19.859  -8.913  38.892  1.00  0.00    -0.059 A 
HETATM   17  C16 UNK     1      19.864  -7.649  39.478  1.00  0.00     0.007 A 
HETATM   18  C18 UNK     1      19.747 -10.132  39.745  1.00  0.00     0.048 C 
HETATM   19  C12 UNK     1      19.969  -6.502  38.683  1.00  0.00     0.015 A 
ENDBRANCH   7   8
ENDBRANCH   1   7
BRANCH   2  20
HETATM   20  C6  UNK     1      17.397   0.350  34.805  1.00  0.00     0.375 C 
BRANCH  20  21
HETATM   21  C9  UNK     1      18.164   1.575  34.336  1.00  0.00     0.250 C 
HETATM   22  O2  UNK     1      19.080   2.069  34.985  1.00  0.00    -0.271 OA
HETATM   23  N3  UNK     1      17.673   2.009  33.106  1.00  0.00    -0.323 N 
HETATM   24  H15 UNK     1      16.913   1.479  32.685  1.00  0.00     0.169 HD
BRANCH  23  25
HETATM   25  C17 UNK     1      18.118   3.112  32.341  1.00  0.00     0.068 A 
HETATM   26  C19 UNK     1      18.396   2.968  30.981  1.00  0.00     0.095 A 
HETATM   27  C21 UNK     1      18.834   4.065  30.239  1.00  0.00     0.039 A 
HETATM   28  C23 UNK     1      18.994   5.306  30.855  1.00  0.00     0.003 A 
HETATM   29  C22 UNK     1      18.715   5.449  32.215  1.00  0.00     0.002 A 
HETATM   30  C20 UNK     1      18.278   4.353  32.957  1.00  0.00     0.032 A 
BRANCH  26  31
HETATM   31  O4  UNK     1      18.247   1.764  30.358  1.00  0.00    -0.354 OA
HETATM   32  C24 UNK     1      18.000   1.788  28.955  1.00  0.00     0.210 C 
ENDBRANCH  26  31
ENDBRANCH  23  25
ENDBRANCH  20  21
ENDBRANCH   2  20
TORSDOF 6
ENDMDL
MODEL 2
REMARK VINA RESULT:     -10.2      5.770     12.389
REMARK  6 active torsions:
REMARK  status: ('A' for Active; 'I' for Inactive)
REMARK    1  A    between atoms: C19_26  and  O4_4 
REMARK    2  A    between atoms: C5_12  and  N1_5 
REMARK    3  A    between atoms: C6_13  and  N2_6 
REMARK    4  A    between atoms: C17_24  and  N3_7 
REMARK       I    between atoms: C9_16  and  N3_7 
REMARK    5  A    between atoms: C5_12  and  C7_14 
REMARK    6  A    between atoms: C6_13  and  C9_16 
ROOT
HETATM    1  N1  UNK     1      18.133   5.727  32.925  1.00  0.00     0.096 N 
HETATM    2  N2  UNK     1      18.894   4.140  30.631  1.00  0.00     0.100 N 
HETATM    3  C1  UNK     1      19.143   6.202  31.971  1.00  0.00     0.303 C 
HETATM    4  C2  UNK     1      18.125   4.260  32.976  1.00  0.00     0.303 C 
HETATM    5  C3  UNK     1      18.902   5.608  30.579  1.00  0.00     0.303 C 
HETATM    6  C4  UNK     1      17.883   3.667  31.584  1.00  0.00     0.303 C 
ENDROOT
BRANCH   1   7
HETATM    7  C5  UNK     1      18.367   6.292  34.252  1.00  0.00     0.312 C 
BRANCH   7   8
HETATM    8  C7  UNK     1      18.359   7.781  34.239  1.00  0.00    -0.011 A 
HETATM    9  C10 UNK     1      19.493   8.482  34.386  1.00  0.00     0.092 A 
HETATM   10  C13 UNK     1      19.534   9.954  34.380  1.00  0.00     0.288 A 
HETATM   11  O1  UNK     1      18.325  10.610  34.210  1.00  0.00    -0.275 OA
HETATM   12  O3  UNK     1      20.590  10.561  34.516  1.00  0.00    -0.260 OA
HETATM   13  C11 UNK     1      17.116   9.901  34.053  1.00  0.00     0.090 A 
HETATM   14  C14 UNK     1      15.960  10.666  33.891  1.00  0.00     0.045 A 
HETATM   15  C8  UNK     1      17.093   8.505  34.062  1.00  0.00     0.006 A 
HETATM   16  C15 UNK     1      14.738  10.022  33.731  1.00  0.00    -0.059 A 
HETATM   17  C16 UNK     1      14.683   8.629  33.737  1.00  0.00     0.007 A 
HETATM   18  C18 UNK     1      13.489  10.818  33.557  1.00  0.00     0.048 C 
HETATM   19  C12 UNK     1      15.852   7.876  33.900  1.00  0.00     0.015 A 
ENDBRANCH   7   8
ENDBRANCH   1   7
BRANCH   2  20
HETATM   20  C6  UNK     1      18.662   3.575  29.304  1.00  0.00     0.375 C 
BRANCH  20  21
HETATM   21  C9  UNK     1      18.521   2.066  29.414  1.00  0.00     0.250 C 
HETATM   22  O2  UNK     1      17.519   1.467  29.036  1.00  0.00    -0.271 OA
HETATM   23  N3  UNK     1      19.667   1.515  29.984  1.00  0.00    -0.323 N 
HETATM   24  H15 UNK     1      20.424   2.147  30.233  1.00  0.00     0.169 HD
BRANCH  23  25
HETATM   25  C17 UNK     1      19.925   0.150  30.254  1.00  0.00     0.068 A 
HETATM   26  C19 UNK     1      19.534  -0.421  31.465  1.00  0.00     0.095 A 
HETATM   27  C21 UNK     1      19.794  -1.768  31.718  1.00  0.00     0.039 A 
HETATM   28  C23 UNK     1      20.445  -2.544  30.759  1.00  0.00     0.003 A 
HETATM   29  C22 UNK     1      20.835  -1.973  29.547  1.00  0.00     0.002 A 
HETATM   30  C20 UNK     1      20.575  -0.626  29.295  1.00  0.00     0.032 A 
BRANCH  26  31
HETATM   31  O4  UNK     1      18.897   0.319  32.416  1.00  0.00    -0.354 OA
HETATM   32  C24 UNK     1      18.455  -0.369  33.584  1.00  0.00     0.210 C 
ENDBRANCH  26  31
ENDBRANCH  23  25
ENDBRANCH  20  21
ENDBRANCH   2  20
TORSDOF 6
ENDMDL
MODEL 3
REMARK VINA RESULT:     -10.2      1.735      2.597
REMARK  6 active torsions:
REMARK  status: ('A' for Active; 'I' for Inactive)
REMARK    1  A    between atoms: C19_26  and  O4_4 
REMARK    2  A    between atoms: C5_12  and  N1_5 
REMARK    3  A    between atoms: C6_13  and  N2_6 
REMARK    4  A    between atoms: C17_24  and  N3_7 
REMARK       I    between atoms: C9_16  and  N3_7 
REMARK    5  A    between atoms: C5_12  and  C7_14 
REMARK    6  A    between atoms: C6_13  and  C9_16 
ROOT
HETATM    1  N1  UNK     1      19.373  -3.685  36.349  1.00  0.00     0.096 N 
HETATM    2  N2  UNK     1      18.899  -0.899  35.741  1.00  0.00     0.100 N 
HETATM    3  C1  UNK     1      18.369  -2.905  37.083  1.00  0.00     0.303 C 
HETATM    4  C2  UNK     1      20.455  -2.813  35.876  1.00  0.00     0.303 C 
HETATM    5  C3  UNK     1      17.816  -1.770  36.214  1.00  0.00     0.303 C 
HETATM    6  C4  UNK     1      19.901  -1.680  35.006  1.00  0.00     0.303 C 
ENDROOT
BRANCH   1   7
HETATM    7  C5  UNK     1      19.901  -4.764  37.181  1.00  0.00     0.312 C 
BRANCH   7   8
HETATM    8  C7  UNK     1      20.044  -6.039  36.425  1.00  0.00    -0.011 A 
HETATM    9  C10 UNK     1      20.321  -6.040  35.113  1.00  0.00     0.092 A 
HETATM   10  C13 UNK     1      20.471  -7.275  34.325  1.00  0.00     0.288 A 
HETATM   11  O1  UNK     1      20.314  -8.472  35.007  1.00  0.00    -0.275 OA
HETATM   12  O3  UNK     1      20.725  -7.237  33.127  1.00  0.00    -0.260 OA
HETATM   13  C11 UNK     1      20.023  -8.503  36.385  1.00  0.00     0.090 A 
HETATM   14  C14 UNK     1      19.884  -9.765  36.966  1.00  0.00     0.045 A 
HETATM   15  C8  UNK     1      19.882  -7.324  37.119  1.00  0.00     0.006 A 
HETATM   16  C15 UNK     1      19.597  -9.858  38.323  1.00  0.00    -0.059 A 
HETATM   17  C16 UNK     1      19.451  -8.698  39.082  1.00  0.00     0.007 A 
HETATM   18  C18 UNK     1      19.444 -11.196  38.966  1.00  0.00     0.048 C 
HETATM   19  C12 UNK     1      19.593  -7.440  38.485  1.00  0.00     0.015 A 
ENDBRANCH   7   8
ENDBRANCH   1   7
BRANCH   2  20
HETATM   20  C6  UNK     1      18.371   0.181  34.911  1.00  0.00     0.375 C 
BRANCH  20  21
HETATM   21  C9  UNK     1      18.215  -0.310  33.481  1.00  0.00     0.250 C 
HETATM   22  O2  UNK     1      17.300  -1.049  33.133  1.00  0.00    -0.271 OA
HETATM   23  N3  UNK     1      19.233   0.205  32.682  1.00  0.00    -0.323 N 
HETATM   24  H15 UNK     1      19.914   0.821  33.119  1.00  0.00     0.169 HD
BRANCH  23  25
HETATM   25  C17 UNK     1      19.439  -0.015  31.299  1.00  0.00     0.068 A 
HETATM   26  C19 UNK     1      18.956   0.892  30.355  1.00  0.00     0.095 A 
HETATM   27  C21 UNK     1      19.166   0.663  28.996  1.00  0.00     0.039 A 
HETATM   28  C23 UNK     1      19.860  -0.474  28.579  1.00  0.00     0.003 A 
HETATM   29  C22 UNK     1      20.343  -1.380  29.523  1.00  0.00     0.002 A 
HETATM   30  C20 UNK     1      20.132  -1.151  30.882  1.00  0.00     0.032 A 
BRANCH  26  31
HETATM   31  O4  UNK     1      18.275   2.009  30.741  1.00  0.00    -0.354 OA
HETATM   32  C24 UNK     1      18.713   3.253  30.199  1.00  0.00     0.210 C 
ENDBRANCH  26  31
ENDBRANCH  23  25
ENDBRANCH  20  21
ENDBRANCH   2  20
TORSDOF 6
ENDMDL
MODEL 4
REMARK VINA RESULT:     -10.2      5.737     12.730
REMARK  6 active torsions:
REMARK  status: ('A' for Active; 'I' for Inactive)
REMARK    1  A    between atoms: C19_26  and  O4_4 
REMARK    2  A    between atoms: C5_12  and  N1_5 
REMARK    3  A    between atoms: C6_13  and  N2_6 
REMARK    4  A    between atoms: C17_24  and  N3_7 
REMARK       I    between atoms: C9_16  and  N3_7 
REMARK    5  A    between atoms: C5_12  and  C7_14 
REMARK    6  A    between atoms: C6_13  and  C9_16 
ROOT
HETATM    1  N1  UNK     1      18.257   6.133  32.244  1.00  0.00     0.096 N 
HETATM    2  N2  UNK     1      19.012   4.148  30.283  1.00  0.00     0.100 N 
HETATM    3  C1  UNK     1      19.322   6.393  31.267  1.00  0.00     0.303 C 
HETATM    4  C2  UNK     1      18.171   4.698  32.540  1.00  0.00     0.303 C 
HETATM    5  C3  UNK     1      19.098   5.584  29.986  1.00  0.00     0.303 C 
HETATM    6  C4  UNK     1      17.946   3.889  31.257  1.00  0.00     0.303 C 
ENDROOT
BRANCH   1   7
HETATM    7  C5  UNK     1      18.474   6.904  33.467  1.00  0.00     0.312 C 
BRANCH   7   8
HETATM    8  C7  UNK     1      17.359   7.851  33.741  1.00  0.00    -0.011 A 
HETATM    9  C10 UNK     1      16.088   7.428  33.799  1.00  0.00     0.092 A 
HETATM   10  C13 UNK     1      14.954   8.328  34.067  1.00  0.00     0.288 A 
HETATM   11  O1  UNK     1      15.254   9.667  34.264  1.00  0.00    -0.275 OA
HETATM   12  O3  UNK     1      13.804   7.905  34.115  1.00  0.00    -0.260 OA
HETATM   13  C11 UNK     1      16.579  10.142  34.209  1.00  0.00     0.090 A 
HETATM   14  C14 UNK     1      16.762  11.510  34.421  1.00  0.00     0.045 A 
HETATM   15  C8  UNK     1      17.645   9.277  33.953  1.00  0.00     0.006 A 
HETATM   16  C15 UNK     1      18.049  12.035  34.379  1.00  0.00    -0.059 A 
HETATM   17  C16 UNK     1      19.132  11.196  34.125  1.00  0.00     0.007 A 
HETATM   18  C18 UNK     1      18.269  13.494  34.602  1.00  0.00     0.048 C 
HETATM   19  C12 UNK     1      18.932   9.827  33.914  1.00  0.00     0.015 A 
ENDBRANCH   7   8
ENDBRANCH   1   7
BRANCH   2  20
HETATM   20  C6  UNK     1      18.796   3.378  29.060  1.00  0.00     0.375 C 
BRANCH  20  21
HETATM   21  C9  UNK     1      18.571   1.918  29.416  1.00  0.00     0.250 C 
HETATM   22  O2  UNK     1      17.487   1.362  29.268  1.00  0.00    -0.271 OA
HETATM   23  N3  UNK     1      19.746   1.354  29.906  1.00  0.00    -0.323 N 
HETATM   24  H15 UNK     1      20.573   1.946  29.955  1.00  0.00     0.169 HD
BRANCH  23  25
HETATM   25  C17 UNK     1      19.948   0.023  30.344  1.00  0.00     0.068 A 
HETATM   26  C19 UNK     1      19.533  -0.378  31.614  1.00  0.00     0.095 A 
HETATM   27  C21 UNK     1      19.738  -1.693  32.031  1.00  0.00     0.039 A 
HETATM   28  C23 UNK     1      20.357  -2.607  31.179  1.00  0.00     0.003 A 
HETATM   29  C22 UNK     1      20.771  -2.206  29.909  1.00  0.00     0.002 A 
HETATM   30  C20 UNK     1      20.567  -0.891  29.492  1.00  0.00     0.032 A 
BRANCH  26  31
HETATM   31  O4  UNK     1      18.926   0.499  32.463  1.00  0.00    -0.354 OA
HETATM   32  C24 UNK     1      18.376  -0.037  33.664  1.00  0.00     0.210 C 
ENDBRANCH  26  31
ENDBRANCH  23  25
ENDBRANCH  20  21
ENDBRANCH   2  20
TORSDOF 6
ENDMDL
MODEL 5
REMARK VINA RESULT:      -9.7      1.836      2.521
REMARK  6 active torsions:
REMARK  status: ('A' for Active; 'I' for Inactive)
REMARK    1  A    between atoms: C19_26  and  O4_4 
REMARK    2  A    between atoms: C5_12  and  N1_5 
REMARK    3  A    between atoms: C6_13  and  N2_6 
REMARK    4  A    between atoms: C17_24  and  N3_7 
REMARK       I    between atoms: C9_16  and  N3_7 
REMARK    5  A    between atoms: C5_12  and  C7_14 
REMARK    6  A    between atoms: C6_13  and  C9_16 
ROOT
HETATM    1  N1  UNK     1      19.305  -2.468  35.877  1.00  0.00     0.096 N 
HETATM    2  N2  UNK     1      18.449   0.121  34.915  1.00  0.00     0.100 N 
HETATM    3  C1  UNK     1      19.030  -1.363  36.804  1.00  0.00     0.303 C 
HETATM    4  C2  UNK     1      19.756  -1.949  34.580  1.00  0.00     0.303 C 
HETATM    5  C3  UNK     1      17.997  -0.398  36.213  1.00  0.00     0.303 C 
HETATM    6  C4  UNK     1      18.722  -0.985  33.989  1.00  0.00     0.303 C 
ENDROOT
BRANCH   1   7
HETATM    7  C5  UNK     1      20.293  -3.385  36.442  1.00  0.00     0.312 C 
BRANCH   7   8
HETATM    8  C7  UNK     1      19.691  -4.691  36.831  1.00  0.00    -0.011 A 
HETATM    9  C10 UNK     1      18.462  -5.037  36.422  1.00  0.00     0.092 A 
HETATM   10  C13 UNK     1      17.826  -6.316  36.781  1.00  0.00     0.288 A 
HETATM   11  O1  UNK     1      18.564  -7.175  37.578  1.00  0.00    -0.275 OA
HETATM   12  O3  UNK     1      16.700  -6.598  36.387  1.00  0.00    -0.260 OA
HETATM   13  C11 UNK     1      19.859  -6.840  38.025  1.00  0.00     0.090 A 
HETATM   14  C14 UNK     1      20.508  -7.783  38.824  1.00  0.00     0.045 A 
HETATM   15  C8  UNK     1      20.448  -5.623  37.677  1.00  0.00     0.006 A 
HETATM   16  C15 UNK     1      21.787  -7.506  39.294  1.00  0.00    -0.059 A 
HETATM   17  C16 UNK     1      22.401  -6.299  38.963  1.00  0.00     0.007 A 
HETATM   18  C18 UNK     1      22.501  -8.498  40.150  1.00  0.00     0.048 C 
HETATM   19  C12 UNK     1      21.737  -5.365  38.160  1.00  0.00     0.015 A 
ENDBRANCH   7   8
ENDBRANCH   1   7
BRANCH   2  20
HETATM   20  C6  UNK     1      17.463   1.039  34.351  1.00  0.00     0.375 C 
BRANCH  20  21
HETATM   21  C9  UNK     1      18.154   2.324  33.926  1.00  0.00     0.250 C 
HETATM   22  O2  UNK     1      18.959   2.910  34.643  1.00  0.00    -0.271 OA
HETATM   23  N3  UNK     1      17.738   2.695  32.649  1.00  0.00    -0.323 N 
HETATM   24  H15 UNK     1      17.070   2.092  32.174  1.00  0.00     0.169 HD
BRANCH  23  25
HETATM   25  C17 UNK     1      18.147   3.825  31.903  1.00  0.00     0.068 A 
HETATM   26  C19 UNK     1      17.873   5.115  32.358  1.00  0.00     0.095 A 
HETATM   27  C21 UNK     1      18.283   6.220  31.612  1.00  0.00     0.039 A 
HETATM   28  C23 UNK     1      18.967   6.036  30.411  1.00  0.00     0.003 A 
HETATM   29  C22 UNK     1      19.241   4.746  29.956  1.00  0.00     0.002 A 
HETATM   30  C20 UNK     1      18.831   3.641  30.702  1.00  0.00     0.032 A 
BRANCH  26  31
HETATM   31  O4  UNK     1      17.205   5.318  33.530  1.00  0.00    -0.354 OA
HETATM   32  C24 UNK     1      17.228   6.638  34.068  1.00  0.00     0.210 C 
ENDBRANCH  26  31
ENDBRANCH  23  25
ENDBRANCH  20  21
ENDBRANCH   2  20
TORSDOF 6
ENDMDL
MODEL 6
REMARK VINA RESULT:      -9.6      3.530     10.747
REMARK  6 active torsions:
REMARK  status: ('A' for Active; 'I' for Inactive)
REMARK    1  A    between atoms: C19_26  and  O4_4 
REMARK    2  A    between atoms: C5_12  and  N1_5 
REMARK    3  A    between atoms: C6_13  and  N2_6 
REMARK    4  A    between atoms: C17_24  and  N3_7 
REMARK       I    between atoms: C9_16  and  N3_7 
REMARK    5  A    between atoms: C5_12  and  C7_14 
REMARK    6  A    between atoms: C6_13  and  C9_16 
ROOT
HETATM    1  N1  UNK     1      19.975  -4.175  36.627  1.00  0.00     0.096 N 
HETATM    2  N2  UNK     1      20.083  -7.043  36.971  1.00  0.00     0.100 N 
HETATM    3  C1  UNK     1      19.823  -5.085  35.486  1.00  0.00     0.303 C 
HETATM    4  C2  UNK     1      20.814  -4.788  37.664  1.00  0.00     0.303 C 
HETATM    5  C3  UNK     1      19.243  -6.431  35.933  1.00  0.00     0.303 C 
HETATM    6  C4  UNK     1      20.233  -6.133  38.112  1.00  0.00     0.303 C 
ENDROOT
BRANCH   1   7
HETATM    7  C5  UNK     1      20.531  -2.893  36.199  1.00  0.00     0.312 C 
BRANCH   7   8
HETATM    8  C7  UNK     1      19.577  -2.119  35.357  1.00  0.00    -0.011 A 
HETATM    9  C10 UNK     1      18.514  -1.507  35.897  1.00  0.00     0.092 A 
HETATM   10  C13 UNK     1      17.545  -0.731  35.105  1.00  0.00     0.288 A 
HETATM   11  O1  UNK     1      17.778  -0.652  33.741  1.00  0.00    -0.275 OA
HETATM   12  O3  UNK     1      16.585  -0.184  35.634  1.00  0.00    -0.260 OA
HETATM   13  C11 UNK     1      18.886  -1.285  33.143  1.00  0.00     0.090 A 
HETATM   14  C14 UNK     1      19.020  -1.139  31.761  1.00  0.00     0.045 A 
HETATM   15  C8  UNK     1      19.796  -2.018  33.907  1.00  0.00     0.006 A 
HETATM   16  C15 UNK     1      20.094  -1.741  31.117  1.00  0.00    -0.059 A 
HETATM   17  C16 UNK     1      21.019  -2.479  31.853  1.00  0.00     0.007 A 
HETATM   18  C18 UNK     1      20.258  -1.599  29.641  1.00  0.00     0.048 C 
HETATM   19  C12 UNK     1      20.872  -2.617  33.238  1.00  0.00     0.015 A 
ENDBRANCH   7   8
ENDBRANCH   1   7
BRANCH   2  20
HETATM   20  C6  UNK     1      19.529  -8.325  37.398  1.00  0.00     0.375 C 
BRANCH  20  21
HETATM   21  C9  UNK     1      20.657  -9.321  37.606  1.00  0.00     0.250 C 
HETATM   22  O2  UNK     1      20.660 -10.135  38.524  1.00  0.00    -0.271 OA
HETATM   23  N3  UNK     1      21.630  -9.158  36.622  1.00  0.00    -0.323 N 
HETATM   24  H15 UNK     1      21.476  -8.443  35.915  1.00  0.00     0.169 HD
BRANCH  23  25
HETATM   25  C17 UNK     1      22.832  -9.890  36.468  1.00  0.00     0.068 A 
HETATM   26  C19 UNK     1      24.048  -9.358  36.899  1.00  0.00     0.095 A 
HETATM   27  C21 UNK     1      25.224 -10.090  36.742  1.00  0.00     0.039 A 
HETATM   28  C23 UNK     1      25.186 -11.355  36.153  1.00  0.00     0.003 A 
HETATM   29  C22 UNK     1      23.970 -11.886  35.723  1.00  0.00     0.002 A 
HETATM   30  C20 UNK     1      22.794 -11.153  35.880  1.00  0.00     0.032 A 
BRANCH  26  31
HETATM   31  O4  UNK     1      24.108  -8.125  37.477  1.00  0.00    -0.354 OA
HETATM   32  C24 UNK     1      24.381  -8.077  38.875  1.00  0.00     0.210 C 
ENDBRANCH  26  31
ENDBRANCH  23  25
ENDBRANCH  20  21
ENDBRANCH   2  20
TORSDOF 6
ENDMDL
MODEL 7
REMARK VINA RESULT:      -9.3      2.400      3.099
REMARK  6 active torsions:
REMARK  status: ('A' for Active; 'I' for Inactive)
REMARK    1  A    between atoms: C19_26  and  O4_4 
REMARK    2  A    between atoms: C5_12  and  N1_5 
REMARK    3  A    between atoms: C6_13  and  N2_6 
REMARK    4  A    between atoms: C17_24  and  N3_7 
REMARK       I    between atoms: C9_16  and  N3_7 
REMARK    5  A    between atoms: C5_12  and  C7_14 
REMARK    6  A    between atoms: C6_13  and  C9_16 
ROOT
HETATM    1  N1  UNK     1      19.447  -2.873  36.743  1.00  0.00     0.096 N 
HETATM    2  N2  UNK     1      18.771  -0.252  35.727  1.00  0.00     0.100 N 
HETATM    3  C1  UNK     1      18.423  -2.045  37.391  1.00  0.00     0.303 C 
HETATM    4  C2  UNK     1      20.452  -2.027  36.087  1.00  0.00     0.303 C 
HETATM    5  C3  UNK     1      17.765  -1.098  36.382  1.00  0.00     0.303 C 
HETATM    6  C4  UNK     1      19.793  -1.082  35.077  1.00  0.00     0.303 C 
ENDROOT
BRANCH   1   7
HETATM    7  C5  UNK     1      20.075  -3.773  37.708  1.00  0.00     0.312 C 
BRANCH   7   8
HETATM    8  C7  UNK     1      20.282  -5.139  37.152  1.00  0.00    -0.011 A 
HETATM    9  C10 UNK     1      19.487  -5.623  36.187  1.00  0.00     0.092 A 
HETATM   10  C13 UNK     1      19.655  -6.966  35.607  1.00  0.00     0.288 A 
HETATM   11  O1  UNK     1      20.694  -7.735  36.107  1.00  0.00    -0.275 OA
HETATM   12  O3  UNK     1      18.909  -7.375  34.725  1.00  0.00    -0.260 OA
HETATM   13  C11 UNK     1      21.547  -7.254  37.121  1.00  0.00     0.090 A 
HETATM   14  C14 UNK     1      22.559  -8.116  37.547  1.00  0.00     0.045 A 
HETATM   15  C8  UNK     1      21.375  -5.978  37.661  1.00  0.00     0.006 A 
HETATM   16  C15 UNK     1      23.431  -7.695  38.545  1.00  0.00    -0.059 A 
HETATM   17  C16 UNK     1      23.284  -6.427  39.105  1.00  0.00     0.007 A 
HETATM   18  C18 UNK     1      24.520  -8.599  39.018  1.00  0.00     0.048 C 
HETATM   19  C12 UNK     1      22.264  -5.574  38.666  1.00  0.00     0.015 A 
ENDBRANCH   7   8
ENDBRANCH   1   7
BRANCH   2  20
HETATM   20  C6  UNK     1      18.144   0.648  34.763  1.00  0.00     0.375 C 
BRANCH  20  21
HETATM   21  C9  UNK     1      18.174   0.014  33.383  1.00  0.00     0.250 C 
HETATM   22  O2  UNK     1      17.528  -0.991  33.104  1.00  0.00    -0.271 OA
HETATM   23  N3  UNK     1      19.013   0.737  32.538  1.00  0.00    -0.323 N 
HETATM   24  H15 UNK     1      19.471   1.563  32.918  1.00  0.00     0.169 HD
BRANCH  23  25
HETATM   25  C17 UNK     1      19.308   0.471  31.180  1.00  0.00     0.068 A 
HETATM   26  C19 UNK     1      20.332  -0.412  30.834  1.00  0.00     0.095 A 
HETATM   27  C21 UNK     1      20.610  -0.665  29.491  1.00  0.00     0.039 A 
HETATM   28  C23 UNK     1      19.864  -0.036  28.493  1.00  0.00     0.003 A 
HETATM   29  C22 UNK     1      18.840   0.845  28.840  1.00  0.00     0.002 A 
HETATM   30  C20 UNK     1      18.562   1.099  30.183  1.00  0.00     0.032 A 
BRANCH  26  31
HETATM   31  O4  UNK     1      21.073  -1.036  31.793  1.00  0.00    -0.354 OA
HETATM   32  C24 UNK     1      20.846  -2.431  31.979  1.00  0.00     0.210 C 
ENDBRANCH  26  31
ENDBRANCH  23  25
ENDBRANCH  20  21
ENDBRANCH   2  20
TORSDOF 6
ENDMDL
MODEL 8
REMARK VINA RESULT:      -9.2      1.886      2.489
REMARK  6 active torsions:
REMARK  status: ('A' for Active; 'I' for Inactive)
REMARK    1  A    between atoms: C19_26  and  O4_4 
REMARK    2  A    between atoms: C5_12  and  N1_5 
REMARK    3  A    between atoms: C6_13  and  N2_6 
REMARK    4  A    between atoms: C17_24  and  N3_7 
REMARK       I    between atoms: C9_16  and  N3_7 
REMARK    5  A    between atoms: C5_12  and  C7_14 
REMARK    6  A    between atoms: C6_13  and  C9_16 
ROOT
HETATM    1  N1  UNK     1      19.565  -3.862  36.456  1.00  0.00     0.096 N 
HETATM    2  N2  UNK     1      18.417  -1.261  35.931  1.00  0.00     0.100 N 
HETATM    3  C1  UNK     1      20.075  -3.008  35.377  1.00  0.00     0.303 C 
HETATM    4  C2  UNK     1      18.141  -3.595  36.693  1.00  0.00     0.303 C 
HETATM    5  C3  UNK     1      19.842  -1.527  35.695  1.00  0.00     0.303 C 
HETATM    6  C4  UNK     1      17.909  -2.114  37.012  1.00  0.00     0.303 C 
ENDROOT
BRANCH   1   7
HETATM    7  C5  UNK     1      19.785  -5.274  36.149  1.00  0.00     0.312 C 
BRANCH   7   8
HETATM    8  C7  UNK     1      20.625  -5.949  37.177  1.00  0.00    -0.011 A 
HETATM    9  C10 UNK     1      21.725  -5.361  37.669  1.00  0.00     0.092 A 
HETATM   10  C13 UNK     1      22.585  -5.990  38.685  1.00  0.00     0.288 A 
HETATM   11  O1  UNK     1      22.207  -7.247  39.130  1.00  0.00    -0.275 OA
HETATM   12  O3  UNK     1      23.583  -5.421  39.113  1.00  0.00    -0.260 OA
HETATM   13  C11 UNK     1      21.056  -7.891  38.632  1.00  0.00     0.090 A 
HETATM   14  C14 UNK     1      20.773  -9.155  39.151  1.00  0.00     0.045 A 
HETATM   15  C8  UNK     1      20.250  -7.282  37.668  1.00  0.00     0.006 A 
HETATM   16  C15 UNK     1      19.651  -9.838  38.697  1.00  0.00    -0.059 A 
HETATM   17  C16 UNK     1      18.828  -9.256  37.734  1.00  0.00     0.007 A 
HETATM   18  C18 UNK     1      19.328 -11.191  39.237  1.00  0.00     0.048 C 
HETATM   19  C12 UNK     1      19.125  -7.988  37.224  1.00  0.00     0.015 A 
ENDBRANCH   7   8
ENDBRANCH   1   7
BRANCH   2  20
HETATM   20  C6  UNK     1      18.196   0.150  36.237  1.00  0.00     0.375 C 
BRANCH  20  21
HETATM   21  C9  UNK     1      17.631   0.851  35.012  1.00  0.00     0.250 C 
HETATM   22  O2  UNK     1      16.499   0.634  34.591  1.00  0.00    -0.271 OA
HETATM   23  N3  UNK     1      18.570   1.735  34.486  1.00  0.00    -0.323 N 
HETATM   24  H15 UNK     1      19.467   1.813  34.961  1.00  0.00     0.169 HD
BRANCH  23  25
HETATM   25  C17 UNK     1      18.428   2.571  33.353  1.00  0.00     0.068 A 
HETATM   26  C19 UNK     1      18.502   2.041  32.065  1.00  0.00     0.095 A 
HETATM   27  C21 UNK     1      18.360   2.877  30.958  1.00  0.00     0.039 A 
HETATM   28  C23 UNK     1      18.143   4.243  31.138  1.00  0.00     0.003 A 
HETATM   29  C22 UNK     1      18.069   4.773  32.427  1.00  0.00     0.002 A 
HETATM   30  C20 UNK     1      18.212   3.937  33.534  1.00  0.00     0.032 A 
BRANCH  26  31
HETATM   31  O4  UNK     1      18.713   0.709  31.866  1.00  0.00    -0.354 OA
HETATM   32  C24 UNK     1      19.743   0.347  30.949  1.00  0.00     0.210 C 
ENDBRANCH  26  31
ENDBRANCH  23  25
ENDBRANCH  20  21
ENDBRANCH   2  20
TORSDOF 6
ENDMDL
MODEL 9
REMARK VINA RESULT:      -9.2      4.716      8.125
REMARK  6 active torsions:
REMARK  status: ('A' for Active; 'I' for Inactive)
REMARK    1  A    between atoms: C19_26  and  O4_4 
REMARK    2  A    between atoms: C5_12  and  N1_5 
REMARK    3  A    between atoms: C6_13  and  N2_6 
REMARK    4  A    between atoms: C17_24  and  N3_7 
REMARK       I    between atoms: C9_16  and  N3_7 
REMARK    5  A    between atoms: C5_12  and  C7_14 
REMARK    6  A    between atoms: C6_13  and  C9_16 
ROOT
HETATM    1  N1  UNK     1      18.809   3.598  31.369  1.00  0.00     0.096 N 
HETATM    2  N2  UNK     1      19.120   6.288  32.381  1.00  0.00     0.100 N 
HETATM    3  C1  UNK     1      19.240   4.696  30.495  1.00  0.00     0.303 C 
HETATM    4  C2  UNK     1      17.960   4.108  32.453  1.00  0.00     0.303 C 
HETATM    5  C3  UNK     1      19.969   5.779  31.297  1.00  0.00     0.303 C 
HETATM    6  C4  UNK     1      18.691   5.189  33.255  1.00  0.00     0.303 C 
ENDROOT
BRANCH   1   7
HETATM    7  C5  UNK     1      18.110   2.568  30.602  1.00  0.00     0.312 C 
BRANCH   7   8
HETATM    8  C7  UNK     1      18.879   1.295  30.538  1.00  0.00    -0.011 A 
HETATM    9  C10 UNK     1      19.497   0.913  29.411  1.00  0.00     0.092 A 
HETATM   10  C13 UNK     1      20.269  -0.336  29.301  1.00  0.00     0.288 A 
HETATM   11  O1  UNK     1      20.337  -1.127  30.437  1.00  0.00    -0.275 OA
HETATM   12  O3  UNK     1      20.821  -0.651  28.254  1.00  0.00    -0.260 OA
HETATM   13  C11 UNK     1      19.698  -0.754  31.637  1.00  0.00     0.090 A 
HETATM   14  C14 UNK     1      19.834  -1.629  32.716  1.00  0.00     0.045 A 
HETATM   15  C8  UNK     1      18.969   0.434  31.725  1.00  0.00     0.006 A 
HETATM   16  C15 UNK     1      19.225  -1.312  33.925  1.00  0.00    -0.059 A 
HETATM   17  C16 UNK     1      18.491  -0.133  34.044  1.00  0.00     0.007 A 
HETATM   18  C18 UNK     1      19.356  -2.232  35.092  1.00  0.00     0.048 C 
HETATM   19  C12 UNK     1      18.364   0.734  32.953  1.00  0.00     0.015 A 
ENDBRANCH   7   8
ENDBRANCH   1   7
BRANCH   2  20
HETATM   20  C6  UNK     1      19.817   7.318  33.146  1.00  0.00     0.375 C 
BRANCH  20  21
HETATM   21  C9  UNK     1      18.836   8.006  34.081  1.00  0.00     0.250 C 
HETATM   22  O2  UNK     1      18.958   7.982  35.301  1.00  0.00    -0.271 OA
HETATM   23  N3  UNK     1      17.834   8.638  33.347  1.00  0.00    -0.323 N 
HETATM   24  H15 UNK     1      17.880   8.578  32.332  1.00  0.00     0.169 HD
BRANCH  23  25
HETATM   25  C17 UNK     1      16.739   9.383  33.845  1.00  0.00     0.068 A 
HETATM   26  C19 UNK     1      15.477   8.800  33.961  1.00  0.00     0.095 A 
HETATM   27  C21 UNK     1      14.407   9.546  34.455  1.00  0.00     0.039 A 
HETATM   28  C23 UNK     1      14.599  10.875  34.832  1.00  0.00     0.003 A 
HETATM   29  C22 UNK     1      15.861  11.457  34.716  1.00  0.00     0.002 A 
HETATM   30  C20 UNK     1      16.931  10.711  34.223  1.00  0.00     0.032 A 
BRANCH  26  31
HETATM   31  O4  UNK     1      15.267   7.503  33.598  1.00  0.00    -0.354 OA
HETATM   32  C24 UNK     1      14.637   7.277  32.339  1.00  0.00     0.210 C 
ENDBRANCH  26  31
ENDBRANCH  23  25
ENDBRANCH  20  21
ENDBRANCH   2  20
TORSDOF 6
ENDMDL
MODEL 10
REMARK VINA RESULT:      -9.1      6.214      9.372
REMARK  6 active torsions:
REMARK  status: ('A' for Active; 'I' for Inactive)
REMARK    1  A    between atoms: C19_26  and  O4_4 
REMARK    2  A    between atoms: C5_12  and  N1_5 
REMARK    3  A    between atoms: C6_13  and  N2_6 
REMARK    4  A    between atoms: C17_24  and  N3_7 
REMARK       I    between atoms: C9_16  and  N3_7 
REMARK    5  A    between atoms: C5_12  and  C7_14 
REMARK    6  A    between atoms: C6_13  and  C9_16 
ROOT
HETATM    1  N1  UNK     1      18.507   4.916  32.553  1.00  0.00     0.096 N 
HETATM    2  N2  UNK     1      18.678   7.714  33.259  1.00  0.00     0.100 N 
HETATM    3  C1  UNK     1      19.594   5.764  32.048  1.00  0.00     0.303 C 
HETATM    4  C2  UNK     1      17.301   5.717  32.794  1.00  0.00     0.303 C 
HETATM    5  C3  UNK     1      19.886   6.914  33.018  1.00  0.00     0.303 C 
HETATM    6  C4  UNK     1      17.593   6.865  33.765  1.00  0.00     0.303 C 
ENDROOT
BRANCH   1   7
HETATM    7  C5  UNK     1      18.229   3.822  31.624  1.00  0.00     0.312 C 
BRANCH   7   8
HETATM    8  C7  UNK     1      18.414   2.486  32.256  1.00  0.00    -0.011 A 
HETATM    9  C10 UNK     1      18.082   2.273  33.537  1.00  0.00     0.092 A 
HETATM   10  C13 UNK     1      18.248   0.970  34.204  1.00  0.00     0.288 A 
HETATM   11  O1  UNK     1      18.773  -0.058  33.438  1.00  0.00    -0.275 OA
HETATM   12  O3  UNK     1      17.932   0.812  35.377  1.00  0.00    -0.260 OA
HETATM   13  C11 UNK     1      19.132   0.135  32.088  1.00  0.00     0.090 A 
HETATM   14  C14 UNK     1      19.653  -0.972  31.415  1.00  0.00     0.045 A 
HETATM   15  C8  UNK     1      18.970   1.376  31.470  1.00  0.00     0.006 A 
HETATM   16  C15 UNK     1      20.024  -0.841  30.082  1.00  0.00    -0.059 A 
HETATM   17  C16 UNK     1      19.874   0.386  29.438  1.00  0.00     0.007 A 
HETATM   18  C18 UNK     1      20.583  -2.009  29.342  1.00  0.00     0.048 C 
HETATM   19  C12 UNK     1      19.351   1.487  30.127  1.00  0.00     0.015 A 
ENDBRANCH   7   8
ENDBRANCH   1   7
BRANCH   2  20
HETATM   20  C6  UNK     1      18.957   8.808  34.185  1.00  0.00     0.375 C 
BRANCH  20  21
HETATM   21  C9  UNK     1      17.982   9.946  33.933  1.00  0.00     0.250 C 
HETATM   22  O2  UNK     1      18.317  10.997  33.397  1.00  0.00    -0.271 OA
HETATM   23  N3  UNK     1      16.711   9.601  34.388  1.00  0.00    -0.323 N 
HETATM   24  H15 UNK     1      16.588   8.679  34.801  1.00  0.00     0.169 HD
BRANCH  23  25
HETATM   25  C17 UNK     1      15.534  10.385  34.336  1.00  0.00     0.068 A 
HETATM   26  C19 UNK     1      14.557  10.138  33.371  1.00  0.00     0.095 A 
HETATM   27  C21 UNK     1      13.402  10.918  33.332  1.00  0.00     0.039 A 
HETATM   28  C23 UNK     1      13.222  11.946  34.258  1.00  0.00     0.003 A 
HETATM   29  C22 UNK     1      14.199  12.192  35.223  1.00  0.00     0.002 A 
HETATM   30  C20 UNK     1      15.354  11.412  35.262  1.00  0.00     0.032 A 
BRANCH  26  31
HETATM   31  O4  UNK     1      14.713   9.139  32.456  1.00  0.00    -0.354 OA
HETATM   32  C24 UNK     1      14.116   7.881  32.763  1.00  0.00     0.210 C 
ENDBRANCH  26  31
ENDBRANCH  23  25
ENDBRANCH  20  21
ENDBRANCH   2  20
TORSDOF 6
ENDMDL
