MODEL 1
REMARK VINA RESULT:      -8.9      0.000      0.000
REMARK  8 active torsions:
REMARK  status: ('A' for Active; 'I' for Inactive)
REMARK    1  A    between atoms: C19_27  and  O2_3 
REMARK    2  A    between atoms: C24_32  and  O2_3 
REMARK    3  A    between atoms: C16_24  and  O3_4 
REMARK       I    between atoms: C14_22  and  N1_8 
REMARK    4  A    between atoms: C7_15  and  N1_8 
REMARK    5  A    between atoms: C1_9  and  C2_10 
REMARK    6  A    between atoms: C1_9  and  C3_11 
REMARK    7  A    between atoms: C16_24  and  C6_14 
REMARK    8  A    between atoms: C10_18  and  C14_22 
ROOT
HETATM    1  O4  UNK     1      17.125  -0.674  33.790  1.00  0.00    -0.267 OA
HETATM    2  N1  UNK     1      19.150  -0.353  34.958  1.00  0.00    -0.316 N 
HETATM    3  C14 UNK     1      18.103  -0.003  34.118  1.00  0.00     0.262 C 
HETATM    4  H8  UNK     1      19.885   0.324  35.153  1.00  0.00     0.169 HD
ENDROOT
BRANCH   2   5
HETATM    5  C7  UNK     1      19.304  -1.575  35.620  1.00  0.00     0.093 A 
HETATM    6  C6  UNK     1      18.873  -1.974  36.844  1.00  0.00     0.074 A 
HETATM    7  C5  UNK     1      19.263  -3.318  37.113  1.00  0.00     0.035 A 
HETATM    8  C2  UNK     1      19.974  -3.869  36.069  1.00  0.00    -0.006 A 
HETATM    9  S1  UNK     1      20.169  -2.768  34.773  1.00  0.00    -0.075 SA
BRANCH   6  10
HETATM   10  C16 UNK     1      18.121  -1.137  37.744  1.00  0.00     0.295 C 
HETATM   11  O5  UNK     1      18.522  -0.790  38.866  1.00  0.00    -0.259 OA
BRANCH  10  12
HETATM   12  O3  UNK     1      16.894  -0.746  37.251  1.00  0.00    -0.322 OA
HETATM   13  C25 UNK     1      16.510   0.616  37.478  1.00  0.00     0.213 C 
ENDBRANCH  10  12
ENDBRANCH   6  10
BRANCH   8  14
HETATM   14  C1  UNK     1      20.548  -5.227  35.962  1.00  0.00     0.054 C 
HETATM   15  C4  UNK     1      20.036  -5.960  34.691  1.00  0.00     0.020 C 
BRANCH  14  16
HETATM   16  C3  UNK     1      20.409  -6.062  37.252  1.00  0.00    -0.050 A 
HETATM   17  C9  UNK     1      19.299  -6.851  37.395  1.00  0.00     0.008 A 
HETATM   18  C13 UNK     1      19.174  -7.606  38.562  1.00  0.00     0.001 A 
HETATM   19  C18 UNK     1      20.163  -7.545  39.541  1.00  0.00     0.000 A 
HETATM   20  C12 UNK     1      21.279  -6.728  39.356  1.00  0.00     0.001 A 
HETATM   21  C8  UNK     1      21.404  -5.973  38.190  1.00  0.00     0.008 A 
ENDBRANCH  14  16
ENDBRANCH   8  14
ENDBRANCH   2   5
BRANCH   3  22
HETATM   22  C10 UNK     1      18.254   1.359  33.591  1.00  0.00     0.108 A 
HETATM   23  C17 UNK     1      18.387   1.470  32.265  1.00  0.00     0.037 A 
HETATM   24  C11 UNK     1      18.541   2.778  31.650  1.00  0.00     0.002 A 
HETATM   25  C15 UNK     1      18.551   3.907  32.463  1.00  0.00     0.123 A 
HETATM   26  C21 UNK     1      18.681   2.942  30.269  1.00  0.00     0.014 A 
HETATM   27  C19 UNK     1      18.697   5.189  31.938  1.00  0.00     0.103 A 
HETATM   28  O1  UNK     1      18.413   3.785  33.859  1.00  0.00    -0.271 OA
HETATM   29  C22 UNK     1      18.837   5.342  30.559  1.00  0.00     0.040 A 
HETATM   30  C23 UNK     1      18.829   4.221  29.727  1.00  0.00     0.004 A 
HETATM   31  C20 UNK     1      18.261   2.546  34.476  1.00  0.00     0.304 A 
HETATM   32  O6  UNK     1      18.140   2.449  35.693  1.00  0.00    -0.259 OA
BRANCH  27  33
HETATM   33  O2  UNK     1      18.706   6.285  32.744  1.00  0.00    -0.349 OA
BRANCH  33  34
HETATM   34  C24 UNK     1      19.979   6.818  33.104  1.00  0.00     0.171 C 
HETATM   35  C26 UNK     1      19.776   7.993  34.035  1.00  0.00     0.034 C 
ENDBRANCH  33  34
ENDBRANCH  27  33
ENDBRANCH   3  22
TORSDOF 8
ENDMDL
MODEL 2
REMARK VINA RESULT:      -8.8      2.045     10.031
REMARK  8 active torsions:
REMARK  status: ('A' for Active; 'I' for Inactive)
REMARK    1  A    between atoms: C19_27  and  O2_3 
REMARK    2  A    between atoms: C24_32  and  O2_3 
REMARK    3  A    between atoms: C16_24  and  O3_4 
REMARK       I    between atoms: C14_22  and  N1_8 
REMARK    4  A    between atoms: C7_15  and  N1_8 
REMARK    5  A    between atoms: C1_9  and  C2_10 
REMARK    6  A    between atoms: C1_9  and  C3_11 
REMARK    7  A    between atoms: C16_24  and  C6_14 
REMARK    8  A    between atoms: C10_18  and  C14_22 
ROOT
HETATM    1  O4  UNK     1      21.200  -2.016  34.223  1.00  0.00    -0.267 OA
HETATM    2  N1  UNK     1      18.991  -1.620  34.950  1.00  0.00    -0.316 N 
HETATM    3  C14 UNK     1      20.186  -2.319  34.849  1.00  0.00     0.262 C 
HETATM    4  H8  UNK     1      18.241  -1.991  35.529  1.00  0.00     0.169 HD
ENDROOT
BRANCH   2   5
HETATM    5  C7  UNK     1      18.697  -0.396  34.341  1.00  0.00     0.093 A 
HETATM    6  C6  UNK     1      18.320   0.790  34.885  1.00  0.00     0.074 A 
HETATM    7  C5  UNK     1      18.123   1.777  33.877  1.00  0.00     0.035 A 
HETATM    8  C2  UNK     1      18.364   1.282  32.613  1.00  0.00    -0.006 A 
HETATM    9  S1  UNK     1      18.825  -0.367  32.647  1.00  0.00    -0.075 SA
BRANCH   6  10
HETATM   10  C16 UNK     1      18.145   1.007  36.298  1.00  0.00     0.295 C 
HETATM   11  O5  UNK     1      18.808   1.820  36.961  1.00  0.00    -0.259 OA
BRANCH  10  12
HETATM   12  O3  UNK     1      17.163   0.225  36.868  1.00  0.00    -0.322 OA
HETATM   13  C25 UNK     1      15.806   0.548  36.540  1.00  0.00     0.213 C 
ENDBRANCH  10  12
ENDBRANCH   6  10
BRANCH   8  14
HETATM   14  C1  UNK     1      18.272   1.985  31.316  1.00  0.00     0.054 C 
HETATM   15  C4  UNK     1      19.137   1.287  30.230  1.00  0.00     0.020 C 
BRANCH  14  16
HETATM   16  C3  UNK     1      18.517   3.504  31.416  1.00  0.00    -0.050 A 
HETATM   17  C9  UNK     1      18.097   4.154  32.547  1.00  0.00     0.008 A 
HETATM   18  C13 UNK     1      18.319   5.529  32.636  1.00  0.00     0.001 A 
HETATM   19  C18 UNK     1      18.953   6.203  31.593  1.00  0.00     0.000 A 
HETATM   20  C12 UNK     1      19.364   5.503  30.459  1.00  0.00     0.001 A 
HETATM   21  C8  UNK     1      19.143   4.128  30.368  1.00  0.00     0.008 A 
ENDBRANCH  14  16
ENDBRANCH   8  14
ENDBRANCH   2   5
BRANCH   3  22
HETATM   22  C10 UNK     1      20.156  -3.569  35.617  1.00  0.00     0.108 A 
HETATM   23  C17 UNK     1      20.174  -4.702  34.906  1.00  0.00     0.037 A 
HETATM   24  C11 UNK     1      20.148  -5.991  35.578  1.00  0.00     0.002 A 
HETATM   25  C15 UNK     1      20.101  -6.025  36.968  1.00  0.00     0.123 A 
HETATM   26  C21 UNK     1      20.166  -7.199  34.875  1.00  0.00     0.014 A 
HETATM   27  C19 UNK     1      20.074  -7.226  37.673  1.00  0.00     0.103 A 
HETATM   28  O1  UNK     1      20.081  -4.829  37.712  1.00  0.00    -0.271 OA
HETATM   29  C22 UNK     1      20.092  -8.426  36.963  1.00  0.00     0.040 A 
HETATM   30  C23 UNK     1      20.138  -8.412  35.568  1.00  0.00     0.004 A 
HETATM   31  C20 UNK     1      20.107  -3.580  37.097  1.00  0.00     0.304 A 
HETATM   32  O6  UNK     1      20.091  -2.544  37.754  1.00  0.00    -0.259 OA
BRANCH  27  33
HETATM   33  O2  UNK     1      20.027  -7.245  39.032  1.00  0.00    -0.349 OA
BRANCH  33  34
HETATM   34  C24 UNK     1      20.998  -8.045  39.706  1.00  0.00     0.171 C 
HETATM   35  C26 UNK     1      22.313  -7.298  39.743  1.00  0.00     0.034 C 
ENDBRANCH  33  34
ENDBRANCH  27  33
ENDBRANCH   3  22
TORSDOF 8
ENDMDL
MODEL 3
REMARK VINA RESULT:      -8.6      2.648     10.271
REMARK  8 active torsions:
REMARK  status: ('A' for Active; 'I' for Inactive)
REMARK    1  A    between atoms: C19_27  and  O2_3 
REMARK    2  A    between atoms: C24_32  and  O2_3 
REMARK    3  A    between atoms: C16_24  and  O3_4 
REMARK       I    between atoms: C14_22  and  N1_8 
REMARK    4  A    between atoms: C7_15  and  N1_8 
REMARK    5  A    between atoms: C1_9  and  C2_10 
REMARK    6  A    between atoms: C1_9  and  C3_11 
REMARK    7  A    between atoms: C16_24  and  C6_14 
REMARK    8  A    between atoms: C10_18  and  C14_22 
ROOT
HETATM    1  O4  UNK     1      21.098  -1.330  35.738  1.00  0.00    -0.267 OA
HETATM    2  N1  UNK     1      19.042  -1.695  34.639  1.00  0.00    -0.316 N 
HETATM    3  C14 UNK     1      20.181  -2.052  35.346  1.00  0.00     0.262 C 
HETATM    4  H8  UNK     1      18.356  -2.407  34.401  1.00  0.00     0.169 HD
ENDROOT
BRANCH   2   5
HETATM    5  C7  UNK     1      18.701  -0.405  34.219  1.00  0.00     0.093 A 
HETATM    6  C6  UNK     1      18.286   0.672  34.934  1.00  0.00     0.074 A 
HETATM    7  C5  UNK     1      18.048   1.791  34.084  1.00  0.00     0.035 A 
HETATM    8  C2  UNK     1      18.299   1.499  32.761  1.00  0.00    -0.006 A 
HETATM    9  S1  UNK     1      18.818  -0.119  32.548  1.00  0.00    -0.075 SA
BRANCH   6  10
HETATM   10  C16 UNK     1      18.112   0.671  36.364  1.00  0.00     0.295 C 
HETATM   11  O5  UNK     1      18.550   1.555  37.116  1.00  0.00    -0.259 OA
BRANCH  10  12
HETATM   12  O3  UNK     1      17.407  -0.414  36.841  1.00  0.00    -0.322 OA
HETATM   13  C25 UNK     1      17.928  -1.064  38.006  1.00  0.00     0.213 C 
ENDBRANCH  10  12
ENDBRANCH   6  10
BRANCH   8  14
HETATM   14  C1  UNK     1      18.174   2.383  31.583  1.00  0.00     0.054 C 
HETATM   15  C4  UNK     1      18.918   1.797  30.352  1.00  0.00     0.020 C 
BRANCH  14  16
HETATM   16  C3  UNK     1      18.530   3.856  31.873  1.00  0.00    -0.050 A 
HETATM   17  C9  UNK     1      18.173   4.380  33.088  1.00  0.00     0.008 A 
HETATM   18  C13 UNK     1      18.495   5.713  33.350  1.00  0.00     0.001 A 
HETATM   19  C18 UNK     1      19.163   6.470  32.389  1.00  0.00     0.000 A 
HETATM   20  C12 UNK     1      19.509   5.898  31.165  1.00  0.00     0.001 A 
HETATM   21  C8  UNK     1      19.187   4.566  30.903  1.00  0.00     0.008 A 
ENDBRANCH  14  16
ENDBRANCH   8  14
ENDBRANCH   2   5
BRANCH   3  22
HETATM   22  C10 UNK     1      20.225  -3.492  35.625  1.00  0.00     0.108 A 
HETATM   23  C17 UNK     1      20.067  -3.852  36.904  1.00  0.00     0.037 A 
HETATM   24  C11 UNK     1      20.094  -5.257  37.278  1.00  0.00     0.002 A 
HETATM   25  C15 UNK     1      20.289  -6.214  36.288  1.00  0.00     0.123 A 
HETATM   26  C21 UNK     1      19.932  -5.680  38.600  1.00  0.00     0.014 A 
HETATM   27  C19 UNK     1      20.327  -7.576  36.580  1.00  0.00     0.103 A 
HETATM   28  O1  UNK     1      20.456  -5.829  34.944  1.00  0.00    -0.271 OA
HETATM   29  C22 UNK     1      20.165  -7.988  37.902  1.00  0.00     0.040 A 
HETATM   30  C23 UNK     1      19.969  -7.042  38.910  1.00  0.00     0.004 A 
HETATM   31  C20 UNK     1      20.433  -4.492  34.555  1.00  0.00     0.304 A 
HETATM   32  O6  UNK     1      20.578  -4.167  33.380  1.00  0.00    -0.259 OA
BRANCH  27  33
HETATM   33  O2  UNK     1      20.519  -8.502  35.602  1.00  0.00    -0.349 OA
BRANCH  33  34
HETATM   34  C24 UNK     1      21.786  -9.158  35.566  1.00  0.00     0.171 C 
HETATM   35  C26 UNK     1      21.565 -10.647  35.415  1.00  0.00     0.034 C 
ENDBRANCH  33  34
ENDBRANCH  27  33
ENDBRANCH   3  22
TORSDOF 8
ENDMDL
MODEL 4
REMARK VINA RESULT:      -8.5      1.817      2.990
REMARK  8 active torsions:
REMARK  status: ('A' for Active; 'I' for Inactive)
REMARK    1  A    between atoms: C19_27  and  O2_3 
REMARK    2  A    between atoms: C24_32  and  O2_3 
REMARK    3  A    between atoms: C16_24  and  O3_4 
REMARK       I    between atoms: C14_22  and  N1_8 
REMARK    4  A    between atoms: C7_15  and  N1_8 
REMARK    5  A    between atoms: C1_9  and  C2_10 
REMARK    6  A    between atoms: C1_9  and  C3_11 
REMARK    7  A    between atoms: C16_24  and  C6_14 
REMARK    8  A    between atoms: C10_18  and  C14_22 
ROOT
HETATM    1  O4  UNK     1      17.234  -0.772  33.914  1.00  0.00    -0.267 OA
HETATM    2  N1  UNK     1      19.436  -0.560  34.733  1.00  0.00    -0.316 N 
HETATM    3  C14 UNK     1      18.237  -0.117  34.194  1.00  0.00     0.262 C 
HETATM    4  H8  UNK     1      20.175   0.111  34.931  1.00  0.00     0.169 HD
ENDROOT
BRANCH   2   5
HETATM    5  C7  UNK     1      19.750  -1.879  35.076  1.00  0.00     0.093 A 
HETATM    6  C6  UNK     1      20.325  -2.866  34.343  1.00  0.00     0.074 A 
HETATM    7  C5  UNK     1      20.453  -4.063  35.104  1.00  0.00     0.035 A 
HETATM    8  C2  UNK     1      19.964  -3.917  36.384  1.00  0.00    -0.006 A 
HETATM    9  S1  UNK     1      19.354  -2.342  36.662  1.00  0.00    -0.075 SA
BRANCH   6  10
HETATM   10  C16 UNK     1      20.746  -2.710  32.973  1.00  0.00     0.295 C 
HETATM   11  O5  UNK     1      21.285  -3.608  32.308  1.00  0.00    -0.259 OA
BRANCH  10  12
HETATM   12  O3  UNK     1      20.499  -1.459  32.451  1.00  0.00    -0.322 OA
HETATM   13  C25 UNK     1      20.008  -1.404  31.106  1.00  0.00     0.213 C 
ENDBRANCH  10  12
ENDBRANCH   6  10
BRANCH   8  14
HETATM   14  C1  UNK     1      19.917  -4.918  37.472  1.00  0.00     0.054 C 
HETATM   15  C4  UNK     1      21.304  -5.080  38.153  1.00  0.00     0.020 C 
BRANCH  14  16
HETATM   16  C3  UNK     1      19.277  -6.257  37.054  1.00  0.00    -0.050 A 
HETATM   17  C9  UNK     1      19.749  -7.407  37.630  1.00  0.00     0.008 A 
HETATM   18  C13 UNK     1      19.170  -8.619  37.252  1.00  0.00     0.001 A 
HETATM   19  C18 UNK     1      18.138  -8.636  36.314  1.00  0.00     0.000 A 
HETATM   20  C12 UNK     1      17.687  -7.442  35.751  1.00  0.00     0.001 A 
HETATM   21  C8  UNK     1      18.266  -6.230  36.129  1.00  0.00     0.008 A 
ENDBRANCH  14  16
ENDBRANCH   8  14
ENDBRANCH   2   5
BRANCH   3  22
HETATM   22  C10 UNK     1      18.245   1.331  33.955  1.00  0.00     0.108 A 
HETATM   23  C17 UNK     1      18.329   1.720  32.678  1.00  0.00     0.037 A 
HETATM   24  C11 UNK     1      18.343   3.135  32.341  1.00  0.00     0.002 A 
HETATM   25  C15 UNK     1      18.270   4.071  33.366  1.00  0.00     0.123 A 
HETATM   26  C21 UNK     1      18.428   3.586  31.021  1.00  0.00     0.014 A 
HETATM   27  C19 UNK     1      18.280   5.441  33.112  1.00  0.00     0.103 A 
HETATM   28  O1  UNK     1      18.183   3.656  34.710  1.00  0.00    -0.271 OA
HETATM   29  C22 UNK     1      18.366   5.882  31.793  1.00  0.00     0.040 A 
HETATM   30  C23 UNK     1      18.440   4.957  30.750  1.00  0.00     0.004 A 
HETATM   31  C20 UNK     1      18.166   2.309  35.062  1.00  0.00     0.304 A 
HETATM   32  O6  UNK     1      18.089   1.958  36.235  1.00  0.00    -0.259 OA
BRANCH  27  33
HETATM   33  O2  UNK     1      18.209   6.346  34.125  1.00  0.00    -0.349 OA
BRANCH  33  34
HETATM   34  C24 UNK     1      17.574   7.593  33.841  1.00  0.00     0.171 C 
HETATM   35  C26 UNK     1      18.541   8.717  34.142  1.00  0.00     0.034 C 
ENDBRANCH  33  34
ENDBRANCH  27  33
ENDBRANCH   3  22
TORSDOF 8
ENDMDL
MODEL 5
REMARK VINA RESULT:      -8.5      3.853      6.319
REMARK  8 active torsions:
REMARK  status: ('A' for Active; 'I' for Inactive)
REMARK    1  A    between atoms: C19_27  and  O2_3 
REMARK    2  A    between atoms: C24_32  and  O2_3 
REMARK    3  A    between atoms: C16_24  and  O3_4 
REMARK       I    between atoms: C14_22  and  N1_8 
REMARK    4  A    between atoms: C7_15  and  N1_8 
REMARK    5  A    between atoms: C1_9  and  C2_10 
REMARK    6  A    between atoms: C1_9  and  C3_11 
REMARK    7  A    between atoms: C16_24  and  C6_14 
REMARK    8  A    between atoms: C10_18  and  C14_22 
ROOT
HETATM    1  O4  UNK     1      21.762  -4.108  37.253  1.00  0.00    -0.267 OA
HETATM    2  N1  UNK     1      20.069  -5.415  36.256  1.00  0.00    -0.316 N 
HETATM    3  C14 UNK     1      20.708  -4.242  36.633  1.00  0.00     0.262 C 
HETATM    4  H8  UNK     1      19.205  -5.366  35.722  1.00  0.00     0.169 HD
ENDROOT
BRANCH   2   5
HETATM    5  C7  UNK     1      20.512  -6.716  36.515  1.00  0.00     0.093 A 
HETATM    6  C6  UNK     1      20.780  -7.337  37.693  1.00  0.00     0.074 A 
HETATM    7  C5  UNK     1      21.213  -8.677  37.480  1.00  0.00     0.035 A 
HETATM    8  C2  UNK     1      21.250  -9.002  36.141  1.00  0.00    -0.006 A 
HETATM    9  S1  UNK     1      20.765  -7.694  35.149  1.00  0.00    -0.075 SA
BRANCH   6  10
HETATM   10  C16 UNK     1      20.641  -6.710  38.982  1.00  0.00     0.295 C 
HETATM   11  O5  UNK     1      19.648  -6.050  39.328  1.00  0.00    -0.259 OA
BRANCH  10  12
HETATM   12  O3  UNK     1      21.719  -6.903  39.819  1.00  0.00    -0.322 OA
HETATM   13  C25 UNK     1      23.011  -6.565  39.299  1.00  0.00     0.213 C 
ENDBRANCH  10  12
ENDBRANCH   6  10
BRANCH   8  14
HETATM   14  C1  UNK     1      21.640 -10.284  35.515  1.00  0.00     0.054 C 
HETATM   15  C4  UNK     1      20.577 -11.387  35.773  1.00  0.00     0.020 C 
BRANCH  14  16
HETATM   16  C3  UNK     1      23.079 -10.725  35.852  1.00  0.00    -0.050 A 
HETATM   17  C9  UNK     1      23.417 -12.037  35.648  1.00  0.00     0.008 A 
HETATM   18  C13 UNK     1      24.720 -12.436  35.953  1.00  0.00     0.001 A 
HETATM   19  C18 UNK     1      25.635 -11.509  36.449  1.00  0.00     0.000 A 
HETATM   20  C12 UNK     1      25.249 -10.182  36.642  1.00  0.00     0.001 A 
HETATM   21  C8  UNK     1      23.948  -9.783  36.338  1.00  0.00     0.008 A 
ENDBRANCH  14  16
ENDBRANCH   8  14
ENDBRANCH   2   5
BRANCH   3  22
HETATM   22  C10 UNK     1      19.968  -3.051  36.198  1.00  0.00     0.108 A 
HETATM   23  C17 UNK     1      19.185  -2.474  37.115  1.00  0.00     0.037 A 
HETATM   24  C11 UNK     1      18.413  -1.288  36.779  1.00  0.00     0.002 A 
HETATM   25  C15 UNK     1      18.502  -0.769  35.491  1.00  0.00     0.123 A 
HETATM   26  C21 UNK     1      17.583  -0.650  37.705  1.00  0.00     0.014 A 
HETATM   27  C19 UNK     1      17.788   0.363  35.104  1.00  0.00     0.103 A 
HETATM   28  O1  UNK     1      19.327  -1.383  34.529  1.00  0.00    -0.271 OA
HETATM   29  C22 UNK     1      16.963   0.991  36.034  1.00  0.00     0.040 A 
HETATM   30  C23 UNK     1      16.860   0.486  37.332  1.00  0.00     0.004 A 
HETATM   31  C20 UNK     1      20.079  -2.518  34.822  1.00  0.00     0.304 A 
HETATM   32  O6  UNK     1      20.796  -3.044  33.977  1.00  0.00    -0.259 OA
BRANCH  27  33
HETATM   33  O2  UNK     1      17.884   0.859  33.841  1.00  0.00    -0.349 OA
BRANCH  33  34
HETATM   34  C24 UNK     1      18.282   2.222  33.705  1.00  0.00     0.171 C 
HETATM   35  C26 UNK     1      18.039   2.666  32.279  1.00  0.00     0.034 C 
ENDBRANCH  33  34
ENDBRANCH  27  33
ENDBRANCH   3  22
TORSDOF 8
ENDMDL
MODEL 6
REMARK VINA RESULT:      -8.4     26.369     29.265
REMARK  8 active torsions:
REMARK  status: ('A' for Active; 'I' for Inactive)
REMARK    1  A    between atoms: C19_27  and  O2_3 
REMARK    2  A    between atoms: C24_32  and  O2_3 
REMARK    3  A    between atoms: C16_24  and  O3_4 
REMARK       I    between atoms: C14_22  and  N1_8 
REMARK    4  A    between atoms: C7_15  and  N1_8 
REMARK    5  A    between atoms: C1_9  and  C2_10 
REMARK    6  A    between atoms: C1_9  and  C3_11 
REMARK    7  A    between atoms: C16_24  and  C6_14 
REMARK    8  A    between atoms: C10_18  and  C14_22 
ROOT
HETATM    1  O4  UNK     1      13.594   7.260   7.228  1.00  0.00    -0.267 OA
HETATM    2  N1  UNK     1      13.633   7.861   9.510  1.00  0.00    -0.316 N 
HETATM    3  C14 UNK     1      13.082   7.348   8.344  1.00  0.00     0.262 C 
HETATM    4  H8  UNK     1      13.090   7.847  10.370  1.00  0.00     0.169 HD
ENDROOT
BRANCH   2   5
HETATM    5  C7  UNK     1      14.918   8.395   9.650  1.00  0.00     0.093 A 
HETATM    6  C6  UNK     1      16.121   7.776   9.771  1.00  0.00     0.074 A 
HETATM    7  C5  UNK     1      17.177   8.724   9.893  1.00  0.00     0.035 A 
HETATM    8  C2  UNK     1      16.713  10.022   9.857  1.00  0.00    -0.006 A 
HETATM    9  S1  UNK     1      15.012  10.091   9.678  1.00  0.00    -0.075 SA
BRANCH   6  10
HETATM   10  C16 UNK     1      16.292   6.345   9.774  1.00  0.00     0.295 C 
HETATM   11  O5  UNK     1      17.205   5.756   9.176  1.00  0.00    -0.259 OA
BRANCH  10  12
HETATM   12  O3  UNK     1      15.342   5.669  10.510  1.00  0.00    -0.322 OA
HETATM   13  C25 UNK     1      14.890   4.414   9.986  1.00  0.00     0.213 C 
ENDBRANCH  10  12
ENDBRANCH   6  10
BRANCH   8  14
HETATM   14  C1  UNK     1      17.487  11.278   9.950  1.00  0.00     0.054 C 
HETATM   15  C4  UNK     1      16.873  12.245  11.001  1.00  0.00     0.020 C 
BRANCH  14  16
HETATM   16  C3  UNK     1      17.756  11.944   8.585  1.00  0.00    -0.050 A 
HETATM   17  C9  UNK     1      16.969  13.003   8.216  1.00  0.00     0.008 A 
HETATM   18  C13 UNK     1      17.213  13.604   6.980  1.00  0.00     0.001 A 
HETATM   19  C18 UNK     1      18.234  13.126   6.161  1.00  0.00     0.000 A 
HETATM   20  C12 UNK     1      19.012  12.044   6.575  1.00  0.00     0.001 A 
HETATM   21  C8  UNK     1      18.769  11.443   7.810  1.00  0.00     0.008 A 
ENDBRANCH  14  16
ENDBRANCH   8  14
ENDBRANCH   2   5
BRANCH   3  22
HETATM   22  C10 UNK     1      11.711   6.868   8.551  1.00  0.00     0.108 A 
HETATM   23  C17 UNK     1      10.818   7.781   8.949  1.00  0.00     0.037 A 
HETATM   24  C11 UNK     1       9.433   7.401   9.180  1.00  0.00     0.002 A 
HETATM   25  C15 UNK     1       9.057   6.077   8.981  1.00  0.00     0.123 A 
HETATM   26  C21 UNK     1       8.467   8.321   9.595  1.00  0.00     0.014 A 
HETATM   27  C19 UNK     1       7.747   5.647   9.185  1.00  0.00     0.103 A 
HETATM   28  O1  UNK     1      10.001   5.119   8.563  1.00  0.00    -0.271 OA
HETATM   29  C22 UNK     1       6.790   6.572   9.600  1.00  0.00     0.040 A 
HETATM   30  C23 UNK     1       7.149   7.905   9.805  1.00  0.00     0.004 A 
HETATM   31  C20 UNK     1      11.333   5.454   8.333  1.00  0.00     0.304 A 
HETATM   32  O6  UNK     1      12.149   4.613   7.967  1.00  0.00    -0.259 OA
BRANCH  27  33
HETATM   33  O2  UNK     1       7.392   4.349   8.988  1.00  0.00    -0.349 OA
BRANCH  33  34
HETATM   34  C24 UNK     1       7.119   3.565  10.149  1.00  0.00     0.171 C 
HETATM   35  C26 UNK     1       5.881   2.732   9.899  1.00  0.00     0.034 C 
ENDBRANCH  33  34
ENDBRANCH  27  33
ENDBRANCH   3  22
TORSDOF 8
ENDMDL
MODEL 7
REMARK VINA RESULT:      -8.4      3.130      4.997
REMARK  8 active torsions:
REMARK  status: ('A' for Active; 'I' for Inactive)
REMARK    1  A    between atoms: C19_27  and  O2_3 
REMARK    2  A    between atoms: C24_32  and  O2_3 
REMARK    3  A    between atoms: C16_24  and  O3_4 
REMARK       I    between atoms: C14_22  and  N1_8 
REMARK    4  A    between atoms: C7_15  and  N1_8 
REMARK    5  A    between atoms: C1_9  and  C2_10 
REMARK    6  A    between atoms: C1_9  and  C3_11 
REMARK    7  A    between atoms: C16_24  and  C6_14 
REMARK    8  A    between atoms: C10_18  and  C14_22 
ROOT
HETATM    1  O4  UNK     1      20.146  -2.576  37.188  1.00  0.00    -0.267 OA
HETATM    2  N1  UNK     1      19.824  -4.404  35.732  1.00  0.00    -0.316 N 
HETATM    3  C14 UNK     1      19.912  -3.065  36.083  1.00  0.00     0.262 C 
HETATM    4  H8  UNK     1      19.642  -4.658  34.764  1.00  0.00     0.169 HD
ENDROOT
BRANCH   2   5
HETATM    5  C7  UNK     1      19.990  -5.495  36.591  1.00  0.00     0.093 A 
HETATM    6  C6  UNK     1      19.131  -6.493  36.923  1.00  0.00     0.074 A 
HETATM    7  C5  UNK     1      19.728  -7.400  37.845  1.00  0.00     0.035 A 
HETATM    8  C2  UNK     1      21.018  -7.037  38.165  1.00  0.00    -0.006 A 
HETATM    9  S1  UNK     1      21.503  -5.609  37.355  1.00  0.00    -0.075 SA
BRANCH   6  10
HETATM   10  C16 UNK     1      17.792  -6.608  36.403  1.00  0.00     0.295 C 
HETATM   11  O5  UNK     1      16.792  -6.118  36.950  1.00  0.00    -0.259 OA
BRANCH  10  12
HETATM   12  O3  UNK     1      17.708  -7.322  35.226  1.00  0.00    -0.322 OA
HETATM   13  C25 UNK     1      16.394  -7.664  34.769  1.00  0.00     0.213 C 
ENDBRANCH  10  12
ENDBRANCH   6  10
BRANCH   8  14
HETATM   14  C1  UNK     1      21.966  -7.713  39.077  1.00  0.00     0.054 C 
HETATM   15  C4  UNK     1      22.260  -6.847  40.333  1.00  0.00     0.020 C 
BRANCH  14  16
HETATM   16  C3  UNK     1      23.238  -8.232  38.376  1.00  0.00    -0.050 A 
HETATM   17  C9  UNK     1      23.089  -8.987  37.243  1.00  0.00     0.008 A 
HETATM   18  C13 UNK     1      24.240  -9.457  36.609  1.00  0.00     0.001 A 
HETATM   19  C18 UNK     1      25.496  -9.154  37.131  1.00  0.00     0.000 A 
HETATM   20  C12 UNK     1      25.604  -8.382  38.288  1.00  0.00     0.001 A 
HETATM   21  C8  UNK     1      24.453  -7.912  38.922  1.00  0.00     0.008 A 
ENDBRANCH  14  16
ENDBRANCH   8  14
ENDBRANCH   2   5
BRANCH   3  22
HETATM   22  C10 UNK     1      19.685  -2.181  34.934  1.00  0.00     0.108 A 
HETATM   23  C17 UNK     1      20.249  -2.553  33.780  1.00  0.00     0.037 A 
HETATM   24  C11 UNK     1      20.080  -1.741  32.585  1.00  0.00     0.002 A 
HETATM   25  C15 UNK     1      19.325  -0.575  32.665  1.00  0.00     0.123 A 
HETATM   26  C21 UNK     1      20.649  -2.092  31.359  1.00  0.00     0.014 A 
HETATM   27  C19 UNK     1      19.125   0.247  31.559  1.00  0.00     0.103 A 
HETATM   28  O1  UNK     1      18.734  -0.187  33.883  1.00  0.00    -0.271 OA
HETATM   29  C22 UNK     1      19.698  -0.110  30.340  1.00  0.00     0.040 A 
HETATM   30  C23 UNK     1      20.459  -1.276  30.239  1.00  0.00     0.004 A 
HETATM   31  C20 UNK     1      18.877  -0.945  35.043  1.00  0.00     0.304 A 
HETATM   32  O6  UNK     1      18.358  -0.599  36.099  1.00  0.00    -0.259 OA
BRANCH  27  33
HETATM   33  O2  UNK     1      18.386   1.385  31.650  1.00  0.00    -0.349 OA
BRANCH  33  34
HETATM   34  C24 UNK     1      18.664   2.421  30.709  1.00  0.00     0.171 C 
HETATM   35  C26 UNK     1      18.374   3.760  31.350  1.00  0.00     0.034 C 
ENDBRANCH  33  34
ENDBRANCH  27  33
ENDBRANCH   3  22
TORSDOF 8
ENDMDL
MODEL 8
REMARK VINA RESULT:      -8.4     26.896     28.781
REMARK  8 active torsions:
REMARK  status: ('A' for Active; 'I' for Inactive)
REMARK    1  A    between atoms: C19_27  and  O2_3 
REMARK    2  A    between atoms: C24_32  and  O2_3 
REMARK    3  A    between atoms: C16_24  and  O3_4 
REMARK       I    between atoms: C14_22  and  N1_8 
REMARK    4  A    between atoms: C7_15  and  N1_8 
REMARK    5  A    between atoms: C1_9  and  C2_10 
REMARK    6  A    between atoms: C1_9  and  C3_11 
REMARK    7  A    between atoms: C16_24  and  C6_14 
REMARK    8  A    between atoms: C10_18  and  C14_22 
ROOT
HETATM    1  O4  UNK     1      14.326   8.847  10.579  1.00  0.00    -0.267 OA
HETATM    2  N1  UNK     1      14.172   8.159   8.327  1.00  0.00    -0.316 N 
HETATM    3  C14 UNK     1      14.667   8.891   9.397  1.00  0.00     0.262 C 
HETATM    4  H8  UNK     1      14.572   8.292   7.401  1.00  0.00     0.169 HD
ENDROOT
BRANCH   2   5
HETATM    5  C7  UNK     1      13.157   7.198   8.383  1.00  0.00     0.093 A 
HETATM    6  C6  UNK     1      13.163   5.940   8.895  1.00  0.00     0.074 A 
HETATM    7  C5  UNK     1      11.895   5.313   8.730  1.00  0.00     0.035 A 
HETATM    8  C2  UNK     1      10.989   6.136   8.098  1.00  0.00    -0.006 A 
HETATM    9  S1  UNK     1      11.668   7.658   7.706  1.00  0.00    -0.075 SA
BRANCH   6  10
HETATM   10  C16 UNK     1      14.310   5.332   9.519  1.00  0.00     0.295 C 
HETATM   11  O5  UNK     1      14.295   4.828  10.653  1.00  0.00    -0.259 OA
BRANCH  10  12
HETATM   12  O3  UNK     1      15.449   5.355   8.743  1.00  0.00    -0.322 OA
HETATM   13  C25 UNK     1      16.685   5.633   9.413  1.00  0.00     0.213 C 
ENDBRANCH  10  12
ENDBRANCH   6  10
BRANCH   8  14
HETATM   14  C1  UNK     1       9.580   5.857   7.748  1.00  0.00     0.054 C 
HETATM   15  C4  UNK     1       9.198   6.493   6.383  1.00  0.00     0.020 C 
BRANCH  14  16
HETATM   16  C3  UNK     1       8.583   6.183   8.879  1.00  0.00    -0.050 A 
HETATM   17  C9  UNK     1       8.295   5.201   9.790  1.00  0.00     0.008 A 
HETATM   18  C13 UNK     1       7.394   5.496  10.813  1.00  0.00     0.001 A 
HETATM   19  C18 UNK     1       6.814   6.762  10.889  1.00  0.00     0.000 A 
HETATM   20  C12 UNK     1       7.135   7.733   9.940  1.00  0.00     0.001 A 
HETATM   21  C8  UNK     1       8.036   7.439   8.917  1.00  0.00     0.008 A 
ENDBRANCH  14  16
ENDBRANCH   8  14
ENDBRANCH   2   5
BRANCH   3  22
HETATM   22  C10 UNK     1      15.731   9.813   8.985  1.00  0.00     0.108 A 
HETATM   23  C17 UNK     1      15.345  10.889   8.290  1.00  0.00     0.037 A 
HETATM   24  C11 UNK     1      16.328  11.862   7.839  1.00  0.00     0.002 A 
HETATM   25  C15 UNK     1      17.670  11.652   8.139  1.00  0.00     0.123 A 
HETATM   26  C21 UNK     1      15.971  13.000   7.112  1.00  0.00     0.014 A 
HETATM   27  C19 UNK     1      18.661  12.544   7.735  1.00  0.00     0.103 A 
HETATM   28  O1  UNK     1      18.071  10.516   8.869  1.00  0.00    -0.271 OA
HETATM   29  C22 UNK     1      18.295  13.676   7.010  1.00  0.00     0.040 A 
HETATM   30  C23 UNK     1      16.954  13.904   6.699  1.00  0.00     0.004 A 
HETATM   31  C20 UNK     1      17.153   9.569   9.317  1.00  0.00     0.304 A 
HETATM   32  O6  UNK     1      17.511   8.584   9.954  1.00  0.00    -0.259 OA
BRANCH  27  33
HETATM   33  O2  UNK     1      19.970  12.326   8.034  1.00  0.00    -0.349 OA
BRANCH  33  34
HETATM   34  C24 UNK     1      20.529  13.087   9.105  1.00  0.00     0.171 C 
HETATM   35  C26 UNK     1      20.790  12.168  10.278  1.00  0.00     0.034 C 
ENDBRANCH  33  34
ENDBRANCH  27  33
ENDBRANCH   3  22
TORSDOF 8
ENDMDL
MODEL 9
REMARK VINA RESULT:      -8.4      4.617     12.197
REMARK  8 active torsions:
REMARK  status: ('A' for Active; 'I' for Inactive)
REMARK    1  A    between atoms: C19_27  and  O2_3 
REMARK    2  A    between atoms: C24_32  and  O2_3 
REMARK    3  A    between atoms: C16_24  and  O3_4 
REMARK       I    between atoms: C14_22  and  N1_8 
REMARK    4  A    between atoms: C7_15  and  N1_8 
REMARK    5  A    between atoms: C1_9  and  C2_10 
REMARK    6  A    between atoms: C1_9  and  C3_11 
REMARK    7  A    between atoms: C16_24  and  C6_14 
REMARK    8  A    between atoms: C10_18  and  C14_22 
ROOT
HETATM    1  O4  UNK     1      19.243   6.279  33.784  1.00  0.00    -0.267 OA
HETATM    2  N1  UNK     1      16.888   6.150  33.697  1.00  0.00    -0.316 N 
HETATM    3  C14 UNK     1      18.184   5.655  33.737  1.00  0.00     0.262 C 
HETATM    4  H8  UNK     1      16.104   5.503  33.681  1.00  0.00     0.169 HD
ENDROOT
BRANCH   2   5
HETATM    5  C7  UNK     1      16.521   7.500  33.702  1.00  0.00     0.093 A 
HETATM    6  C6  UNK     1      16.064   8.292  32.699  1.00  0.00     0.074 A 
HETATM    7  C5  UNK     1      15.814   9.616  33.162  1.00  0.00     0.035 A 
HETATM    8  C2  UNK     1      16.097   9.756  34.503  1.00  0.00    -0.006 A 
HETATM    9  S1  UNK     1      16.662   8.296  35.197  1.00  0.00    -0.075 SA
BRANCH   6  10
HETATM   10  C16 UNK     1      15.862   7.840  31.345  1.00  0.00     0.295 C 
HETATM   11  O5  UNK     1      16.571   8.185  30.388  1.00  0.00    -0.259 OA
BRANCH  10  12
HETATM   12  O3  UNK     1      14.798   6.976  31.196  1.00  0.00    -0.322 OA
HETATM   13  C25 UNK     1      13.665   7.192  32.045  1.00  0.00     0.213 C 
ENDBRANCH  10  12
ENDBRANCH   6  10
BRANCH   8  14
HETATM   14  C1  UNK     1      15.970  10.962  35.350  1.00  0.00     0.054 C 
HETATM   15  C4  UNK     1      14.531  11.106  35.918  1.00  0.00     0.020 C 
BRANCH  14  16
HETATM   16  C3  UNK     1      16.499  12.247  34.681  1.00  0.00    -0.050 A 
HETATM   17  C9  UNK     1      15.590  13.198  34.298  1.00  0.00     0.008 A 
HETATM   18  C13 UNK     1      16.070  14.361  33.693  1.00  0.00     0.001 A 
HETATM   19  C18 UNK     1      17.439  14.530  33.494  1.00  0.00     0.000 A 
HETATM   20  C12 UNK     1      18.331  13.536  33.899  1.00  0.00     0.001 A 
HETATM   21  C8  UNK     1      17.853  12.374  34.504  1.00  0.00     0.008 A 
ENDBRANCH  14  16
ENDBRANCH   8  14
ENDBRANCH   2   5
BRANCH   3  22
HETATM   22  C10 UNK     1      18.210   4.188  33.719  1.00  0.00     0.108 A 
HETATM   23  C17 UNK     1      18.455   3.585  34.887  1.00  0.00     0.037 A 
HETATM   24  C11 UNK     1      18.500   2.133  34.969  1.00  0.00     0.002 A 
HETATM   25  C15 UNK     1      18.288   1.387  33.814  1.00  0.00     0.123 A 
HETATM   26  C21 UNK     1      18.751   1.461  36.168  1.00  0.00     0.014 A 
HETATM   27  C19 UNK     1      18.319  -0.005  33.824  1.00  0.00     0.103 A 
HETATM   28  O1  UNK     1      18.032   2.027  32.586  1.00  0.00    -0.271 OA
HETATM   29  C22 UNK     1      18.570  -0.667  35.024  1.00  0.00     0.040 A 
HETATM   30  C23 UNK     1      18.787   0.064  36.194  1.00  0.00     0.004 A 
HETATM   31  C20 UNK     1      17.981   3.415  32.477  1.00  0.00     0.304 A 
HETATM   32  O6  UNK     1      17.756   3.963  31.403  1.00  0.00    -0.259 OA
BRANCH  27  33
HETATM   33  O2  UNK     1      18.110  -0.723  32.687  1.00  0.00    -0.349 OA
BRANCH  33  34
HETATM   34  C24 UNK     1      19.220  -1.451  32.164  1.00  0.00     0.171 C 
HETATM   35  C26 UNK     1      19.899  -0.616  31.100  1.00  0.00     0.034 C 
ENDBRANCH  33  34
ENDBRANCH  27  33
ENDBRANCH   3  22
TORSDOF 8
ENDMDL
MODEL 10
REMARK VINA RESULT:      -8.3      8.411     12.268
REMARK  8 active torsions:
REMARK  status: ('A' for Active; 'I' for Inactive)
REMARK    1  A    between atoms: C19_27  and  O2_3 
REMARK    2  A    between atoms: C24_32  and  O2_3 
REMARK    3  A    between atoms: C16_24  and  O3_4 
REMARK       I    between atoms: C14_22  and  N1_8 
REMARK    4  A    between atoms: C7_15  and  N1_8 
REMARK    5  A    between atoms: C1_9  and  C2_10 
REMARK    6  A    between atoms: C1_9  and  C3_11 
REMARK    7  A    between atoms: C16_24  and  C6_14 
REMARK    8  A    between atoms: C10_18  and  C14_22 
ROOT
HETATM    1  O4  UNK     1      24.407  -5.407  39.872  1.00  0.00    -0.267 OA
HETATM    2  N1  UNK     1      25.160  -7.195  38.530  1.00  0.00    -0.316 N 
HETATM    3  C14 UNK     1      24.220  -6.360  39.116  1.00  0.00     0.262 C 
HETATM    4  H8  UNK     1      24.851  -7.935  37.904  1.00  0.00     0.169 HD
ENDROOT
BRANCH   2   5
HETATM    5  C7  UNK     1      26.547  -7.116  38.687  1.00  0.00     0.093 A 
HETATM    6  C6  UNK     1      27.474  -8.098  38.832  1.00  0.00     0.074 A 
HETATM    7  C5  UNK     1      28.783  -7.553  38.964  1.00  0.00     0.035 A 
HETATM    8  C2  UNK     1      28.778  -6.176  38.912  1.00  0.00    -0.006 A 
HETATM    9  S1  UNK     1      27.199  -5.547  38.705  1.00  0.00    -0.075 SA
BRANCH   6  10
HETATM   10  C16 UNK     1      27.161  -9.504  38.848  1.00  0.00     0.295 C 
HETATM   11  O5  UNK     1      27.624 -10.308  39.672  1.00  0.00    -0.259 OA
BRANCH  10  12
HETATM   12  O3  UNK     1      26.288  -9.895  37.854  1.00  0.00    -0.322 OA
HETATM   13  C25 UNK     1      26.824 -10.018  36.532  1.00  0.00     0.213 C 
ENDBRANCH  10  12
ENDBRANCH   6  10
BRANCH   8  14
HETATM   14  C1  UNK     1      29.923  -5.246  39.010  1.00  0.00     0.054 C 
HETATM   15  C4  UNK     1      29.449  -3.782  39.222  1.00  0.00     0.020 C 
BRANCH  14  16
HETATM   16  C3  UNK     1      30.947  -5.401  37.867  1.00  0.00    -0.050 A 
HETATM   17  C9  UNK     1      30.482  -5.393  36.578  1.00  0.00     0.008 A 
HETATM   18  C13 UNK     1      31.409  -5.533  35.543  1.00  0.00     0.001 A 
HETATM   19  C18 UNK     1      32.764  -5.677  35.836  1.00  0.00     0.000 A 
HETATM   20  C12 UNK     1      33.195  -5.681  37.163  1.00  0.00     0.001 A 
HETATM   21  C8  UNK     1      32.270  -5.540  38.197  1.00  0.00     0.008 A 
ENDBRANCH  14  16
ENDBRANCH   8  14
ENDBRANCH   2   5
BRANCH   3  22
HETATM   22  C10 UNK     1      22.850  -6.724  38.736  1.00  0.00     0.108 A 
HETATM   23  C17 UNK     1      22.457  -7.962  39.053  1.00  0.00     0.037 A 
HETATM   24  C11 UNK     1      21.116  -8.415  38.719  1.00  0.00     0.002 A 
HETATM   25  C15 UNK     1      20.254  -7.541  38.064  1.00  0.00     0.123 A 
HETATM   26  C21 UNK     1      20.662  -9.699  39.031  1.00  0.00     0.014 A 
HETATM   27  C19 UNK     1      18.958  -7.911  37.714  1.00  0.00     0.103 A 
HETATM   28  O1  UNK     1      20.674  -6.238  37.731  1.00  0.00    -0.271 OA
HETATM   29  C22 UNK     1      18.515  -9.194  38.029  1.00  0.00     0.040 A 
HETATM   30  C23 UNK     1      19.365 -10.086  38.686  1.00  0.00     0.004 A 
HETATM   31  C20 UNK     1      21.951  -5.776  38.040  1.00  0.00     0.304 A 
HETATM   32  O6  UNK     1      22.307  -4.639  37.748  1.00  0.00    -0.259 OA
BRANCH  27  33
HETATM   33  O2  UNK     1      18.126  -7.047  37.073  1.00  0.00    -0.349 OA
BRANCH  33  34
HETATM   34  C24 UNK     1      18.168  -7.039  35.647  1.00  0.00     0.171 C 
HETATM   35  C26 UNK     1      16.836  -7.520  35.112  1.00  0.00     0.034 C 
ENDBRANCH  33  34
ENDBRANCH  27  33
ENDBRANCH   3  22
TORSDOF 8
ENDMDL
