MODEL 1
REMARK VINA RESULT:      -7.9      0.000      0.000
REMARK  1 active torsions:
REMARK  status: ('A' for Active; 'I' for Inactive)
REMARK       I    between atoms: C6_12  and  N1_5 
REMARK    1  A    between atoms: C6_12  and  C8_14 
ROOT
HETATM    1 Br1  UNK     1       3.671   9.712  12.061  1.00  0.00    -0.051 Br
HETATM    2  O2  UNK     1       7.654   5.222  11.174  1.00  0.00    -0.274 OA
HETATM    3  O3  UNK     1       9.231   4.197   9.878  1.00  0.00    -0.259 OA
HETATM    4  C8  UNK     1       8.255   6.169   9.000  1.00  0.00     0.108 A 
HETATM    5  C9  UNK     1       7.385   7.172   9.166  1.00  0.00     0.037 A 
HETATM    6  C10 UNK     1       6.582   7.254  10.378  1.00  0.00     0.000 A 
HETATM    7  C11 UNK     1       8.435   5.117  10.027  1.00  0.00     0.304 A 
HETATM    8  C12 UNK     1       6.736   6.276  11.354  1.00  0.00     0.089 A 
HETATM    9  C13 UNK     1       5.662   8.283  10.593  1.00  0.00     0.033 A 
HETATM   10  C14 UNK     1       6.000   6.297  12.537  1.00  0.00     0.039 A 
HETATM   11  C15 UNK     1       4.916   8.318  11.774  1.00  0.00     0.011 A 
HETATM   12  C16 UNK     1       5.084   7.327  12.744  1.00  0.00     0.022 A 
ENDROOT
BRANCH   4  13
HETATM   13  C6  UNK     1       9.023   6.172   7.737  1.00  0.00     0.260 C 
HETATM   14  O1  UNK     1       8.591   5.493   6.805  1.00  0.00    -0.267 OA
HETATM   15  N1  UNK     1      10.186   6.951   7.690  1.00  0.00    -0.346 N 
HETATM   16  C2  UNK     1      10.959   6.971   6.447  1.00  0.00     0.128 C 
HETATM   17  C4  UNK     1      10.675   7.734   8.831  1.00  0.00     0.156 C 
HETATM   18  C1  UNK     1      12.245   6.164   6.571  1.00  0.00     0.050 C 
HETATM   19  C3  UNK     1      13.389   6.917   7.252  1.00  0.00     0.273 C 
HETATM   20  N2  UNK     1      13.127   7.317   8.644  1.00  0.00     0.085 N 
HETATM   21  C5  UNK     1      12.076   8.343   8.733  1.00  0.00     0.291 C 
HETATM   22  C7  UNK     1      14.370   7.827   9.236  1.00  0.00     0.309 C 
ENDBRANCH   4  13
TORSDOF 1
ENDMDL
MODEL 2
REMARK VINA RESULT:      -7.7      3.634      7.101
REMARK  1 active torsions:
REMARK  status: ('A' for Active; 'I' for Inactive)
REMARK       I    between atoms: C6_12  and  N1_5 
REMARK    1  A    between atoms: C6_12  and  C8_14 
ROOT
HETATM    1 Br1  UNK     1      16.629  11.025  10.360  1.00  0.00    -0.051 Br
HETATM    2  O2  UNK     1      14.511   5.496   9.037  1.00  0.00    -0.274 OA
HETATM    3  O3  UNK     1      12.961   4.154   8.029  1.00  0.00    -0.259 OA
HETATM    4  C8  UNK     1      12.655   6.492   7.793  1.00  0.00     0.108 A 
HETATM    5  C9  UNK     1      13.097   7.724   8.067  1.00  0.00     0.037 A 
HETATM    6  C10 UNK     1      14.302   7.912   8.863  1.00  0.00     0.000 A 
HETATM    7  C11 UNK     1      13.362   5.285   8.280  1.00  0.00     0.304 A 
HETATM    8  C12 UNK     1      14.980   6.791   9.330  1.00  0.00     0.089 A 
HETATM    9  C13 UNK     1      14.799   9.180   9.174  1.00  0.00     0.033 A 
HETATM   10  C14 UNK     1      16.140   6.901  10.095  1.00  0.00     0.039 A 
HETATM   11  C15 UNK     1      15.961   9.307   9.941  1.00  0.00     0.011 A 
HETATM   12  C16 UNK     1      16.629   8.170  10.401  1.00  0.00     0.022 A 
ENDROOT
BRANCH   4  13
HETATM   13  C6  UNK     1      11.424   6.405   6.978  1.00  0.00     0.260 C 
HETATM   14  O1  UNK     1      11.511   6.681   5.781  1.00  0.00    -0.267 OA
HETATM   15  N1  UNK     1      10.248   6.009   7.626  1.00  0.00    -0.346 N 
HETATM   16  C2  UNK     1       9.019   5.912   6.837  1.00  0.00     0.128 C 
HETATM   17  C4  UNK     1      10.185   5.702   9.060  1.00  0.00     0.156 C 
HETATM   18  C1  UNK     1       8.066   7.062   7.137  1.00  0.00     0.050 C 
HETATM   19  C3  UNK     1       7.227   6.861   8.401  1.00  0.00     0.273 C 
HETATM   20  N2  UNK     1       8.000   6.752   9.648  1.00  0.00     0.085 N 
HETATM   21  C5  UNK     1       8.803   5.520   9.693  1.00  0.00     0.291 C 
HETATM   22  C7  UNK     1       7.075   6.783  10.788  1.00  0.00     0.309 C 
ENDBRANCH   4  13
TORSDOF 1
ENDMDL
MODEL 3
REMARK VINA RESULT:      -7.5     25.034     26.682
REMARK  1 active torsions:
REMARK  status: ('A' for Active; 'I' for Inactive)
REMARK       I    between atoms: C6_12  and  N1_5 
REMARK    1  A    between atoms: C6_12  and  C8_14 
ROOT
HETATM    1 Br1  UNK     1      17.902  -0.172  38.053  1.00  0.00    -0.051 Br
HETATM    2  O2  UNK     1      17.949   2.197  32.468  1.00  0.00    -0.274 OA
HETATM    3  O3  UNK     1      18.310   3.964  31.066  1.00  0.00    -0.259 OA
HETATM    4  C8  UNK     1      18.695   4.344  33.372  1.00  0.00     0.108 A 
HETATM    5  C9  UNK     1      18.694   3.851  34.616  1.00  0.00     0.037 A 
HETATM    6  C10 UNK     1      18.311   2.468  34.857  1.00  0.00     0.000 A 
HETATM    7  C11 UNK     1      18.310   3.516  32.207  1.00  0.00     0.304 A 
HETATM    8  C12 UNK     1      17.947   1.673  33.775  1.00  0.00     0.089 A 
HETATM    9  C13 UNK     1      18.297   1.911  36.139  1.00  0.00     0.033 A 
HETATM   10  C14 UNK     1      17.570   0.341  33.937  1.00  0.00     0.039 A 
HETATM   11  C15 UNK     1      17.921   0.577  36.317  1.00  0.00     0.011 A 
HETATM   12  C16 UNK     1      17.559  -0.206  35.219  1.00  0.00     0.022 A 
ENDROOT
BRANCH   4  13
HETATM   13  C6  UNK     1      19.099   5.759  33.230  1.00  0.00     0.260 C 
HETATM   14  O1  UNK     1      20.296   6.026  33.349  1.00  0.00    -0.267 OA
HETATM   15  N1  UNK     1      18.092   6.696  32.966  1.00  0.00    -0.346 N 
HETATM   16  C2  UNK     1      18.472   8.101  32.817  1.00  0.00     0.128 C 
HETATM   17  C4  UNK     1      16.673   6.337  32.846  1.00  0.00     0.156 C 
HETATM   18  C1  UNK     1      18.064   8.925  34.032  1.00  0.00     0.050 C 
HETATM   19  C3  UNK     1      16.596   9.358  34.026  1.00  0.00     0.273 C 
HETATM   20  N2  UNK     1      15.624   8.255  34.047  1.00  0.00     0.085 N 
HETATM   21  C5  UNK     1      15.649   7.474  32.800  1.00  0.00     0.291 C 
HETATM   22  C7  UNK     1      14.280   8.807  34.259  1.00  0.00     0.309 C 
ENDBRANCH   4  13
TORSDOF 1
ENDMDL
MODEL 4
REMARK VINA RESULT:      -7.4      5.875      8.758
REMARK  1 active torsions:
REMARK  status: ('A' for Active; 'I' for Inactive)
REMARK       I    between atoms: C6_12  and  N1_5 
REMARK    1  A    between atoms: C6_12  and  C8_14 
ROOT
HETATM    1 Br1  UNK     1      19.559  12.174   7.643  1.00  0.00    -0.051 Br
HETATM    2  O2  UNK     1      15.120  10.644  11.485  1.00  0.00    -0.274 OA
HETATM    3  O3  UNK     1      13.634   9.105  12.289  1.00  0.00    -0.259 OA
HETATM    4  C8  UNK     1      15.038   8.400  10.516  1.00  0.00     0.108 A 
HETATM    5  C9  UNK     1      16.016   8.707   9.655  1.00  0.00     0.037 A 
HETATM    6  C10 UNK     1      16.613  10.034   9.666  1.00  0.00     0.000 A 
HETATM    7  C11 UNK     1      14.530   9.383  11.499  1.00  0.00     0.304 A 
HETATM    8  C12 UNK     1      16.149  10.972  10.582  1.00  0.00     0.089 A 
HETATM    9  C13 UNK     1      17.635  10.397   8.786  1.00  0.00     0.033 A 
HETATM   10  C14 UNK     1      16.678  12.260  10.644  1.00  0.00     0.039 A 
HETATM   11  C15 UNK     1      18.176  11.686   8.836  1.00  0.00     0.011 A 
HETATM   12  C16 UNK     1      17.698  12.615   9.763  1.00  0.00     0.022 A 
ENDROOT
BRANCH   4  13
HETATM   13  C6  UNK     1      14.496   7.027  10.427  1.00  0.00     0.260 C 
HETATM   14  O1  UNK     1      15.151   6.121  10.945  1.00  0.00    -0.267 OA
HETATM   15  N1  UNK     1      13.274   6.856   9.765  1.00  0.00    -0.346 N 
HETATM   16  C2  UNK     1      12.718   5.505   9.671  1.00  0.00     0.128 C 
HETATM   17  C4  UNK     1      12.533   7.963   9.149  1.00  0.00     0.156 C 
HETATM   18  C1  UNK     1      12.856   4.938   8.263  1.00  0.00     0.050 C 
HETATM   19  C3  UNK     1      11.772   5.413   7.293  1.00  0.00     0.273 C 
HETATM   20  N2  UNK     1      11.748   6.864   7.051  1.00  0.00     0.085 N 
HETATM   21  C5  UNK     1      11.343   7.615   8.251  1.00  0.00     0.291 C 
HETATM   22  C7  UNK     1      10.820   7.150   5.951  1.00  0.00     0.309 C 
ENDBRANCH   4  13
TORSDOF 1
ENDMDL
MODEL 5
REMARK VINA RESULT:      -7.3     34.819     36.294
REMARK  1 active torsions:
REMARK  status: ('A' for Active; 'I' for Inactive)
REMARK       I    between atoms: C6_12  and  N1_5 
REMARK    1  A    between atoms: C6_12  and  C8_14 
ROOT
HETATM    1 Br1  UNK     1      19.629  -8.900  38.698  1.00  0.00    -0.051 Br
HETATM    2  O2  UNK     1      24.601  -5.425  38.835  1.00  0.00    -0.274 OA
HETATM    3  O3  UNK     1      26.874  -5.218  38.912  1.00  0.00    -0.259 OA
HETATM    4  C8  UNK     1      26.010  -7.423  38.905  1.00  0.00     0.108 A 
HETATM    5  C9  UNK     1      24.933  -8.217  38.876  1.00  0.00     0.037 A 
HETATM    6  C10 UNK     1      23.598  -7.640  38.823  1.00  0.00     0.000 A 
HETATM    7  C11 UNK     1      25.890  -5.947  38.886  1.00  0.00     0.304 A 
HETATM    8  C12 UNK     1      23.464  -6.256  38.804  1.00  0.00     0.089 A 
HETATM    9  C13 UNK     1      22.446  -8.430  38.791  1.00  0.00     0.033 A 
HETATM   10  C14 UNK     1      22.214  -5.640  38.753  1.00  0.00     0.039 A 
HETATM   11  C15 UNK     1      21.185  -7.827  38.740  1.00  0.00     0.011 A 
HETATM   12  C16 UNK     1      21.070  -6.436  38.721  1.00  0.00     0.022 A 
ENDROOT
BRANCH   4  13
HETATM   13  C6  UNK     1      27.322  -8.103  38.959  1.00  0.00     0.260 C 
HETATM   14  O1  UNK     1      27.695  -8.537  40.049  1.00  0.00    -0.267 OA
HETATM   15  N1  UNK     1      28.044  -8.209  37.764  1.00  0.00    -0.346 N 
HETATM   16  C2  UNK     1      29.343  -8.883  37.795  1.00  0.00     0.128 C 
HETATM   17  C4  UNK     1      27.568  -7.664  36.487  1.00  0.00     0.156 C 
HETATM   18  C1  UNK     1      30.493  -7.891  37.682  1.00  0.00     0.050 C 
HETATM   19  C3  UNK     1      30.796  -7.450  36.248  1.00  0.00     0.273 C 
HETATM   20  N2  UNK     1      29.698  -6.744  35.571  1.00  0.00     0.085 N 
HETATM   21  C5  UNK     1      28.550  -7.629  35.313  1.00  0.00     0.291 C 
HETATM   22  C7  UNK     1      30.193  -6.193  34.303  1.00  0.00     0.309 C 
ENDBRANCH   4  13
TORSDOF 1
ENDMDL
MODEL 6
REMARK VINA RESULT:      -7.2     23.818     25.145
REMARK  1 active torsions:
REMARK  status: ('A' for Active; 'I' for Inactive)
REMARK       I    between atoms: C6_12  and  N1_5 
REMARK    1  A    between atoms: C6_12  and  C8_14 
ROOT
HETATM    1 Br1  UNK     1      16.689  13.085  35.752  1.00  0.00    -0.051 Br
HETATM    2  O2  UNK     1      14.333   8.077  33.267  1.00  0.00    -0.274 OA
HETATM    3  O3  UNK     1      14.557   6.217  31.958  1.00  0.00    -0.259 OA
HETATM    4  C8  UNK     1      16.475   7.589  32.191  1.00  0.00     0.108 A 
HETATM    5  C9  UNK     1      17.024   8.686  32.724  1.00  0.00     0.037 A 
HETATM    6  C10 UNK     1      16.234   9.560  33.580  1.00  0.00     0.000 A 
HETATM    7  C11 UNK     1      15.063   7.223  32.445  1.00  0.00     0.304 A 
HETATM    8  C12 UNK     1      14.906   9.233  33.831  1.00  0.00     0.089 A 
HETATM    9  C13 UNK     1      16.766  10.715  34.157  1.00  0.00     0.033 A 
HETATM   10  C14 UNK     1      14.096  10.027  34.641  1.00  0.00     0.039 A 
HETATM   11  C15 UNK     1      15.966  11.521  34.973  1.00  0.00     0.011 A 
HETATM   12  C16 UNK     1      14.634  11.178  35.214  1.00  0.00     0.022 A 
ENDROOT
BRANCH   4  13
HETATM   13  C6  UNK     1      17.358   6.766  31.336  1.00  0.00     0.260 C 
HETATM   14  O1  UNK     1      17.426   7.056  30.141  1.00  0.00    -0.267 OA
HETATM   15  N1  UNK     1      18.056   5.718  31.948  1.00  0.00    -0.346 N 
HETATM   16  C2  UNK     1      18.939   4.894  31.120  1.00  0.00     0.128 C 
HETATM   17  C4  UNK     1      17.934   5.397  33.375  1.00  0.00     0.156 C 
HETATM   18  C1  UNK     1      18.339   3.519  30.856  1.00  0.00     0.050 C 
HETATM   19  C3  UNK     1      18.541   2.522  31.999  1.00  0.00     0.273 C 
HETATM   20  N2  UNK     1      17.913   2.904  33.274  1.00  0.00     0.085 N 
HETATM   21  C5  UNK     1      18.554   4.088  33.870  1.00  0.00     0.291 C 
HETATM   22  C7  UNK     1      17.997   1.773  34.205  1.00  0.00     0.309 C 
ENDBRANCH   4  13
TORSDOF 1
ENDMDL
MODEL 7
REMARK VINA RESULT:      -7.1     36.848     37.686
REMARK  1 active torsions:
REMARK  status: ('A' for Active; 'I' for Inactive)
REMARK       I    between atoms: C6_12  and  N1_5 
REMARK    1  A    between atoms: C6_12  and  C8_14 
ROOT
HETATM    1 Br1  UNK     1      26.599 -10.247  36.439  1.00  0.00    -0.051 Br
HETATM    2  O2  UNK     1      28.638  -5.513  39.639  1.00  0.00    -0.274 OA
HETATM    3  O3  UNK     1      29.967  -3.662  39.816  1.00  0.00    -0.259 OA
HETATM    4  C8  UNK     1      30.070  -4.850  37.769  1.00  0.00     0.108 A 
HETATM    5  C9  UNK     1      29.639  -5.885  37.038  1.00  0.00     0.037 A 
HETATM    6  C10 UNK     1      28.660  -6.813  37.584  1.00  0.00     0.000 A 
HETATM    7  C11 UNK     1      29.575  -4.610  39.144  1.00  0.00     0.304 A 
HETATM    8  C12 UNK     1      28.182  -6.604  38.874  1.00  0.00     0.089 A 
HETATM    9  C13 UNK     1      28.183  -7.906  36.857  1.00  0.00     0.033 A 
HETATM   10  C14 UNK     1      27.243  -7.454  39.455  1.00  0.00     0.039 A 
HETATM   11  C15 UNK     1      27.241  -8.768  37.427  1.00  0.00     0.011 A 
HETATM   12  C16 UNK     1      26.773  -8.542  38.723  1.00  0.00     0.022 A 
ENDROOT
BRANCH   4  13
HETATM   13  C6  UNK     1      31.065  -3.965  37.127  1.00  0.00     0.260 C 
HETATM   14  O1  UNK     1      30.704  -2.828  36.821  1.00  0.00    -0.267 OA
HETATM   15  N1  UNK     1      32.349  -4.482  36.917  1.00  0.00    -0.346 N 
HETATM   16  C2  UNK     1      33.351  -3.620  36.287  1.00  0.00     0.128 C 
HETATM   17  C4  UNK     1      32.734  -5.850  37.284  1.00  0.00     0.156 C 
HETATM   18  C1  UNK     1      33.619  -4.032  34.845  1.00  0.00     0.050 C 
HETATM   19  C3  UNK     1      34.592  -5.205  34.704  1.00  0.00     0.273 C 
HETATM   20  N2  UNK     1      34.140  -6.463  35.317  1.00  0.00     0.085 N 
HETATM   21  C5  UNK     1      34.084  -6.372  36.784  1.00  0.00     0.291 C 
HETATM   22  C7  UNK     1      35.054  -7.542  34.921  1.00  0.00     0.309 C 
ENDBRANCH   4  13
TORSDOF 1
ENDMDL
MODEL 8
REMARK VINA RESULT:      -7.1     35.296     37.677
REMARK  1 active torsions:
REMARK  status: ('A' for Active; 'I' for Inactive)
REMARK       I    between atoms: C6_12  and  N1_5 
REMARK    1  A    between atoms: C6_12  and  C8_14 
ROOT
HETATM    1 Br1  UNK     1      30.646  -4.308  37.558  1.00  0.00    -0.051 Br
HETATM    2  O2  UNK     1      35.876  -6.861  35.842  1.00  0.00    -0.274 OA
HETATM    3  O3  UNK     1      37.298  -7.554  34.194  1.00  0.00    -0.259 OA
HETATM    4  C8  UNK     1      35.265  -6.559  33.492  1.00  0.00     0.108 A 
HETATM    5  C9  UNK     1      34.104  -5.992  33.839  1.00  0.00     0.037 A 
HETATM    6  C10 UNK     1      33.759  -5.825  35.243  1.00  0.00     0.000 A 
HETATM    7  C11 UNK     1      36.233  -7.034  34.508  1.00  0.00     0.304 A 
HETATM    8  C12 UNK     1      34.654  -6.264  36.212  1.00  0.00     0.089 A 
HETATM    9  C13 UNK     1      32.558  -5.239  35.650  1.00  0.00     0.033 A 
HETATM   10  C14 UNK     1      34.385  -6.134  37.573  1.00  0.00     0.039 A 
HETATM   11  C15 UNK     1      32.273  -5.101  37.012  1.00  0.00     0.011 A 
HETATM   12  C16 UNK     1      33.185  -5.547  37.971  1.00  0.00     0.022 A 
ENDROOT
BRANCH   4  13
HETATM   13  C6  UNK     1      35.525  -6.685  32.042  1.00  0.00     0.260 C 
HETATM   14  O1  UNK     1      36.264  -5.849  31.521  1.00  0.00    -0.267 OA
HETATM   15  N1  UNK     1      34.914  -7.749  31.366  1.00  0.00    -0.346 N 
HETATM   16  C2  UNK     1      35.163  -7.893  29.931  1.00  0.00     0.128 C 
HETATM   17  C4  UNK     1      34.027  -8.715  32.025  1.00  0.00     0.156 C 
HETATM   18  C1  UNK     1      33.949  -7.482  29.107  1.00  0.00     0.050 C 
HETATM   19  C3  UNK     1      32.876  -8.568  28.994  1.00  0.00     0.273 C 
HETATM   20  N2  UNK     1      32.271  -8.977  30.271  1.00  0.00     0.085 N 
HETATM   21  C5  UNK     1      33.234  -9.677  31.137  1.00  0.00     0.291 C 
HETATM   22  C7  UNK     1      31.123  -9.850  29.998  1.00  0.00     0.309 C 
ENDBRANCH   4  13
TORSDOF 1
ENDMDL
MODEL 9
REMARK VINA RESULT:      -7.1      5.842      7.847
REMARK  1 active torsions:
REMARK  status: ('A' for Active; 'I' for Inactive)
REMARK       I    between atoms: C6_12  and  N1_5 
REMARK    1  A    between atoms: C6_12  and  C8_14 
ROOT
HETATM    1 Br1  UNK     1      10.706   6.176   6.129  1.00  0.00    -0.051 Br
HETATM    2  O2  UNK     1      14.807   6.633  10.577  1.00  0.00    -0.274 OA
HETATM    3  O3  UNK     1      16.097   7.912  11.962  1.00  0.00    -0.259 OA
HETATM    4  C8  UNK     1      14.706   9.073  10.436  1.00  0.00     0.108 A 
HETATM    5  C9  UNK     1      13.800   9.005   9.453  1.00  0.00     0.037 A 
HETATM    6  C10 UNK     1      13.338   7.713   8.968  1.00  0.00     0.000 A 
HETATM    7  C11 UNK     1      15.268   7.854  11.061  1.00  0.00     0.304 A 
HETATM    8  C12 UNK     1      13.854   6.556   9.543  1.00  0.00     0.089 A 
HETATM    9  C13 UNK     1      12.394   7.596   7.945  1.00  0.00     0.033 A 
HETATM   10  C14 UNK     1      13.453   5.288   9.125  1.00  0.00     0.039 A 
HETATM   11  C15 UNK     1      11.983   6.330   7.515  1.00  0.00     0.011 A 
HETATM   12  C16 UNK     1      12.511   5.180   8.104  1.00  0.00     0.022 A 
ENDROOT
BRANCH   4  13
HETATM   13  C6  UNK     1      15.112  10.430  10.859  1.00  0.00     0.260 C 
HETATM   14  O1  UNK     1      14.415  10.998  11.701  1.00  0.00    -0.267 OA
HETATM   15  N1  UNK     1      16.263  10.972  10.274  1.00  0.00    -0.346 N 
HETATM   16  C2  UNK     1      16.685  12.313  10.683  1.00  0.00     0.128 C 
HETATM   17  C4  UNK     1      17.057  10.266   9.261  1.00  0.00     0.156 C 
HETATM   18  C1  UNK     1      16.396  13.346   9.601  1.00  0.00     0.050 C 
HETATM   19  C3  UNK     1      17.448  13.394   8.490  1.00  0.00     0.273 C 
HETATM   20  N2  UNK     1      17.588  12.151   7.715  1.00  0.00     0.085 N 
HETATM   21  C5  UNK     1      18.143  11.056   8.527  1.00  0.00     0.291 C 
HETATM   22  C7  UNK     1      18.459  12.404   6.561  1.00  0.00     0.309 C 
ENDBRANCH   4  13
TORSDOF 1
ENDMDL
MODEL 10
REMARK VINA RESULT:      -7.0      2.252      3.553
REMARK  1 active torsions:
REMARK  status: ('A' for Active; 'I' for Inactive)
REMARK       I    between atoms: C6_12  and  N1_5 
REMARK    1  A    between atoms: C6_12  and  C8_14 
ROOT
HETATM    1 Br1  UNK     1       5.600   5.046  12.386  1.00  0.00    -0.051 Br
HETATM    2  O2  UNK     1       8.929   7.268   7.826  1.00  0.00    -0.274 OA
HETATM    3  O3  UNK     1      10.869   7.302   6.620  1.00  0.00    -0.259 OA
HETATM    4  C8  UNK     1      10.774   5.779   8.432  1.00  0.00     0.108 A 
HETATM    5  C9  UNK     1      10.065   5.269   9.446  1.00  0.00     0.037 A 
HETATM    6  C10 UNK     1       8.715   5.745   9.709  1.00  0.00     0.000 A 
HETATM    7  C11 UNK     1      10.223   6.833   7.550  1.00  0.00     0.304 A 
HETATM    8  C12 UNK     1       8.179   6.734   8.892  1.00  0.00     0.089 A 
HETATM    9  C13 UNK     1       7.939   5.240  10.756  1.00  0.00     0.033 A 
HETATM   10  C14 UNK     1       6.892   7.233   9.090  1.00  0.00     0.039 A 
HETATM   11  C15 UNK     1       6.646   5.731  10.968  1.00  0.00     0.011 A 
HETATM   12  C16 UNK     1       6.125   6.724  10.137  1.00  0.00     0.022 A 
ENDROOT
BRANCH   4  13
HETATM   13  C6  UNK     1      12.134   5.232   8.245  1.00  0.00     0.260 C 
HETATM   14  O1  UNK     1      12.233   4.083   7.811  1.00  0.00    -0.267 OA
HETATM   15  N1  UNK     1      13.215   6.061   8.571  1.00  0.00    -0.346 N 
HETATM   16  C2  UNK     1      14.570   5.540   8.388  1.00  0.00     0.128 C 
HETATM   17  C4  UNK     1      13.052   7.421   9.100  1.00  0.00     0.156 C 
HETATM   18  C1  UNK     1      15.226   5.200   9.721  1.00  0.00     0.050 C 
HETATM   19  C3  UNK     1      15.826   6.408  10.444  1.00  0.00     0.273 C 
HETATM   20  N2  UNK     1      14.858   7.450  10.820  1.00  0.00     0.085 N 
HETATM   21  C5  UNK     1      14.296   8.130   9.643  1.00  0.00     0.291 C 
HETATM   22  C7  UNK     1      15.525   8.430  11.687  1.00  0.00     0.309 C 
ENDBRANCH   4  13
TORSDOF 1
ENDMDL
