MODEL 1
REMARK VINA RESULT:      -8.1      0.000      0.000
REMARK  8 active torsions:
REMARK  status: ('A' for Active; 'I' for Inactive)
REMARK    1  A    between atoms: C12_21  and  O2_2 
REMARK    2  A    between atoms: C14_23  and  O5_5 
REMARK    3  A    between atoms: C21_30  and  O5_5 
REMARK    4  A    between atoms: C25_34  and  O8_8 
REMARK    5  A    between atoms: C12_21  and  C2_11 
REMARK    6  A    between atoms: C11_20  and  C6_15 
REMARK    7  A    between atoms: C14_23  and  C8_17 
REMARK    8  A    between atoms: C21_30  and  C25_34 
ROOT
HETATM    1  O1  UNK     1      29.489  -8.864  33.547  1.00  0.00    -0.292 OA
HETATM    2  N1  UNK     1      31.345  -4.539  34.078  1.00  0.00    -0.362 N 
HETATM    3  C1  UNK     1      30.012  -6.285  31.025  1.00  0.00     0.008 C 
HETATM    4  C2  UNK     1      29.178  -7.382  31.699  1.00  0.00     0.164 C 
HETATM    5  C3  UNK     1      30.224  -5.092  31.966  1.00  0.00     0.063 C 
HETATM    6  C4  UNK     1      30.407  -6.705  33.886  1.00  0.00     0.025 C 
HETATM    7  C5  UNK     1      30.647  -5.488  33.356  1.00  0.00     0.020 C 
HETATM    8  C6  UNK     1      30.853  -7.047  35.306  1.00  0.00     0.104 C 
HETATM    9  C7  UNK     1      29.695  -7.744  33.080  1.00  0.00     0.172 C 
HETATM   10  C8  UNK     1      31.734  -5.962  35.929  1.00  0.00     0.052 C 
HETATM   11  C9  UNK     1      31.354  -6.844  30.527  1.00  0.00     0.011 C 
HETATM   12  C10 UNK     1      31.928  -4.772  35.313  1.00  0.00     0.018 C 
HETATM   13  C13 UNK     1      32.775  -3.640  35.830  1.00  0.00     0.069 C 
HETATM   14  H9  UNK     1      31.513  -3.641  33.639  1.00  0.00     0.165 HD
ENDROOT
BRANCH   8  15
HETATM   15  C11 UNK     1      29.658  -7.307  36.183  1.00  0.00     0.029 A 
HETATM   16  C15 UNK     1      29.678  -8.494  37.076  1.00  0.00     0.194 A 
HETATM   17  O7  UNK     1      30.632  -9.260  37.118  1.00  0.00    -0.287 OA
HETATM   18  C17 UNK     1      28.482  -8.704  37.912  1.00  0.00     0.048 A 
HETATM   19  C18 UNK     1      27.424  -7.798  37.822  1.00  0.00     0.089 A 
HETATM   20  C19 UNK     1      28.405  -9.792  38.784  1.00  0.00     0.018 A 
HETATM   21  O4  UNK     1      27.446  -6.713  36.983  1.00  0.00    -0.321 OA
HETATM   22  C22 UNK     1      26.283  -7.978  38.603  1.00  0.00     0.038 A 
HETATM   23  C16 UNK     1      28.567  -6.531  36.210  1.00  0.00     0.154 A 
HETATM   24  C24 UNK     1      26.203  -9.063  39.476  1.00  0.00     0.003 A 
HETATM   25  C23 UNK     1      27.262  -9.969  39.565  1.00  0.00     0.001 A 
ENDBRANCH   8  15
BRANCH  10  26
HETATM   26  C14 UNK     1      32.357  -6.287  37.223  1.00  0.00     0.292 C 
HETATM   27  O6  UNK     1      31.893  -5.938  38.293  1.00  0.00    -0.259 OA
BRANCH  26  28
HETATM   28  O5  UNK     1      33.479  -7.009  36.988  1.00  0.00    -0.316 OA
BRANCH  28  29
HETATM   29  C21 UNK     1      34.702  -6.366  37.362  1.00  0.00     0.205 C 
BRANCH  29  30
HETATM   30  C25 UNK     1      35.494  -6.045  36.109  1.00  0.00     0.193 C 
BRANCH  30  31
HETATM   31  O8  UNK     1      35.024  -6.859  35.041  1.00  0.00    -0.394 OA
HETATM   32  C26 UNK     1      35.020  -6.149  33.810  1.00  0.00     0.201 C 
ENDBRANCH  30  31
ENDBRANCH  29  30
ENDBRANCH  28  29
ENDBRANCH  26  28
ENDBRANCH  10  26
BRANCH   4  33
HETATM   33  C12 UNK     1      27.731  -6.986  31.731  1.00  0.00     0.270 C 
HETATM   34  O3  UNK     1      27.233  -6.285  32.600  1.00  0.00    -0.264 OA
BRANCH  33  35
HETATM   35  O2  UNK     1      27.088  -7.527  30.658  1.00  0.00    -0.326 OA
HETATM   36  C20 UNK     1      27.611  -8.774  30.191  1.00  0.00     0.213 C 
ENDBRANCH  33  35
ENDBRANCH   4  33
TORSDOF 8
ENDMDL
MODEL 2
REMARK VINA RESULT:      -7.8      3.028      4.322
REMARK  8 active torsions:
REMARK  status: ('A' for Active; 'I' for Inactive)
REMARK    1  A    between atoms: C12_21  and  O2_2 
REMARK    2  A    between atoms: C14_23  and  O5_5 
REMARK    3  A    between atoms: C21_30  and  O5_5 
REMARK    4  A    between atoms: C25_34  and  O8_8 
REMARK    5  A    between atoms: C12_21  and  C2_11 
REMARK    6  A    between atoms: C11_20  and  C6_15 
REMARK    7  A    between atoms: C14_23  and  C8_17 
REMARK    8  A    between atoms: C21_30  and  C25_34 
ROOT
HETATM    1  O1  UNK     1      29.983  -9.858  32.623  1.00  0.00    -0.292 OA
HETATM    2  N1  UNK     1      32.476  -7.253  29.551  1.00  0.00    -0.362 N 
HETATM    3  C1  UNK     1      29.094  -8.867  29.230  1.00  0.00     0.008 C 
HETATM    4  C2  UNK     1      28.771  -9.087  30.713  1.00  0.00     0.164 C 
HETATM    5  C3  UNK     1      30.126  -7.746  29.047  1.00  0.00     0.063 C 
HETATM    6  C4  UNK     1      31.273  -8.530  31.142  1.00  0.00     0.025 C 
HETATM    7  C5  UNK     1      31.307  -7.857  29.973  1.00  0.00     0.020 C 
HETATM    8  C6  UNK     1      32.502  -8.601  32.046  1.00  0.00     0.104 C 
HETATM    9  C7  UNK     1      30.018  -9.224  31.568  1.00  0.00     0.172 C 
HETATM   10  C8  UNK     1      33.755  -8.017  31.390  1.00  0.00     0.052 C 
HETATM   11  C9  UNK     1      29.570 -10.171  28.571  1.00  0.00     0.011 C 
HETATM   12  C10 UNK     1      33.693  -7.367  30.205  1.00  0.00     0.018 C 
HETATM   13  C13 UNK     1      34.859  -6.760  29.471  1.00  0.00     0.069 C 
HETATM   14  H9  UNK     1      32.462  -6.765  28.663  1.00  0.00     0.165 HD
ENDROOT
BRANCH   8  15
HETATM   15  C11 UNK     1      32.232  -7.907  33.354  1.00  0.00     0.029 A 
HETATM   16  C15 UNK     1      32.541  -8.626  34.616  1.00  0.00     0.194 A 
HETATM   17  O7  UNK     1      33.006  -9.759  34.622  1.00  0.00    -0.287 OA
HETATM   18  C17 UNK     1      32.256  -7.901  35.868  1.00  0.00     0.048 A 
HETATM   19  C18 UNK     1      31.726  -6.612  35.800  1.00  0.00     0.089 A 
HETATM   20  C19 UNK     1      32.512  -8.492  37.107  1.00  0.00     0.018 A 
HETATM   21  O4  UNK     1      31.455  -5.983  34.611  1.00  0.00    -0.321 OA
HETATM   22  C22 UNK     1      31.449  -5.908  36.972  1.00  0.00     0.038 A 
HETATM   23  C16 UNK     1      31.726  -6.671  33.453  1.00  0.00     0.154 A 
HETATM   24  C24 UNK     1      31.704  -6.496  38.211  1.00  0.00     0.003 A 
HETATM   25  C23 UNK     1      32.234  -7.785  38.278  1.00  0.00     0.001 A 
ENDBRANCH   8  15
BRANCH  10  26
HETATM   26  C14 UNK     1      35.022  -8.207  32.116  1.00  0.00     0.292 C 
HETATM   27  O6  UNK     1      35.640  -9.256  32.118  1.00  0.00    -0.259 OA
BRANCH  26  28
HETATM   28  O5  UNK     1      35.335  -7.046  32.740  1.00  0.00    -0.316 OA
BRANCH  28  29
HETATM   29  C21 UNK     1      35.927  -7.194  34.035  1.00  0.00     0.205 C 
BRANCH  29  30
HETATM   30  C25 UNK     1      35.400  -6.103  34.946  1.00  0.00     0.193 C 
BRANCH  30  31
HETATM   31  O8  UNK     1      34.776  -5.098  34.156  1.00  0.00    -0.394 OA
HETATM   32  C26 UNK     1      34.339  -4.006  34.953  1.00  0.00     0.201 C 
ENDBRANCH  30  31
ENDBRANCH  29  30
ENDBRANCH  28  29
ENDBRANCH  26  28
ENDBRANCH  10  26
BRANCH   4  33
HETATM   33  C12 UNK     1      27.868  -7.999  31.213  1.00  0.00     0.270 C 
HETATM   34  O3  UNK     1      28.125  -7.282  32.170  1.00  0.00    -0.264 OA
BRANCH  33  35
HETATM   35  O2  UNK     1      26.745  -7.949  30.442  1.00  0.00    -0.326 OA
HETATM   36  C20 UNK     1      26.240  -6.637  30.177  1.00  0.00     0.213 C 
ENDBRANCH  33  35
ENDBRANCH   4  33
TORSDOF 8
ENDMDL
MODEL 3
REMARK VINA RESULT:      -7.8      2.053      6.302
REMARK  8 active torsions:
REMARK  status: ('A' for Active; 'I' for Inactive)
REMARK    1  A    between atoms: C12_21  and  O2_2 
REMARK    2  A    between atoms: C14_23  and  O5_5 
REMARK    3  A    between atoms: C21_30  and  O5_5 
REMARK    4  A    between atoms: C25_34  and  O8_8 
REMARK    5  A    between atoms: C12_21  and  C2_11 
REMARK    6  A    between atoms: C11_20  and  C6_15 
REMARK    7  A    between atoms: C14_23  and  C8_17 
REMARK    8  A    between atoms: C21_30  and  C25_34 
ROOT
HETATM    1  O1  UNK     1      32.224  -8.092  34.548  1.00  0.00    -0.292 OA
HETATM    2  N1  UNK     1      30.188  -5.939  38.243  1.00  0.00    -0.362 N 
HETATM    3  C1  UNK     1      33.744  -5.886  37.019  1.00  0.00     0.008 C 
HETATM    4  C2  UNK     1      33.530  -6.379  35.583  1.00  0.00     0.164 C 
HETATM    5  C3  UNK     1      32.459  -5.274  37.593  1.00  0.00     0.063 C 
HETATM    6  C4  UNK     1      31.138  -7.027  36.367  1.00  0.00     0.025 C 
HETATM    7  C5  UNK     1      31.233  -6.116  37.357  1.00  0.00     0.020 C 
HETATM    8  C6  UNK     1      29.865  -7.846  36.170  1.00  0.00     0.104 C 
HETATM    9  C7  UNK     1      32.293  -7.249  35.443  1.00  0.00     0.172 C 
HETATM   10  C8  UNK     1      28.854  -7.652  37.302  1.00  0.00     0.052 C 
HETATM   11  C9  UNK     1      34.268  -7.017  37.917  1.00  0.00     0.011 C 
HETATM   12  C10 UNK     1      29.041  -6.718  38.262  1.00  0.00     0.018 C 
HETATM   13  C13 UNK     1      28.118  -6.445  39.420  1.00  0.00     0.069 C 
HETATM   14  H9  UNK     1      30.303  -5.251  38.979  1.00  0.00     0.165 HD
ENDROOT
BRANCH   8  15
HETATM   15  C11 UNK     1      29.227  -7.516  34.847  1.00  0.00     0.029 A 
HETATM   16  C15 UNK     1      29.134  -8.583  33.819  1.00  0.00     0.194 A 
HETATM   17  O7  UNK     1      29.557  -9.716  34.015  1.00  0.00    -0.287 OA
HETATM   18  C17 UNK     1      28.503  -8.207  32.540  1.00  0.00     0.048 A 
HETATM   19  C18 UNK     1      28.040  -6.901  32.372  1.00  0.00     0.089 A 
HETATM   20  C19 UNK     1      28.369  -9.139  31.510  1.00  0.00     0.018 A 
HETATM   21  O4  UNK     1      28.146  -5.944  33.349  1.00  0.00    -0.321 OA
HETATM   22  C22 UNK     1      27.440  -6.522  31.170  1.00  0.00     0.038 A 
HETATM   23  C16 UNK     1      28.736  -6.310  34.535  1.00  0.00     0.154 A 
HETATM   24  C24 UNK     1      27.304  -7.452  30.139  1.00  0.00     0.003 A 
HETATM   25  C23 UNK     1      27.768  -8.758  30.309  1.00  0.00     0.001 A 
ENDBRANCH   8  15
BRANCH  10  26
HETATM   26  C14 UNK     1      27.677  -8.538  37.288  1.00  0.00     0.292 C 
HETATM   27  O6  UNK     1      26.583  -8.189  36.883  1.00  0.00    -0.259 OA
BRANCH  26  28
HETATM   28  O5  UNK     1      28.044  -9.743  37.785  1.00  0.00    -0.316 OA
BRANCH  28  29
HETATM   29  C21 UNK     1      27.292 -10.184  38.922  1.00  0.00     0.205 C 
BRANCH  29  30
HETATM   30  C25 UNK     1      28.177 -10.124  40.152  1.00  0.00     0.193 C 
BRANCH  30  31
HETATM   31  O8  UNK     1      29.367 -10.863  39.905  1.00  0.00    -0.394 OA
HETATM   32  C26 UNK     1      29.947 -11.335  41.113  1.00  0.00     0.201 C 
ENDBRANCH  30  31
ENDBRANCH  29  30
ENDBRANCH  28  29
ENDBRANCH  26  28
ENDBRANCH  10  26
BRANCH   4  33
HETATM   33  C12 UNK     1      33.506  -5.218  34.634  1.00  0.00     0.270 C 
HETATM   34  O3  UNK     1      32.500  -4.579  34.360  1.00  0.00    -0.264 OA
BRANCH  33  35
HETATM   35  O2  UNK     1      34.761  -5.004  34.146  1.00  0.00    -0.326 OA
HETATM   36  C20 UNK     1      35.327  -6.090  33.407  1.00  0.00     0.213 C 
ENDBRANCH  33  35
ENDBRANCH   4  33
TORSDOF 8
ENDMDL
MODEL 4
REMARK VINA RESULT:      -7.6      2.782      7.090
REMARK  8 active torsions:
REMARK  status: ('A' for Active; 'I' for Inactive)
REMARK    1  A    between atoms: C12_21  and  O2_2 
REMARK    2  A    between atoms: C14_23  and  O5_5 
REMARK    3  A    between atoms: C21_30  and  O5_5 
REMARK    4  A    between atoms: C25_34  and  O8_8 
REMARK    5  A    between atoms: C12_21  and  C2_11 
REMARK    6  A    between atoms: C11_20  and  C6_15 
REMARK    7  A    between atoms: C14_23  and  C8_17 
REMARK    8  A    between atoms: C21_30  and  C25_34 
ROOT
HETATM    1  O1  UNK     1      30.178  -9.109  35.384  1.00  0.00    -0.292 OA
HETATM    2  N1  UNK     1      30.763  -4.880  33.333  1.00  0.00    -0.362 N 
HETATM    3  C1  UNK     1      31.220  -5.965  36.905  1.00  0.00     0.008 C 
HETATM    4  C2  UNK     1      31.328  -7.481  36.702  1.00  0.00     0.164 C 
HETATM    5  C3  UNK     1      31.585  -5.206  35.622  1.00  0.00     0.063 C 
HETATM    6  C4  UNK     1      30.473  -7.026  34.291  1.00  0.00     0.025 C 
HETATM    7  C5  UNK     1      30.925  -5.758  34.387  1.00  0.00     0.020 C 
HETATM    8  C6  UNK     1      29.819  -7.534  33.008  1.00  0.00     0.104 C 
HETATM    9  C7  UNK     1      30.606  -7.956  35.454  1.00  0.00     0.172 C 
HETATM   10  C8  UNK     1      29.577  -6.421  31.985  1.00  0.00     0.052 C 
HETATM   11  C9  UNK     1      29.819  -5.575  37.400  1.00  0.00     0.011 C 
HETATM   12  C10 UNK     1      30.060  -5.172  32.174  1.00  0.00     0.018 C 
HETATM   13  C13 UNK     1      29.879  -4.005  31.241  1.00  0.00     0.069 C 
HETATM   14  H9  UNK     1      31.109  -3.934  33.449  1.00  0.00     0.165 HD
ENDROOT
BRANCH   8  15
HETATM   15  C11 UNK     1      30.650  -8.628  32.393  1.00  0.00     0.029 A 
HETATM   16  C15 UNK     1      30.021  -9.953  32.165  1.00  0.00     0.194 A 
HETATM   17  O7  UNK     1      28.854 -10.180  32.461  1.00  0.00    -0.287 OA
HETATM   18  C17 UNK     1      30.879 -10.990  31.562  1.00  0.00     0.048 A 
HETATM   19  C18 UNK     1      32.202 -10.676  31.246  1.00  0.00     0.089 A 
HETATM   20  C19 UNK     1      30.380 -12.270  31.310  1.00  0.00     0.018 A 
HETATM   21  O4  UNK     1      32.744  -9.436  31.473  1.00  0.00    -0.321 OA
HETATM   22  C22 UNK     1      33.031 -11.641  30.676  1.00  0.00     0.038 A 
HETATM   23  C16 UNK     1      31.932  -8.481  32.035  1.00  0.00     0.154 A 
HETATM   24  C24 UNK     1      32.536 -12.920  30.421  1.00  0.00     0.003 A 
HETATM   25  C23 UNK     1      31.213 -13.233  30.738  1.00  0.00     0.001 A 
ENDBRANCH   8  15
BRANCH  10  26
HETATM   26  C14 UNK     1      28.789  -6.786  30.796  1.00  0.00     0.292 C 
HETATM   27  O6  UNK     1      27.611  -7.090  30.842  1.00  0.00    -0.259 OA
BRANCH  26  28
HETATM   28  O5  UNK     1      29.597  -6.716  29.710  1.00  0.00    -0.316 OA
BRANCH  28  29
HETATM   29  C21 UNK     1      29.771  -7.949  29.004  1.00  0.00     0.205 C 
BRANCH  29  30
HETATM   30  C25 UNK     1      31.180  -8.004  28.447  1.00  0.00     0.193 C 
BRANCH  30  31
HETATM   31  O8  UNK     1      31.347  -9.215  27.721  1.00  0.00    -0.394 OA
HETATM   32  C26 UNK     1      30.305 -10.139  28.002  1.00  0.00     0.201 C 
ENDBRANCH  30  31
ENDBRANCH  29  30
ENDBRANCH  28  29
ENDBRANCH  26  28
ENDBRANCH  10  26
BRANCH   4  33
HETATM   33  C12 UNK     1      32.767  -7.904  36.708  1.00  0.00     0.270 C 
HETATM   34  O3  UNK     1      33.295  -8.550  35.815  1.00  0.00    -0.264 OA
BRANCH  33  35
HETATM   35  O2  UNK     1      33.368  -7.455  37.847  1.00  0.00    -0.326 OA
HETATM   36  C20 UNK     1      34.472  -6.566  37.651  1.00  0.00     0.213 C 
ENDBRANCH  33  35
ENDBRANCH   4  33
TORSDOF 8
ENDMDL
MODEL 5
REMARK VINA RESULT:      -7.5      2.716      6.451
REMARK  8 active torsions:
REMARK  status: ('A' for Active; 'I' for Inactive)
REMARK    1  A    between atoms: C12_21  and  O2_2 
REMARK    2  A    between atoms: C14_23  and  O5_5 
REMARK    3  A    between atoms: C21_30  and  O5_5 
REMARK    4  A    between atoms: C25_34  and  O8_8 
REMARK    5  A    between atoms: C12_21  and  C2_11 
REMARK    6  A    between atoms: C11_20  and  C6_15 
REMARK    7  A    between atoms: C14_23  and  C8_17 
REMARK    8  A    between atoms: C21_30  and  C25_34 
ROOT
HETATM    1  O1  UNK     1      27.786  -9.213  36.099  1.00  0.00    -0.292 OA
HETATM    2  N1  UNK     1      31.044  -5.833  36.726  1.00  0.00    -0.362 N 
HETATM    3  C1  UNK     1      28.322  -7.078  39.004  1.00  0.00     0.008 C 
HETATM    4  C2  UNK     1      28.033  -8.431  38.344  1.00  0.00     0.164 C 
HETATM    5  C3  UNK     1      29.734  -6.583  38.660  1.00  0.00     0.063 C 
HETATM    6  C4  UNK     1      29.456  -7.549  36.356  1.00  0.00     0.025 C 
HETATM    7  C5  UNK     1      30.072  -6.694  37.198  1.00  0.00     0.020 C 
HETATM    8  C6  UNK     1      29.847  -7.623  34.882  1.00  0.00     0.104 C 
HETATM    9  C7  UNK     1      28.369  -8.443  36.863  1.00  0.00     0.172 C 
HETATM   10  C8  UNK     1      30.827  -6.521  34.473  1.00  0.00     0.052 C 
HETATM   11  C9  UNK     1      27.261  -6.038  38.614  1.00  0.00     0.011 C 
HETATM   12  C10 UNK     1      31.387  -5.699  35.390  1.00  0.00     0.018 C 
HETATM   13  C13 UNK     1      32.355  -4.583  35.100  1.00  0.00     0.069 C 
HETATM   14  H9  UNK     1      31.476  -5.199  37.389  1.00  0.00     0.165 HD
ENDROOT
BRANCH   8  15
HETATM   15  C11 UNK     1      30.427  -8.975  34.560  1.00  0.00     0.029 A 
HETATM   16  C15 UNK     1      29.881  -9.723  33.400  1.00  0.00     0.194 A 
HETATM   17  O7  UNK     1      28.980  -9.275  32.702  1.00  0.00    -0.287 OA
HETATM   18  C17 UNK     1      30.483 -11.042  33.129  1.00  0.00     0.048 A 
HETATM   19  C18 UNK     1      31.507 -11.502  33.958  1.00  0.00     0.089 A 
HETATM   20  C19 UNK     1      30.038 -11.822  32.061  1.00  0.00     0.018 A 
HETATM   21  O4  UNK     1      31.983 -10.777  35.021  1.00  0.00    -0.321 OA
HETATM   22  C22 UNK     1      32.091 -12.747  33.721  1.00  0.00     0.038 A 
HETATM   23  C16 UNK     1      31.413  -9.551  35.261  1.00  0.00     0.154 A 
HETATM   24  C24 UNK     1      31.649 -13.529  32.654  1.00  0.00     0.003 A 
HETATM   25  C23 UNK     1      30.624 -13.067  31.826  1.00  0.00     0.001 A 
ENDBRANCH   8  15
BRANCH  10  26
HETATM   26  C14 UNK     1      31.118  -6.406  33.034  1.00  0.00     0.292 C 
HETATM   27  O6  UNK     1      32.088  -6.918  32.505  1.00  0.00    -0.259 OA
BRANCH  26  28
HETATM   28  O5  UNK     1      30.144  -5.660  32.459  1.00  0.00    -0.316 OA
BRANCH  28  29
HETATM   29  C21 UNK     1      30.052  -5.777  31.035  1.00  0.00     0.205 C 
BRANCH  29  30
HETATM   30  C25 UNK     1      28.637  -6.178  30.664  1.00  0.00     0.193 C 
BRANCH  30  31
HETATM   31  O8  UNK     1      28.688  -7.193  29.668  1.00  0.00    -0.394 OA
HETATM   32  C26 UNK     1      30.017  -7.646  29.453  1.00  0.00     0.201 C 
ENDBRANCH  30  31
ENDBRANCH  29  30
ENDBRANCH  28  29
ENDBRANCH  26  28
ENDBRANCH  10  26
BRANCH   4  33
HETATM   33  C12 UNK     1      28.736  -9.530  39.084  1.00  0.00     0.270 C 
HETATM   34  O3  UNK     1      29.784 -10.041  38.716  1.00  0.00    -0.264 OA
BRANCH  33  35
HETATM   35  O2  UNK     1      28.027  -9.850  40.204  1.00  0.00    -0.326 OA
HETATM   36  C20 UNK     1      26.656 -10.193  39.986  1.00  0.00     0.213 C 
ENDBRANCH  33  35
ENDBRANCH   4  33
TORSDOF 8
ENDMDL
MODEL 6
REMARK VINA RESULT:      -7.5      3.132      4.950
REMARK  8 active torsions:
REMARK  status: ('A' for Active; 'I' for Inactive)
REMARK    1  A    between atoms: C12_21  and  O2_2 
REMARK    2  A    between atoms: C14_23  and  O5_5 
REMARK    3  A    between atoms: C21_30  and  O5_5 
REMARK    4  A    between atoms: C25_34  and  O8_8 
REMARK    5  A    between atoms: C12_21  and  C2_11 
REMARK    6  A    between atoms: C11_20  and  C6_15 
REMARK    7  A    between atoms: C14_23  and  C8_17 
REMARK    8  A    between atoms: C21_30  and  C25_34 
ROOT
HETATM    1  O1  UNK     1      29.668  -9.648  32.755  1.00  0.00    -0.292 OA
HETATM    2  N1  UNK     1      32.224  -7.260  29.562  1.00  0.00    -0.362 N 
HETATM    3  C1  UNK     1      28.716  -8.606  29.395  1.00  0.00     0.008 C 
HETATM    4  C2  UNK     1      28.440  -8.794  30.892  1.00  0.00     0.164 C 
HETATM    5  C3  UNK     1      29.824  -7.570  29.160  1.00  0.00     0.063 C 
HETATM    6  C4  UNK     1      30.994  -8.432  31.211  1.00  0.00     0.025 C 
HETATM    7  C5  UNK     1      31.031  -7.769  30.037  1.00  0.00     0.020 C 
HETATM    8  C6  UNK     1      32.250  -8.595  32.064  1.00  0.00     0.104 C 
HETATM    9  C7  UNK     1      29.708  -9.023  31.695  1.00  0.00     0.172 C 
HETATM   10  C8  UNK     1      33.516  -8.114  31.352  1.00  0.00     0.052 C 
HETATM   11  C9  UNK     1      29.061  -9.946  28.728  1.00  0.00     0.011 C 
HETATM   12  C10 UNK     1      33.455  -7.466  30.166  1.00  0.00     0.018 C 
HETATM   13  C13 UNK     1      34.632  -6.955  29.378  1.00  0.00     0.069 C 
HETATM   14  H9  UNK     1      32.211  -6.777  28.672  1.00  0.00     0.165 HD
ENDROOT
BRANCH   8  15
HETATM   15  C11 UNK     1      32.091  -7.875  33.377  1.00  0.00     0.029 A 
HETATM   16  C15 UNK     1      32.335  -8.629  34.633  1.00  0.00     0.194 A 
HETATM   17  O7  UNK     1      32.659  -9.810  34.631  1.00  0.00    -0.287 OA
HETATM   18  C17 UNK     1      32.163  -7.878  35.890  1.00  0.00     0.048 A 
HETATM   19  C18 UNK     1      31.791  -6.534  35.831  1.00  0.00     0.089 A 
HETATM   20  C19 UNK     1      32.368  -8.498  37.124  1.00  0.00     0.018 A 
HETATM   21  O4  UNK     1      31.576  -5.875  34.648  1.00  0.00    -0.321 OA
HETATM   22  C22 UNK     1      31.622  -5.804  37.008  1.00  0.00     0.038 A 
HETATM   23  C16 UNK     1      31.740  -6.588  33.485  1.00  0.00     0.154 A 
HETATM   24  C24 UNK     1      31.827  -6.420  38.243  1.00  0.00     0.003 A 
HETATM   25  C23 UNK     1      32.199  -7.765  38.300  1.00  0.00     0.001 A 
ENDBRANCH   8  15
BRANCH  10  26
HETATM   26  C14 UNK     1      34.794  -8.398  32.026  1.00  0.00     0.292 C 
HETATM   27  O6  UNK     1      35.574  -7.531  32.375  1.00  0.00    -0.259 OA
BRANCH  26  28
HETATM   28  O5  UNK     1      34.912  -9.740  32.169  1.00  0.00    -0.316 OA
BRANCH  28  29
HETATM   29  C21 UNK     1      35.393 -10.433  31.012  1.00  0.00     0.205 C 
BRANCH  29  30
HETATM   30  C25 UNK     1      34.474 -11.602  30.720  1.00  0.00     0.193 C 
BRANCH  30  31
HETATM   31  O8  UNK     1      33.512 -11.206  29.749  1.00  0.00    -0.394 OA
HETATM   32  C26 UNK     1      32.231 -11.751  30.033  1.00  0.00     0.201 C 
ENDBRANCH  30  31
ENDBRANCH  29  30
ENDBRANCH  28  29
ENDBRANCH  26  28
ENDBRANCH  10  26
BRANCH   4  33
HETATM   33  C12 UNK     1      27.647  -7.636  31.421  1.00  0.00     0.270 C 
HETATM   34  O3  UNK     1      26.715  -7.115  30.825  1.00  0.00    -0.264 OA
BRANCH  33  35
HETATM   35  O2  UNK     1      28.128  -7.276  32.645  1.00  0.00    -0.326 OA
HETATM   36  C20 UNK     1      28.108  -5.873  32.925  1.00  0.00     0.213 C 
ENDBRANCH  33  35
ENDBRANCH   4  33
TORSDOF 8
ENDMDL
MODEL 7
REMARK VINA RESULT:      -7.4      2.005      6.015
REMARK  8 active torsions:
REMARK  status: ('A' for Active; 'I' for Inactive)
REMARK    1  A    between atoms: C12_21  and  O2_2 
REMARK    2  A    between atoms: C14_23  and  O5_5 
REMARK    3  A    between atoms: C21_30  and  O5_5 
REMARK    4  A    between atoms: C25_34  and  O8_8 
REMARK    5  A    between atoms: C12_21  and  C2_11 
REMARK    6  A    between atoms: C11_20  and  C6_15 
REMARK    7  A    between atoms: C14_23  and  C8_17 
REMARK    8  A    between atoms: C21_30  and  C25_34 
ROOT
HETATM    1  O1  UNK     1      27.751  -6.724  35.103  1.00  0.00    -0.292 OA
HETATM    2  N1  UNK     1      31.644  -7.949  37.506  1.00  0.00    -0.362 N 
HETATM    3  C1  UNK     1      28.021  -7.970  38.518  1.00  0.00     0.008 C 
HETATM    4  C2  UNK     1      27.366  -7.927  37.132  1.00  0.00     0.164 C 
HETATM    5  C3  UNK     1      29.450  -8.526  38.440  1.00  0.00     0.063 C 
HETATM    6  C4  UNK     1      29.736  -7.341  36.242  1.00  0.00     0.025 C 
HETATM    7  C5  UNK     1      30.274  -7.920  37.336  1.00  0.00     0.020 C 
HETATM    8  C6  UNK     1      30.623  -6.750  35.148  1.00  0.00     0.104 C 
HETATM    9  C7  UNK     1      28.251  -7.269  36.088  1.00  0.00     0.172 C 
HETATM   10  C8  UNK     1      32.104  -6.722  35.536  1.00  0.00     0.052 C 
HETATM   11  C9  UNK     1      28.003  -6.582  39.177  1.00  0.00     0.011 C 
HETATM   12  C10 UNK     1      32.549  -7.322  36.664  1.00  0.00     0.018 C 
HETATM   13  C13 UNK     1      33.976  -7.352  37.142  1.00  0.00     0.069 C 
HETATM   14  H9  UNK     1      32.007  -8.385  38.346  1.00  0.00     0.165 HD
ENDROOT
BRANCH   8  15
HETATM   15  C11 UNK     1      30.442  -7.505  33.859  1.00  0.00     0.029 A 
HETATM   16  C15 UNK     1      30.155  -6.737  32.621  1.00  0.00     0.194 A 
HETATM   17  O7  UNK     1      30.064  -5.516  32.619  1.00  0.00    -0.287 OA
HETATM   18  C17 UNK     1      29.984  -7.526  31.387  1.00  0.00     0.048 A 
HETATM   19  C18 UNK     1      30.098  -8.916  31.449  1.00  0.00     0.089 A 
HETATM   20  C19 UNK     1      29.711  -6.896  30.171  1.00  0.00     0.018 A 
HETATM   21  O4  UNK     1      30.365  -9.586  32.616  1.00  0.00    -0.321 OA
HETATM   22  C22 UNK     1      29.940  -9.681  30.294  1.00  0.00     0.038 A 
HETATM   23  C16 UNK     1      30.522  -8.838  33.757  1.00  0.00     0.154 A 
HETATM   24  C24 UNK     1      29.668  -9.055  29.077  1.00  0.00     0.003 A 
HETATM   25  C23 UNK     1      29.553  -7.665  29.017  1.00  0.00     0.001 A 
ENDBRANCH   8  15
BRANCH  10  26
HETATM   26  C14 UNK     1      33.007  -6.005  34.619  1.00  0.00     0.292 C 
HETATM   27  O6  UNK     1      33.897  -6.553  33.996  1.00  0.00    -0.259 OA
BRANCH  26  28
HETATM   28  O5  UNK     1      32.660  -4.696  34.614  1.00  0.00    -0.316 OA
BRANCH  28  29
HETATM   29  C21 UNK     1      33.234  -3.913  35.667  1.00  0.00     0.205 C 
BRANCH  29  30
HETATM   30  C25 UNK     1      32.122  -3.218  36.428  1.00  0.00     0.193 C 
BRANCH  30  31
HETATM   31  O8  UNK     1      31.703  -4.051  37.503  1.00  0.00    -0.394 OA
HETATM   32  C26 UNK     1      30.298  -3.982  37.697  1.00  0.00     0.201 C 
ENDBRANCH  30  31
ENDBRANCH  29  30
ENDBRANCH  28  29
ENDBRANCH  26  28
ENDBRANCH  10  26
BRANCH   4  33
HETATM   33  C12 UNK     1      26.944  -9.305  36.716  1.00  0.00     0.270 C 
HETATM   34  O3  UNK     1      27.478  -9.944  35.820  1.00  0.00    -0.264 OA
BRANCH  33  35
HETATM   35  O2  UNK     1      25.895  -9.711  37.486  1.00  0.00    -0.326 OA
HETATM   36  C20 UNK     1      24.761  -8.839  37.489  1.00  0.00     0.213 C 
ENDBRANCH  33  35
ENDBRANCH   4  33
TORSDOF 8
ENDMDL
MODEL 8
REMARK VINA RESULT:      -7.4      2.170      5.203
REMARK  8 active torsions:
REMARK  status: ('A' for Active; 'I' for Inactive)
REMARK    1  A    between atoms: C12_21  and  O2_2 
REMARK    2  A    between atoms: C14_23  and  O5_5 
REMARK    3  A    between atoms: C21_30  and  O5_5 
REMARK    4  A    between atoms: C25_34  and  O8_8 
REMARK    5  A    between atoms: C12_21  and  C2_11 
REMARK    6  A    between atoms: C11_20  and  C6_15 
REMARK    7  A    between atoms: C14_23  and  C8_17 
REMARK    8  A    between atoms: C21_30  and  C25_34 
ROOT
HETATM    1  O1  UNK     1      29.943  -4.905  31.912  1.00  0.00    -0.292 OA
HETATM    2  N1  UNK     1      28.331  -8.933  33.812  1.00  0.00    -0.362 N 
HETATM    3  C1  UNK     1      28.001  -7.552  30.329  1.00  0.00     0.008 C 
HETATM    4  C2  UNK     1      29.140  -6.526  30.350  1.00  0.00     0.164 C 
HETATM    5  C3  UNK     1      28.225  -8.651  31.377  1.00  0.00     0.063 C 
HETATM    6  C4  UNK     1      29.184  -6.913  32.919  1.00  0.00     0.025 C 
HETATM    7  C5  UNK     1      28.617  -8.122  32.731  1.00  0.00     0.020 C 
HETATM    8  C6  UNK     1      29.569  -6.432  34.317  1.00  0.00     0.104 C 
HETATM    9  C7  UNK     1      29.445  -6.019  31.748  1.00  0.00     0.172 C 
HETATM   10  C8  UNK     1      29.066  -7.362  35.423  1.00  0.00     0.052 C 
HETATM   11  C9  UNK     1      26.640  -6.868  30.527  1.00  0.00     0.011 C 
HETATM   12  C10 UNK     1      28.495  -8.555  35.136  1.00  0.00     0.018 C 
HETATM   13  C13 UNK     1      27.963  -9.542  36.140  1.00  0.00     0.069 C 
HETATM   14  H9  UNK     1      27.896  -9.830  33.629  1.00  0.00     0.165 HD
ENDROOT
BRANCH   8  15
HETATM   15  C11 UNK     1      31.061  -6.265  34.422  1.00  0.00     0.029 A 
HETATM   16  C15 UNK     1      31.927  -7.439  34.150  1.00  0.00     0.194 A 
HETATM   17  O7  UNK     1      31.466  -8.532  33.844  1.00  0.00    -0.287 OA
HETATM   18  C17 UNK     1      33.381  -7.222  34.270  1.00  0.00     0.048 A 
HETATM   19  C18 UNK     1      33.850  -5.955  34.623  1.00  0.00     0.089 A 
HETATM   20  C19 UNK     1      34.279  -8.265  34.035  1.00  0.00     0.018 A 
HETATM   21  O4  UNK     1      33.013  -4.896  34.865  1.00  0.00    -0.321 OA
HETATM   22  C22 UNK     1      35.221  -5.727  34.742  1.00  0.00     0.038 A 
HETATM   23  C16 UNK     1      31.662  -5.114  34.750  1.00  0.00     0.154 A 
HETATM   24  C24 UNK     1      36.121  -6.767  34.507  1.00  0.00     0.003 A 
HETATM   25  C23 UNK     1      35.650  -8.033  34.154  1.00  0.00     0.001 A 
ENDBRANCH   8  15
BRANCH  10  26
HETATM   26  C14 UNK     1      29.233  -6.885  36.806  1.00  0.00     0.292 C 
HETATM   27  O6  UNK     1      28.653  -5.912  37.252  1.00  0.00    -0.259 OA
BRANCH  26  28
HETATM   28  O5  UNK     1      30.110  -7.703  37.437  1.00  0.00    -0.316 OA
BRANCH  28  29
HETATM   29  C21 UNK     1      31.033  -7.043  38.310  1.00  0.00     0.205 C 
BRANCH  29  30
HETATM   30  C25 UNK     1      32.445  -7.440  37.926  1.00  0.00     0.193 C 
BRANCH  30  31
HETATM   31  O8  UNK     1      33.280  -6.289  37.968  1.00  0.00    -0.394 OA
HETATM   32  C26 UNK     1      32.561  -5.139  38.392  1.00  0.00     0.201 C 
ENDBRANCH  30  31
ENDBRANCH  29  30
ENDBRANCH  28  29
ENDBRANCH  26  28
ENDBRANCH  10  26
BRANCH   4  33
HETATM   33  C12 UNK     1      30.359  -7.090  29.683  1.00  0.00     0.270 C 
HETATM   34  O3  UNK     1      31.499  -6.935  30.097  1.00  0.00    -0.264 OA
BRANCH  33  35
HETATM   35  O2  UNK     1      29.988  -7.787  28.571  1.00  0.00    -0.326 OA
HETATM   36  C20 UNK     1      30.863  -8.855  28.195  1.00  0.00     0.213 C 
ENDBRANCH  33  35
ENDBRANCH   4  33
TORSDOF 8
ENDMDL
MODEL 9
REMARK VINA RESULT:      -7.3      2.294      5.765
REMARK  8 active torsions:
REMARK  status: ('A' for Active; 'I' for Inactive)
REMARK    1  A    between atoms: C12_21  and  O2_2 
REMARK    2  A    between atoms: C14_23  and  O5_5 
REMARK    3  A    between atoms: C21_30  and  O5_5 
REMARK    4  A    between atoms: C25_34  and  O8_8 
REMARK    5  A    between atoms: C12_21  and  C2_11 
REMARK    6  A    between atoms: C11_20  and  C6_15 
REMARK    7  A    between atoms: C14_23  and  C8_17 
REMARK    8  A    between atoms: C21_30  and  C25_34 
ROOT
HETATM    1  O1  UNK     1      30.421  -5.366  31.994  1.00  0.00    -0.292 OA
HETATM    2  N1  UNK     1      28.100  -9.205  33.515  1.00  0.00    -0.362 N 
HETATM    3  C1  UNK     1      28.132  -7.522  30.151  1.00  0.00     0.008 C 
HETATM    4  C2  UNK     1      29.422  -6.704  30.284  1.00  0.00     0.164 C 
HETATM    5  C3  UNK     1      28.134  -8.721  31.110  1.00  0.00     0.063 C 
HETATM    6  C4  UNK     1      29.306  -7.291  32.813  1.00  0.00     0.025 C 
HETATM    7  C5  UNK     1      28.555  -8.371  32.512  1.00  0.00     0.020 C 
HETATM    8  C6  UNK     1      29.711  -6.991  34.254  1.00  0.00     0.104 C 
HETATM    9  C7  UNK     1      29.753  -6.365  31.727  1.00  0.00     0.172 C 
HETATM   10  C8  UNK     1      29.021  -7.908  35.267  1.00  0.00     0.052 C 
HETATM   11  C9  UNK     1      26.895  -6.639  30.371  1.00  0.00     0.011 C 
HETATM   12  C10 UNK     1      28.274  -8.963  34.869  1.00  0.00     0.018 C 
HETATM   13  C13 UNK     1      27.550  -9.923  35.774  1.00  0.00     0.069 C 
HETATM   14  H9  UNK     1      27.532 -10.000  33.247  1.00  0.00     0.165 HD
ENDROOT
BRANCH   8  15
HETATM   15  C11 UNK     1      31.205  -7.082  34.410  1.00  0.00     0.029 A 
HETATM   16  C15 UNK     1      31.905  -6.018  35.172  1.00  0.00     0.194 A 
HETATM   17  O7  UNK     1      31.306  -5.075  35.674  1.00  0.00    -0.287 OA
HETATM   18  C17 UNK     1      33.369  -6.154  35.293  1.00  0.00     0.048 A 
HETATM   19  C18 UNK     1      33.999  -7.249  34.700  1.00  0.00     0.089 A 
HETATM   20  C19 UNK     1      34.118  -5.203  35.990  1.00  0.00     0.018 A 
HETATM   21  O4  UNK     1      33.313  -8.212  34.004  1.00  0.00    -0.321 OA
HETATM   22  C22 UNK     1      35.382  -7.398  34.801  1.00  0.00     0.038 A 
HETATM   23  C16 UNK     1      31.950  -8.071  33.900  1.00  0.00     0.154 A 
HETATM   24  C24 UNK     1      36.133  -6.450  35.497  1.00  0.00     0.003 A 
HETATM   25  C23 UNK     1      35.501  -5.355  36.090  1.00  0.00     0.001 A 
ENDBRANCH   8  15
BRANCH  10  26
HETATM   26  C14 UNK     1      29.212  -7.573  36.689  1.00  0.00     0.292 C 
HETATM   27  O6  UNK     1      30.021  -8.135  37.404  1.00  0.00    -0.259 OA
BRANCH  26  28
HETATM   28  O5  UNK     1      28.355  -6.575  37.012  1.00  0.00    -0.316 OA
BRANCH  28  29
HETATM   29  C21 UNK     1      27.593  -6.792  38.204  1.00  0.00     0.205 C 
BRANCH  29  30
HETATM   30  C25 UNK     1      28.222  -6.010  39.341  1.00  0.00     0.193 C 
BRANCH  30  31
HETATM   31  O8  UNK     1      28.293  -4.636  38.977  1.00  0.00    -0.394 OA
HETATM   32  C26 UNK     1      29.592  -4.106  39.197  1.00  0.00     0.201 C 
ENDBRANCH  30  31
ENDBRANCH  29  30
ENDBRANCH  28  29
ENDBRANCH  26  28
ENDBRANCH  10  26
BRANCH   4  33
HETATM   33  C12 UNK     1      30.557  -7.410  29.603  1.00  0.00     0.270 C 
HETATM   34  O3  UNK     1      31.700  -7.443  30.035  1.00  0.00    -0.264 OA
BRANCH  33  35
HETATM   35  O2  UNK     1      30.107  -7.992  28.455  1.00  0.00    -0.326 OA
HETATM   36  C20 UNK     1      30.728  -9.234  28.112  1.00  0.00     0.213 C 
ENDBRANCH  33  35
ENDBRANCH   4  33
TORSDOF 8
ENDMDL
MODEL 10
REMARK VINA RESULT:      -7.3      2.945      5.968
REMARK  8 active torsions:
REMARK  status: ('A' for Active; 'I' for Inactive)
REMARK    1  A    between atoms: C12_21  and  O2_2 
REMARK    2  A    between atoms: C14_23  and  O5_5 
REMARK    3  A    between atoms: C21_30  and  O5_5 
REMARK    4  A    between atoms: C25_34  and  O8_8 
REMARK    5  A    between atoms: C12_21  and  C2_11 
REMARK    6  A    between atoms: C11_20  and  C6_15 
REMARK    7  A    between atoms: C14_23  and  C8_17 
REMARK    8  A    between atoms: C21_30  and  C25_34 
ROOT
HETATM    1  O1  UNK     1      33.000 -10.259  31.379  1.00  0.00    -0.292 OA
HETATM    2  N1  UNK     1      34.755  -7.917  35.103  1.00  0.00    -0.362 N 
HETATM    3  C1  UNK     1      36.486  -9.611  32.225  1.00  0.00     0.008 C 
HETATM    4  C2  UNK     1      35.318  -9.694  31.235  1.00  0.00     0.164 C 
HETATM    5  C3  UNK     1      36.262  -8.495  33.255  1.00  0.00     0.063 C 
HETATM    6  C4  UNK     1      33.812  -9.057  33.255  1.00  0.00     0.025 C 
HETATM    7  C5  UNK     1      34.882  -8.497  33.856  1.00  0.00     0.020 C 
HETATM    8  C6  UNK     1      32.432  -9.021  33.909  1.00  0.00     0.104 C 
HETATM    9  C7  UNK     1      33.966  -9.727  31.927  1.00  0.00     0.172 C 
HETATM   10  C8  UNK     1      32.469  -8.481  35.341  1.00  0.00     0.052 C 
HETATM   11  C9  UNK     1      36.718 -10.963  32.916  1.00  0.00     0.011 C 
HETATM   12  C10 UNK     1      33.597  -7.947  35.864  1.00  0.00     0.018 C 
HETATM   13  C13 UNK     1      33.747  -7.394  37.256  1.00  0.00     0.069 C 
HETATM   14  H9  UNK     1      35.585  -7.516  35.525  1.00  0.00     0.165 HD
ENDROOT
BRANCH   8  15
HETATM   15  C11 UNK     1      31.477  -8.209  33.076  1.00  0.00     0.029 A 
HETATM   16  C15 UNK     1      30.208  -8.842  32.633  1.00  0.00     0.194 A 
HETATM   17  O7  UNK     1      29.920  -9.996  32.924  1.00  0.00    -0.287 OA
HETATM   18  C17 UNK     1      29.309  -8.004  31.818  1.00  0.00     0.048 A 
HETATM   19  C18 UNK     1      29.690  -6.696  31.516  1.00  0.00     0.089 A 
HETATM   20  C19 UNK     1      28.093  -8.509  31.352  1.00  0.00     0.018 A 
HETATM   21  O4  UNK     1      30.873  -6.150  31.946  1.00  0.00    -0.321 OA
HETATM   22  C22 UNK     1      28.856  -5.886  30.746  1.00  0.00     0.038 A 
HETATM   23  C16 UNK     1      31.700  -6.942  32.705  1.00  0.00     0.154 A 
HETATM   24  C24 UNK     1      27.640  -6.387  30.280  1.00  0.00     0.003 A 
HETATM   25  C23 UNK     1      27.260  -7.695  30.582  1.00  0.00     0.001 A 
ENDBRANCH   8  15
BRANCH  10  26
HETATM   26  C14 UNK     1      31.217  -8.579  36.109  1.00  0.00     0.292 C 
HETATM   27  O6  UNK     1      30.872  -9.587  36.698  1.00  0.00    -0.259 OA
BRANCH  26  28
HETATM   28  O5  UNK     1      30.573  -7.389  36.030  1.00  0.00    -0.316 OA
BRANCH  28  29
HETATM   29  C21 UNK     1      30.110  -6.867  37.280  1.00  0.00     0.205 C 
BRANCH  29  30
HETATM   30  C25 UNK     1      30.127  -5.352  37.218  1.00  0.00     0.193 C 
BRANCH  30  31
HETATM   31  O8  UNK     1      31.061  -4.937  36.228  1.00  0.00    -0.394 OA
HETATM   32  C26 UNK     1      32.060  -4.091  36.778  1.00  0.00     0.201 C 
ENDBRANCH  30  31
ENDBRANCH  29  30
ENDBRANCH  28  29
ENDBRANCH  26  28
ENDBRANCH  10  26
BRANCH   4  33
HETATM   33  C12 UNK     1      35.405  -8.579  30.236  1.00  0.00     0.270 C 
HETATM   34  O3  UNK     1      36.224  -8.536  29.328  1.00  0.00    -0.264 OA
BRANCH  33  35
HETATM   35  O2  UNK     1      34.443  -7.651  30.504  1.00  0.00    -0.326 OA
HETATM   36  C20 UNK     1      33.788  -7.096  29.359  1.00  0.00     0.213 C 
ENDBRANCH  33  35
ENDBRANCH   4  33
TORSDOF 8
ENDMDL
