MODEL 1
REMARK VINA RESULT:      -9.2      0.000      0.000
REMARK  4 active torsions:
REMARK  status: ('A' for Active; 'I' for Inactive)
REMARK    1  A    between atoms: C18_25  and  O3_3 
REMARK    2  A    between atoms: C21_28  and  O5_5 
REMARK    3  A    between atoms: C1_8  and  C8_15 
REMARK    4  A    between atoms: C6_13  and  C9_16 
ROOT
HETATM    1  O1  UNK     1      28.427  -7.424  39.807  1.00  0.00    -0.293 OA
HETATM    2  N1  UNK     1      28.337  -9.297  35.367  1.00  0.00    -0.357 N 
HETATM    3  N2  UNK     1      30.571  -9.743  37.327  1.00  0.00    -0.375 N 
HETATM    4  C1  UNK     1      25.658  -8.682  37.885  1.00  0.00     0.031 C 
HETATM    5  C2  UNK     1      26.306  -8.662  36.497  1.00  0.00     0.067 C 
HETATM    6  C3  UNK     1      28.525  -8.412  37.634  1.00  0.00     0.037 C 
HETATM    7  C4  UNK     1      26.308  -7.615  38.754  1.00  0.00     0.093 C 
HETATM    8  C5  UNK     1      27.821  -8.792  36.545  1.00  0.00     0.022 C 
HETATM    9  C6  UNK     1      30.028  -8.459  37.737  1.00  0.00     0.160 C 
HETATM   10  C7  UNK     1      27.805  -7.812  38.818  1.00  0.00     0.160 C 
HETATM   11  C10 UNK     1      29.542  -9.973  35.090  1.00  0.00     0.059 A 
HETATM   12  C11 UNK     1      30.553 -10.237  36.031  1.00  0.00     0.055 A 
HETATM   13  C16 UNK     1      29.699 -10.465  33.773  1.00  0.00     0.032 A 
HETATM   14  C17 UNK     1      31.657 -11.023  35.629  1.00  0.00     0.031 A 
HETATM   15  C22 UNK     1      30.806 -11.221  33.395  1.00  0.00     0.002 A 
HETATM   16  C23 UNK     1      31.786 -11.511  34.330  1.00  0.00     0.002 A 
HETATM   17  H7  UNK     1      27.688  -9.274  34.586  1.00  0.00     0.166 HD
HETATM   18  H8  UNK     1      31.260 -10.152  37.952  1.00  0.00     0.160 HD
ENDROOT
BRANCH   9  19
HETATM   19  C9  UNK     1      30.701  -7.334  37.005  1.00  0.00     0.042 A 
HETATM   20  C14 UNK     1      32.181  -7.229  37.073  1.00  0.00     0.195 A 
HETATM   21  O4  UNK     1      32.862  -8.027  37.703  1.00  0.00    -0.287 OA
HETATM   22  C20 UNK     1      32.791  -6.105  36.339  1.00  0.00     0.048 A 
HETATM   23  C24 UNK     1      31.964  -5.225  35.638  1.00  0.00     0.089 A 
HETATM   24  C25 UNK     1      34.175  -5.919  36.342  1.00  0.00     0.018 A 
HETATM   25  O2  UNK     1      30.600  -5.359  35.601  1.00  0.00    -0.321 OA
HETATM   26  C26 UNK     1      32.520  -4.155  34.937  1.00  0.00     0.038 A 
HETATM   27  C15 UNK     1      30.046  -6.410  36.290  1.00  0.00     0.156 A 
HETATM   28  C28 UNK     1      33.903  -3.967  34.937  1.00  0.00     0.003 A 
HETATM   29  C27 UNK     1      34.728  -4.848  35.638  1.00  0.00     0.001 A 
ENDBRANCH   9  19
BRANCH   4  30
HETATM   30  C8  UNK     1      24.151  -8.528  37.817  1.00  0.00    -0.050 A 
HETATM   31  C12 UNK     1      23.441  -9.107  36.768  1.00  0.00     0.047 A 
HETATM   32  C18 UNK     1      22.054  -8.965  36.705  1.00  0.00     0.102 A 
HETATM   33  C21 UNK     1      21.382  -8.245  37.692  1.00  0.00     0.101 A 
HETATM   34  C19 UNK     1      22.095  -7.666  38.742  1.00  0.00     0.040 A 
HETATM   35  C13 UNK     1      23.482  -7.808  38.804  1.00  0.00     0.010 A 
BRANCH  32  36
HETATM   36  O3  UNK     1      21.369  -9.535  35.676  1.00  0.00    -0.353 OA
HETATM   37  C29 UNK     1      21.918 -10.724  35.109  1.00  0.00     0.210 C 
ENDBRANCH  32  36
BRANCH  33  38
HETATM   38  O5  UNK     1      20.029  -8.100  37.643  1.00  0.00    -0.353 OA
HETATM   39  C30 UNK     1      19.253  -8.968  38.468  1.00  0.00     0.210 C 
ENDBRANCH  33  38
ENDBRANCH   4  30
TORSDOF 4
ENDMDL
MODEL 2
REMARK VINA RESULT:      -9.0     33.782     35.564
REMARK  4 active torsions:
REMARK  status: ('A' for Active; 'I' for Inactive)
REMARK    1  A    between atoms: C18_25  and  O3_3 
REMARK    2  A    between atoms: C21_28  and  O5_5 
REMARK    3  A    between atoms: C1_8  and  C8_15 
REMARK    4  A    between atoms: C6_13  and  C9_16 
ROOT
HETATM    1  O1  UNK     1      17.625   8.095  10.141  1.00  0.00    -0.293 OA
HETATM    2  N1  UNK     1      15.040  11.607   8.087  1.00  0.00    -0.357 N 
HETATM    3  N2  UNK     1      18.025  11.360   7.837  1.00  0.00    -0.375 N 
HETATM    4  C1  UNK     1      14.346   7.991   8.664  1.00  0.00     0.031 C 
HETATM    5  C2  UNK     1      14.040   9.491   8.661  1.00  0.00     0.067 C 
HETATM    6  C3  UNK     1      16.479   9.898   9.072  1.00  0.00     0.037 C 
HETATM    7  C4  UNK     1      15.313   7.681   9.797  1.00  0.00     0.093 C 
HETATM    8  C5  UNK     1      15.292  10.354   8.612  1.00  0.00     0.022 C 
HETATM    9  C6  UNK     1      17.749  10.710   9.107  1.00  0.00     0.160 C 
HETATM   10  C7  UNK     1      16.565   8.519   9.681  1.00  0.00     0.160 C 
HETATM   11  C10 UNK     1      15.887  12.545   7.464  1.00  0.00     0.059 A 
HETATM   12  C11 UNK     1      17.273  12.390   7.291  1.00  0.00     0.055 A 
HETATM   13  C16 UNK     1      15.264  13.696   6.928  1.00  0.00     0.032 A 
HETATM   14  C17 UNK     1      17.972  13.368   6.547  1.00  0.00     0.031 A 
HETATM   15  C22 UNK     1      15.977  14.657   6.215  1.00  0.00     0.002 A 
HETATM   16  C23 UNK     1      17.336  14.488   6.014  1.00  0.00     0.002 A 
HETATM   17  H7  UNK     1      14.054  11.849   8.044  1.00  0.00     0.166 HD
HETATM   18  H8  UNK     1      18.975  11.267   7.490  1.00  0.00     0.160 HD
ENDROOT
BRANCH   9  19
HETATM   19  C9  UNK     1      17.780  11.701  10.234  1.00  0.00     0.042 A 
HETATM   20  C14 UNK     1      19.082  12.314  10.603  1.00  0.00     0.195 A 
HETATM   21  O4  UNK     1      20.120  12.037  10.018  1.00  0.00    -0.287 OA
HETATM   22  C20 UNK     1      19.057  13.278  11.718  1.00  0.00     0.048 A 
HETATM   23  C24 UNK     1      17.842  13.554  12.349  1.00  0.00     0.089 A 
HETATM   24  C25 UNK     1      20.229  13.908  12.142  1.00  0.00     0.018 A 
HETATM   25  O2  UNK     1      16.662  12.964  11.976  1.00  0.00    -0.321 OA
HETATM   26  C26 UNK     1      17.796  14.463  13.406  1.00  0.00     0.038 A 
HETATM   27  C15 UNK     1      16.700  12.068  10.936  1.00  0.00     0.156 A 
HETATM   28  C28 UNK     1      18.966  15.095  13.831  1.00  0.00     0.003 A 
HETATM   29  C27 UNK     1      20.179  14.818  13.199  1.00  0.00     0.001 A 
ENDBRANCH   9  19
BRANCH   4  30
HETATM   30  C8  UNK     1      13.087   7.148   8.737  1.00  0.00    -0.050 A 
HETATM   31  C12 UNK     1      12.028   7.406   7.869  1.00  0.00     0.047 A 
HETATM   32  C18 UNK     1      10.870   6.632   7.936  1.00  0.00     0.102 A 
HETATM   33  C21 UNK     1      10.773   5.602   8.871  1.00  0.00     0.101 A 
HETATM   34  C19 UNK     1      11.834   5.346   9.739  1.00  0.00     0.040 A 
HETATM   35  C13 UNK     1      12.993   6.120   9.671  1.00  0.00     0.010 A 
BRANCH  32  36
HETATM   36  O3  UNK     1       9.841   6.891   7.083  1.00  0.00    -0.353 OA
HETATM   37  C29 UNK     1       9.892   6.273   5.798  1.00  0.00     0.210 C 
ENDBRANCH  32  36
BRANCH  33  38
HETATM   38  O5  UNK     1       9.648   4.838   8.945  1.00  0.00    -0.353 OA
HETATM   39  C30 UNK     1       9.360   4.228  10.202  1.00  0.00     0.210 C 
ENDBRANCH  33  38
ENDBRANCH   4  30
TORSDOF 4
ENDMDL
MODEL 3
REMARK VINA RESULT:      -8.9     33.587     35.392
REMARK  4 active torsions:
REMARK  status: ('A' for Active; 'I' for Inactive)
REMARK    1  A    between atoms: C18_25  and  O3_3 
REMARK    2  A    between atoms: C21_28  and  O5_5 
REMARK    3  A    between atoms: C1_8  and  C8_15 
REMARK    4  A    between atoms: C6_13  and  C9_16 
ROOT
HETATM    1  O1  UNK     1      17.634   7.949  10.098  1.00  0.00    -0.293 OA
HETATM    2  N1  UNK     1      15.146  11.567   8.111  1.00  0.00    -0.357 N 
HETATM    3  N2  UNK     1      18.117  11.219   7.818  1.00  0.00    -0.375 N 
HETATM    4  C1  UNK     1      14.334   7.972   8.665  1.00  0.00     0.031 C 
HETATM    5  C2  UNK     1      14.081   9.482   8.680  1.00  0.00     0.067 C 
HETATM    6  C3  UNK     1      16.537   9.800   9.061  1.00  0.00     0.037 C 
HETATM    7  C4  UNK     1      15.305   7.618   9.783  1.00  0.00     0.093 C 
HETATM    8  C5  UNK     1      15.361  10.302   8.622  1.00  0.00     0.022 C 
HETATM    9  C6  UNK     1      17.835  10.568   9.086  1.00  0.00     0.160 C 
HETATM   10  C7  UNK     1      16.583   8.414   9.657  1.00  0.00     0.160 C 
HETATM   11  C10 UNK     1      16.017  12.481   7.485  1.00  0.00     0.059 A 
HETATM   12  C11 UNK     1      17.394  12.280   7.291  1.00  0.00     0.055 A 
HETATM   13  C16 UNK     1      15.427  13.659   6.967  1.00  0.00     0.032 A 
HETATM   14  C17 UNK     1      18.117  13.240   6.547  1.00  0.00     0.031 A 
HETATM   15  C22 UNK     1      16.163  14.601   6.253  1.00  0.00     0.002 A 
HETATM   16  C23 UNK     1      17.513  14.386   6.033  1.00  0.00     0.002 A 
HETATM   17  H7  UNK     1      14.168  11.844   8.084  1.00  0.00     0.166 HD
HETATM   18  H8  UNK     1      19.058  11.097   7.457  1.00  0.00     0.160 HD
ENDROOT
BRANCH   9  19
HETATM   19  C9  UNK     1      17.916  11.546  10.221  1.00  0.00     0.042 A 
HETATM   20  C14 UNK     1      19.256  12.010  10.663  1.00  0.00     0.195 A 
HETATM   21  O4  UNK     1      20.287  11.621  10.131  1.00  0.00    -0.287 OA
HETATM   22  C20 UNK     1      19.279  12.968  11.783  1.00  0.00     0.048 A 
HETATM   23  C24 UNK     1      18.071  13.376  12.352  1.00  0.00     0.089 A 
HETATM   24  C25 UNK     1      20.489  13.464  12.272  1.00  0.00     0.018 A 
HETATM   25  O2  UNK     1      16.853  12.922  11.912  1.00  0.00    -0.321 OA
HETATM   26  C26 UNK     1      18.069  14.282  13.412  1.00  0.00     0.038 A 
HETATM   27  C15 UNK     1      16.847  12.029  10.869  1.00  0.00     0.156 A 
HETATM   28  C28 UNK     1      19.278  14.779  13.903  1.00  0.00     0.003 A 
HETATM   29  C27 UNK     1      20.485  14.371  13.333  1.00  0.00     0.001 A 
ENDBRANCH   9  19
BRANCH   4  30
HETATM   30  C8  UNK     1      13.047   7.174   8.748  1.00  0.00    -0.050 A 
HETATM   31  C12 UNK     1      11.841   7.825   8.998  1.00  0.00     0.047 A 
HETATM   32  C18 UNK     1      10.657   7.091   9.075  1.00  0.00     0.102 A 
HETATM   33  C21 UNK     1      10.682   5.708   8.901  1.00  0.00     0.101 A 
HETATM   34  C19 UNK     1      11.891   5.058   8.651  1.00  0.00     0.040 A 
HETATM   35  C13 UNK     1      13.075   5.792   8.575  1.00  0.00     0.010 A 
BRANCH  32  36
HETATM   36  O3  UNK     1       9.484   7.737   9.318  1.00  0.00    -0.353 OA
HETATM   37  C29 UNK     1       9.568   9.083   9.782  1.00  0.00     0.210 C 
ENDBRANCH  32  36
BRANCH  33  38
HETATM   38  O5  UNK     1       9.533   4.980   8.972  1.00  0.00    -0.353 OA
HETATM   39  C30 UNK     1       9.293   4.263  10.182  1.00  0.00     0.210 C 
ENDBRANCH  33  38
ENDBRANCH   4  30
TORSDOF 4
ENDMDL
MODEL 4
REMARK VINA RESULT:      -8.8      4.563      8.545
REMARK  4 active torsions:
REMARK  status: ('A' for Active; 'I' for Inactive)
REMARK    1  A    between atoms: C18_25  and  O3_3 
REMARK    2  A    between atoms: C21_28  and  O5_5 
REMARK    3  A    between atoms: C1_8  and  C8_15 
REMARK    4  A    between atoms: C6_13  and  C9_16 
ROOT
HETATM    1  O1  UNK     1      33.597 -10.436  33.692  1.00  0.00    -0.293 OA
HETATM    2  N1  UNK     1      29.157  -9.940  31.882  1.00  0.00    -0.357 N 
HETATM    3  N2  UNK     1      31.211  -7.746  31.902  1.00  0.00    -0.375 N 
HETATM    4  C1  UNK     1      31.557 -12.791  31.892  1.00  0.00     0.031 C 
HETATM    5  C2  UNK     1      30.199 -12.105  32.061  1.00  0.00     0.067 C 
HETATM    6  C3  UNK     1      31.430 -10.039  32.766  1.00  0.00     0.037 C 
HETATM    7  C4  UNK     1      32.453 -12.419  33.065  1.00  0.00     0.093 C 
HETATM    8  C5  UNK     1      30.311 -10.600  32.255  1.00  0.00     0.022 C 
HETATM    9  C6  UNK     1      31.597  -8.565  33.038  1.00  0.00     0.160 C 
HETATM   10  C7  UNK     1      32.582 -10.919  33.189  1.00  0.00     0.160 C 
HETATM   11  C10 UNK     1      28.932  -8.608  31.479  1.00  0.00     0.059 A 
HETATM   12  C11 UNK     1      29.915  -7.605  31.427  1.00  0.00     0.055 A 
HETATM   13  C16 UNK     1      27.623  -8.295  31.044  1.00  0.00     0.032 A 
HETATM   14  C17 UNK     1      29.562  -6.343  30.897  1.00  0.00     0.031 A 
HETATM   15  C22 UNK     1      27.293  -7.038  30.543  1.00  0.00     0.002 A 
HETATM   16  C23 UNK     1      28.269  -6.059  30.459  1.00  0.00     0.002 A 
HETATM   17  H7  UNK     1      28.348 -10.546  31.774  1.00  0.00     0.166 HD
HETATM   18  H8  UNK     1      31.865  -7.013  31.642  1.00  0.00     0.160 HD
ENDROOT
BRANCH   9  19
HETATM   19  C9  UNK     1      30.895  -8.116  34.286  1.00  0.00     0.042 A 
HETATM   20  C14 UNK     1      31.115  -6.727  34.763  1.00  0.00     0.195 A 
HETATM   21  O4  UNK     1      31.847  -5.945  34.171  1.00  0.00    -0.287 OA
HETATM   22  C20 UNK     1      30.404  -6.338  35.995  1.00  0.00     0.048 A 
HETATM   23  C24 UNK     1      29.583  -7.274  36.628  1.00  0.00     0.089 A 
HETATM   24  C25 UNK     1      30.545  -5.054  36.525  1.00  0.00     0.018 A 
HETATM   25  O2  UNK     1      29.408  -8.549  36.152  1.00  0.00    -0.321 OA
HETATM   26  C26 UNK     1      28.901  -6.927  37.794  1.00  0.00     0.038 A 
HETATM   27  C15 UNK     1      30.077  -8.897  35.005  1.00  0.00     0.156 A 
HETATM   28  C28 UNK     1      29.041  -5.644  38.325  1.00  0.00     0.003 A 
HETATM   29  C27 UNK     1      29.861  -4.710  37.691  1.00  0.00     0.001 A 
ENDBRANCH   9  19
BRANCH   4  30
HETATM   30  C8  UNK     1      31.425 -14.293  31.724  1.00  0.00    -0.050 A 
HETATM   31  C12 UNK     1      31.273 -15.105  32.844  1.00  0.00     0.047 A 
HETATM   32  C18 UNK     1      31.151 -16.487  32.691  1.00  0.00     0.102 A 
HETATM   33  C21 UNK     1      31.181 -17.051  31.416  1.00  0.00     0.101 A 
HETATM   34  C19 UNK     1      31.333 -16.235  30.294  1.00  0.00     0.040 A 
HETATM   35  C13 UNK     1      31.454 -14.853  30.449  1.00  0.00     0.010 A 
BRANCH  32  36
HETATM   36  O3  UNK     1      31.003 -17.273  33.792  1.00  0.00    -0.353 OA
HETATM   37  C29 UNK     1      29.682 -17.421  34.310  1.00  0.00     0.210 C 
ENDBRANCH  32  36
BRANCH  33  38
HETATM   38  O5  UNK     1      31.062 -18.398  31.252  1.00  0.00    -0.353 OA
HETATM   39  C30 UNK     1      29.874 -18.871  30.619  1.00  0.00     0.210 C 
ENDBRANCH  33  38
ENDBRANCH   4  30
TORSDOF 4
ENDMDL
MODEL 5
REMARK VINA RESULT:      -8.8      4.509     10.456
REMARK  4 active torsions:
REMARK  status: ('A' for Active; 'I' for Inactive)
REMARK    1  A    between atoms: C18_25  and  O3_3 
REMARK    2  A    between atoms: C21_28  and  O5_5 
REMARK    3  A    between atoms: C1_8  and  C8_15 
REMARK    4  A    between atoms: C6_13  and  C9_16 
ROOT
HETATM    1  O1  UNK     1      34.364  -6.381  35.686  1.00  0.00    -0.293 OA
HETATM    2  N1  UNK     1      31.247  -8.494  32.678  1.00  0.00    -0.357 N 
HETATM    3  N2  UNK     1      30.783  -5.815  33.958  1.00  0.00    -0.375 N 
HETATM    4  C1  UNK     1      34.971  -8.382  32.758  1.00  0.00     0.031 C 
HETATM    5  C2  UNK     1      33.594  -9.038  32.631  1.00  0.00     0.067 C 
HETATM    6  C3  UNK     1      32.721  -7.308  34.220  1.00  0.00     0.037 C 
HETATM    7  C4  UNK     1      35.225  -8.036  34.218  1.00  0.00     0.093 C 
HETATM    8  C5  UNK     1      32.476  -8.200  33.235  1.00  0.00     0.022 C 
HETATM    9  C6  UNK     1      31.662  -6.482  34.904  1.00  0.00     0.160 C 
HETATM   10  C7  UNK     1      34.122  -7.160  34.763  1.00  0.00     0.160 C 
HETATM   11  C10 UNK     1      30.061  -7.739  32.583  1.00  0.00     0.059 A 
HETATM   12  C11 UNK     1      29.876  -6.456  33.128  1.00  0.00     0.055 A 
HETATM   13  C16 UNK     1      29.010  -8.311  31.828  1.00  0.00     0.032 A 
HETATM   14  C17 UNK     1      28.666  -5.778  32.855  1.00  0.00     0.031 A 
HETATM   15  C22 UNK     1      27.818  -7.630  31.589  1.00  0.00     0.002 A 
HETATM   16  C23 UNK     1      27.648  -6.353  32.097  1.00  0.00     0.002 A 
HETATM   17  H7  UNK     1      31.226  -9.362  32.150  1.00  0.00     0.166 HD
HETATM   18  H8  UNK     1      30.609  -4.830  34.134  1.00  0.00     0.160 HD
ENDROOT
BRANCH   9  19
HETATM   19  C9  UNK     1      30.870  -7.262  35.913  1.00  0.00     0.042 A 
HETATM   20  C14 UNK     1      29.937  -6.527  36.805  1.00  0.00     0.195 A 
HETATM   21  O4  UNK     1      29.796  -5.313  36.740  1.00  0.00    -0.287 OA
HETATM   22  C20 UNK     1      29.187  -7.341  37.778  1.00  0.00     0.048 A 
HETATM   23  C24 UNK     1      29.389  -8.722  37.807  1.00  0.00     0.089 A 
HETATM   24  C25 UNK     1      28.285  -6.744  38.662  1.00  0.00     0.018 A 
HETATM   25  O2  UNK     1      30.263  -9.361  36.964  1.00  0.00    -0.321 OA
HETATM   26  C26 UNK     1      28.690  -9.511  38.721  1.00  0.00     0.038 A 
HETATM   27  C15 UNK     1      30.955  -8.591  36.063  1.00  0.00     0.156 A 
HETATM   28  C28 UNK     1      27.788  -8.916  39.604  1.00  0.00     0.003 A 
HETATM   29  C27 UNK     1      27.586  -7.536  39.574  1.00  0.00     0.001 A 
ENDBRANCH   9  19
BRANCH   4  30
HETATM   30  C8  UNK     1      36.073  -9.244  32.172  1.00  0.00    -0.050 A 
HETATM   31  C12 UNK     1      36.962  -9.904  33.018  1.00  0.00     0.047 A 
HETATM   32  C18 UNK     1      37.976 -10.696  32.479  1.00  0.00     0.102 A 
HETATM   33  C21 UNK     1      38.099 -10.827  31.096  1.00  0.00     0.101 A 
HETATM   34  C19 UNK     1      37.207 -10.165  30.251  1.00  0.00     0.040 A 
HETATM   35  C13 UNK     1      36.193  -9.373  30.791  1.00  0.00     0.010 A 
BRANCH  32  36
HETATM   36  O3  UNK     1      38.839 -11.338  33.314  1.00  0.00    -0.353 OA
HETATM   37  C29 UNK     1      38.286 -12.317  34.192  1.00  0.00     0.210 C 
ENDBRANCH  32  36
BRANCH  33  38
HETATM   38  O5  UNK     1      39.083 -11.598  30.558  1.00  0.00    -0.353 OA
HETATM   39  C30 UNK     1      39.675 -11.142  29.343  1.00  0.00     0.210 C 
ENDBRANCH  33  38
ENDBRANCH   4  30
TORSDOF 4
ENDMDL
MODEL 6
REMARK VINA RESULT:      -8.5     24.114     26.683
REMARK  4 active torsions:
REMARK  status: ('A' for Active; 'I' for Inactive)
REMARK    1  A    between atoms: C18_25  and  O3_3 
REMARK    2  A    between atoms: C21_28  and  O5_5 
REMARK    3  A    between atoms: C1_8  and  C8_15 
REMARK    4  A    between atoms: C6_13  and  C9_16 
ROOT
HETATM    1  O1  UNK     1      20.017  -1.446  12.209  1.00  0.00    -0.293 OA
HETATM    2  N1  UNK     1      18.295  -5.837  13.204  1.00  0.00    -0.357 N 
HETATM    3  N2  UNK     1      17.902  -3.443  14.978  1.00  0.00    -0.375 N 
HETATM    4  C1  UNK     1      18.679  -3.958  10.008  1.00  0.00     0.031 C 
HETATM    5  C2  UNK     1      18.781  -5.168  10.941  1.00  0.00     0.067 C 
HETATM    6  C3  UNK     1      19.110  -3.565  12.838  1.00  0.00     0.037 C 
HETATM    7  C4  UNK     1      19.749  -2.945  10.387  1.00  0.00     0.093 C 
HETATM    8  C5  UNK     1      18.731  -4.791  12.414  1.00  0.00     0.022 C 
HETATM    9  C6  UNK     1      19.140  -3.135  14.283  1.00  0.00     0.160 C 
HETATM   10  C7  UNK     1      19.631  -2.556  11.843  1.00  0.00     0.160 C 
HETATM   11  C10 UNK     1      17.694  -5.856  14.479  1.00  0.00     0.059 A 
HETATM   12  C11 UNK     1      17.452  -4.721  15.273  1.00  0.00     0.055 A 
HETATM   13  C16 UNK     1      17.257  -7.116  14.949  1.00  0.00     0.032 A 
HETATM   14  C17 UNK     1      16.740  -4.887  16.483  1.00  0.00     0.031 A 
HETATM   15  C22 UNK     1      16.573  -7.257  16.155  1.00  0.00     0.002 A 
HETATM   16  C23 UNK     1      16.305  -6.136  16.922  1.00  0.00     0.002 A 
HETATM   17  H7  UNK     1      18.310  -6.741  12.741  1.00  0.00     0.166 HD
HETATM   18  H8  UNK     1      17.509  -2.691  15.537  1.00  0.00     0.160 HD
ENDROOT
BRANCH   9  19
HETATM   19  C9  UNK     1      20.323  -3.676  15.032  1.00  0.00     0.042 A 
HETATM   20  C14 UNK     1      20.723  -3.015  16.301  1.00  0.00     0.195 A 
HETATM   21  O4  UNK     1      20.118  -2.050  16.749  1.00  0.00    -0.287 OA
HETATM   22  C20 UNK     1      21.892  -3.584  16.994  1.00  0.00     0.048 A 
HETATM   23  C24 UNK     1      22.543  -4.685  16.434  1.00  0.00     0.089 A 
HETATM   24  C25 UNK     1      22.347  -3.034  18.194  1.00  0.00     0.018 A 
HETATM   25  O2  UNK     1      22.141  -5.266  15.258  1.00  0.00    -0.321 OA
HETATM   26  C26 UNK     1      23.652  -5.240  17.074  1.00  0.00     0.038 A 
HETATM   27  C15 UNK     1      21.050  -4.724  14.623  1.00  0.00     0.156 A 
HETATM   28  C28 UNK     1      24.108  -4.691  18.274  1.00  0.00     0.003 A 
HETATM   29  C27 UNK     1      23.456  -3.591  18.832  1.00  0.00     0.001 A 
ENDBRANCH   9  19
BRANCH   4  30
HETATM   30  C8  UNK     1      18.755  -4.353   8.545  1.00  0.00    -0.050 A 
HETATM   31  C12 UNK     1      17.691  -5.029   7.953  1.00  0.00     0.047 A 
HETATM   32  C18 UNK     1      17.760  -5.393   6.608  1.00  0.00     0.102 A 
HETATM   33  C21 UNK     1      18.894  -5.079   5.859  1.00  0.00     0.101 A 
HETATM   34  C19 UNK     1      19.958  -4.402   6.454  1.00  0.00     0.040 A 
HETATM   35  C13 UNK     1      19.888  -4.038   7.799  1.00  0.00     0.010 A 
BRANCH  32  36
HETATM   36  O3  UNK     1      16.715  -6.053   6.038  1.00  0.00    -0.353 OA
HETATM   37  C29 UNK     1      16.007  -6.980   6.859  1.00  0.00     0.210 C 
ENDBRANCH  32  36
BRANCH  33  38
HETATM   38  O5  UNK     1      18.974  -5.427   4.545  1.00  0.00    -0.353 OA
HETATM   39  C30 UNK     1      20.121  -4.982   3.824  1.00  0.00     0.210 C 
ENDBRANCH  33  38
ENDBRANCH   4  30
TORSDOF 4
ENDMDL
MODEL 7
REMARK VINA RESULT:      -8.3      1.088      1.809
REMARK  4 active torsions:
REMARK  status: ('A' for Active; 'I' for Inactive)
REMARK    1  A    between atoms: C18_25  and  O3_3 
REMARK    2  A    between atoms: C21_28  and  O5_5 
REMARK    3  A    between atoms: C1_8  and  C8_15 
REMARK    4  A    between atoms: C6_13  and  C9_16 
ROOT
HETATM    1  O1  UNK     1      28.717  -8.610  39.058  1.00  0.00    -0.293 OA
HETATM    2  N1  UNK     1      28.901  -9.806  34.392  1.00  0.00    -0.357 N 
HETATM    3  N2  UNK     1      31.140 -10.296  36.335  1.00  0.00    -0.375 N 
HETATM    4  C1  UNK     1      26.133  -9.858  36.887  1.00  0.00     0.031 C 
HETATM    5  C2  UNK     1      26.795  -9.564  35.538  1.00  0.00     0.067 C 
HETATM    6  C3  UNK     1      28.956  -9.250  36.768  1.00  0.00     0.037 C 
HETATM    7  C4  UNK     1      26.648  -8.868  37.922  1.00  0.00     0.093 C 
HETATM    8  C5  UNK     1      28.315  -9.538  35.614  1.00  0.00     0.022 C 
HETATM    9  C6  UNK     1      30.454  -9.152  36.910  1.00  0.00     0.160 C 
HETATM   10  C7  UNK     1      28.156  -8.912  38.004  1.00  0.00     0.160 C 
HETATM   11  C10 UNK     1      30.177 -10.301  34.058  1.00  0.00     0.059 A 
HETATM   12  C11 UNK     1      31.196 -10.592  34.981  1.00  0.00     0.055 A 
HETATM   13  C16 UNK     1      30.408 -10.573  32.689  1.00  0.00     0.032 A 
HETATM   14  C17 UNK     1      32.386 -11.189  34.505  1.00  0.00     0.031 A 
HETATM   15  C22 UNK     1      31.597 -11.144  32.240  1.00  0.00     0.002 A 
HETATM   16  C23 UNK     1      32.587 -11.462  33.153  1.00  0.00     0.002 A 
HETATM   17  H7  UNK     1      28.265  -9.736  33.602  1.00  0.00     0.166 HD
HETATM   18  H8  UNK     1      31.860 -10.718  36.915  1.00  0.00     0.160 HD
ENDROOT
BRANCH   9  19
HETATM   19  C9  UNK     1      31.010  -7.867  36.371  1.00  0.00     0.042 A 
HETATM   20  C14 UNK     1      32.468  -7.616  36.501  1.00  0.00     0.195 A 
HETATM   21  O4  UNK     1      33.223  -8.422  37.029  1.00  0.00    -0.287 OA
HETATM   22  C20 UNK     1      32.962  -6.337  35.957  1.00  0.00     0.048 A 
HETATM   23  C24 UNK     1      32.055  -5.456  35.365  1.00  0.00     0.089 A 
HETATM   24  C25 UNK     1      34.317  -6.007  36.030  1.00  0.00     0.018 A 
HETATM   25  O2  UNK     1      30.714  -5.728  35.266  1.00  0.00    -0.321 OA
HETATM   26  C26 UNK     1      32.501  -4.241  34.844  1.00  0.00     0.038 A 
HETATM   27  C15 UNK     1      30.269  -6.922  35.778  1.00  0.00     0.156 A 
HETATM   28  C28 UNK     1      33.855  -3.910  34.916  1.00  0.00     0.003 A 
HETATM   29  C27 UNK     1      34.760  -4.792  35.507  1.00  0.00     0.001 A 
ENDBRANCH   9  19
BRANCH   4  30
HETATM   30  C8  UNK     1      24.619  -9.856  36.795  1.00  0.00    -0.050 A 
HETATM   31  C12 UNK     1      23.887  -8.846  37.414  1.00  0.00     0.047 A 
HETATM   32  C18 UNK     1      22.495  -8.844  37.330  1.00  0.00     0.102 A 
HETATM   33  C21 UNK     1      21.837  -9.852  36.626  1.00  0.00     0.101 A 
HETATM   34  C19 UNK     1      22.572 -10.863  36.006  1.00  0.00     0.040 A 
HETATM   35  C13 UNK     1      23.965 -10.865  36.091  1.00  0.00     0.010 A 
BRANCH  32  36
HETATM   36  O3  UNK     1      21.788  -7.851  37.938  1.00  0.00    -0.353 OA
HETATM   37  C29 UNK     1      22.122  -7.554  39.293  1.00  0.00     0.210 C 
ENDBRANCH  32  36
BRANCH  33  38
HETATM   38  O5  UNK     1      20.479  -9.861  36.535  1.00  0.00    -0.353 OA
HETATM   39  C30 UNK     1      19.778 -10.776  37.376  1.00  0.00     0.210 C 
ENDBRANCH  33  38
ENDBRANCH   4  30
TORSDOF 4
ENDMDL
MODEL 8
REMARK VINA RESULT:      -8.2      4.576      9.144
REMARK  4 active torsions:
REMARK  status: ('A' for Active; 'I' for Inactive)
REMARK    1  A    between atoms: C18_25  and  O3_3 
REMARK    2  A    between atoms: C21_28  and  O5_5 
REMARK    3  A    between atoms: C1_8  and  C8_15 
REMARK    4  A    between atoms: C6_13  and  C9_16 
ROOT
HETATM    1  O1  UNK     1      32.403 -10.798  35.128  1.00  0.00    -0.293 OA
HETATM    2  N1  UNK     1      28.905 -10.120  31.883  1.00  0.00    -0.357 N 
HETATM    3  N2  UNK     1      30.499  -7.891  33.116  1.00  0.00    -0.375 N 
HETATM    4  C1  UNK     1      31.492 -12.775  32.263  1.00  0.00     0.031 C 
HETATM    5  C2  UNK     1      30.087 -12.214  32.026  1.00  0.00     0.067 C 
HETATM    6  C3  UNK     1      30.691 -10.307  33.536  1.00  0.00     0.037 C 
HETATM    7  C4  UNK     1      31.842 -12.639  33.738  1.00  0.00     0.093 C 
HETATM    8  C5  UNK     1      29.920 -10.790  32.536  1.00  0.00     0.022 C 
HETATM    9  C6  UNK     1      30.550  -8.929  34.131  1.00  0.00     0.160 C 
HETATM   10  C7  UNK     1      31.715 -11.203  34.191  1.00  0.00     0.160 C 
HETATM   11  C10 UNK     1      28.667  -8.744  31.692  1.00  0.00     0.059 A 
HETATM   12  C11 UNK     1      29.459  -7.708  32.217  1.00  0.00     0.055 A 
HETATM   13  C16 UNK     1      27.577  -8.404  30.856  1.00  0.00     0.032 A 
HETATM   14  C17 UNK     1      29.158  -6.378  31.847  1.00  0.00     0.031 A 
HETATM   15  C22 UNK     1      27.289  -7.083  30.520  1.00  0.00     0.002 A 
HETATM   16  C23 UNK     1      28.089  -6.065  31.009  1.00  0.00     0.002 A 
HETATM   17  H7  UNK     1      28.279 -10.724  31.357  1.00  0.00     0.166 HD
HETATM   18  H8  UNK     1      31.098  -7.086  33.276  1.00  0.00     0.160 HD
ENDROOT
BRANCH   9  19
HETATM   19  C9  UNK     1      29.388  -8.814  35.075  1.00  0.00     0.042 A 
HETATM   20  C14 UNK     1      29.305  -7.620  35.955  1.00  0.00     0.195 A 
HETATM   21  O4  UNK     1      30.149  -6.735  35.931  1.00  0.00    -0.287 OA
HETATM   22  C20 UNK     1      28.146  -7.558  36.864  1.00  0.00     0.048 A 
HETATM   23  C24 UNK     1      27.214  -8.598  36.847  1.00  0.00     0.089 A 
HETATM   24  C25 UNK     1      27.977  -6.477  37.731  1.00  0.00     0.018 A 
HETATM   25  O2  UNK     1      27.330  -9.684  36.017  1.00  0.00    -0.321 OA
HETATM   26  C26 UNK     1      26.110  -8.560  37.698  1.00  0.00     0.038 A 
HETATM   27  C15 UNK     1      28.415  -9.729  35.176  1.00  0.00     0.156 A 
HETATM   28  C28 UNK     1      25.939  -7.480  38.566  1.00  0.00     0.003 A 
HETATM   29  C27 UNK     1      26.871  -6.441  38.581  1.00  0.00     0.001 A 
ENDBRANCH   9  19
BRANCH   4  30
HETATM   30  C8  UNK     1      31.631 -14.202  31.769  1.00  0.00    -0.050 A 
HETATM   31  C12 UNK     1      32.253 -14.457  30.549  1.00  0.00     0.047 A 
HETATM   32  C18 UNK     1      32.380 -15.770  30.094  1.00  0.00     0.102 A 
HETATM   33  C21 UNK     1      31.886 -16.825  30.862  1.00  0.00     0.101 A 
HETATM   34  C19 UNK     1      31.264 -16.567  32.084  1.00  0.00     0.040 A 
HETATM   35  C13 UNK     1      31.137 -15.254  32.538  1.00  0.00     0.010 A 
BRANCH  32  36
HETATM   36  O3  UNK     1      32.990 -16.009  28.901  1.00  0.00    -0.353 OA
HETATM   37  C29 UNK     1      34.374 -15.678  28.801  1.00  0.00     0.210 C 
ENDBRANCH  32  36
BRANCH  33  38
HETATM   38  O5  UNK     1      32.006 -18.110  30.430  1.00  0.00    -0.353 OA
HETATM   39  C30 UNK     1      30.812 -18.768  30.010  1.00  0.00     0.210 C 
ENDBRANCH  33  38
ENDBRANCH   4  30
TORSDOF 4
ENDMDL
MODEL 9
REMARK VINA RESULT:      -8.1     23.625     26.361
REMARK  4 active torsions:
REMARK  status: ('A' for Active; 'I' for Inactive)
REMARK    1  A    between atoms: C18_25  and  O3_3 
REMARK    2  A    between atoms: C21_28  and  O5_5 
REMARK    3  A    between atoms: C1_8  and  C8_15 
REMARK    4  A    between atoms: C6_13  and  C9_16 
ROOT
HETATM    1  O1  UNK     1      20.128  -3.058  11.395  1.00  0.00    -0.293 OA
HETATM    2  N1  UNK     1      17.980  -6.626  13.822  1.00  0.00    -0.357 N 
HETATM    3  N2  UNK     1      17.913  -3.745  14.674  1.00  0.00    -0.375 N 
HETATM    4  C1  UNK     1      18.446  -5.997  10.178  1.00  0.00     0.031 C 
HETATM    5  C2  UNK     1      18.452  -6.823  11.467  1.00  0.00     0.067 C 
HETATM    6  C3  UNK     1      19.022  -4.721  12.706  1.00  0.00     0.037 C 
HETATM    7  C4  UNK     1      19.633  -5.044  10.192  1.00  0.00     0.093 C 
HETATM    8  C5  UNK     1      18.497  -5.966  12.724  1.00  0.00     0.022 C 
HETATM    9  C6  UNK     1      19.151  -3.834  13.919  1.00  0.00     0.160 C 
HETATM   10  C7  UNK     1      19.610  -4.175  11.428  1.00  0.00     0.160 C 
HETATM   11  C10 UNK     1      17.429  -6.144  15.026  1.00  0.00     0.059 A 
HETATM   12  C11 UNK     1      17.340  -4.788  15.386  1.00  0.00     0.055 A 
HETATM   13  C16 UNK     1      16.876  -7.112  15.897  1.00  0.00     0.032 A 
HETATM   14  C17 UNK     1      16.660  -4.452  16.579  1.00  0.00     0.031 A 
HETATM   15  C22 UNK     1      16.227  -6.758  17.077  1.00  0.00     0.002 A 
HETATM   16  C23 UNK     1      16.109  -5.421  17.416  1.00  0.00     0.002 A 
HETATM   17  H7  UNK     1      17.881  -7.629  13.695  1.00  0.00     0.166 HD
HETATM   18  H8  UNK     1      17.625  -2.809  14.943  1.00  0.00     0.160 HD
ENDROOT
BRANCH   9  19
HETATM   19  C9  UNK     1      20.296  -4.220  14.809  1.00  0.00     0.042 A 
HETATM   20  C14 UNK     1      20.652  -3.322  15.937  1.00  0.00     0.195 A 
HETATM   21  O4  UNK     1      20.041  -2.285  16.161  1.00  0.00    -0.287 OA
HETATM   22  C20 UNK     1      21.785  -3.747  16.779  1.00  0.00     0.048 A 
HETATM   23  C24 UNK     1      22.444  -4.940  16.476  1.00  0.00     0.089 A 
HETATM   24  C25 UNK     1      22.197  -2.972  17.865  1.00  0.00     0.018 A 
HETATM   25  O2  UNK     1      22.083  -5.741  15.422  1.00  0.00    -0.321 OA
HETATM   26  C26 UNK     1      23.519  -5.362  17.259  1.00  0.00     0.038 A 
HETATM   27  C15 UNK     1      21.026  -5.332  14.647  1.00  0.00     0.156 A 
HETATM   28  C28 UNK     1      23.933  -4.588  18.345  1.00  0.00     0.003 A 
HETATM   29  C27 UNK     1      23.273  -3.396  18.646  1.00  0.00     0.001 A 
ENDBRANCH   9  19
BRANCH   4  30
HETATM   30  C8  UNK     1      18.425  -6.870   8.938  1.00  0.00    -0.050 A 
HETATM   31  C12 UNK     1      17.681  -8.047   8.930  1.00  0.00     0.047 A 
HETATM   32  C18 UNK     1      17.662  -8.851   7.790  1.00  0.00     0.102 A 
HETATM   33  C21 UNK     1      18.386  -8.473   6.659  1.00  0.00     0.101 A 
HETATM   34  C19 UNK     1      19.130  -7.293   6.669  1.00  0.00     0.040 A 
HETATM   35  C13 UNK     1      19.149  -6.490   7.810  1.00  0.00     0.010 A 
BRANCH  32  36
HETATM   36  O3  UNK     1      16.931 -10.000   7.792  1.00  0.00    -0.353 OA
HETATM   37  C29 UNK     1      15.557  -9.895   7.425  1.00  0.00     0.210 C 
ENDBRANCH  32  36
BRANCH  33  38
HETATM   38  O5  UNK     1      18.374  -9.247   5.539  1.00  0.00    -0.353 OA
HETATM   39  C30 UNK     1      19.624  -9.780   5.105  1.00  0.00     0.210 C 
ENDBRANCH  33  38
ENDBRANCH   4  30
TORSDOF 4
ENDMDL
MODEL 10
REMARK VINA RESULT:      -8.1      5.760     11.896
REMARK  4 active torsions:
REMARK  status: ('A' for Active; 'I' for Inactive)
REMARK    1  A    between atoms: C18_25  and  O3_3 
REMARK    2  A    between atoms: C21_28  and  O5_5 
REMARK    3  A    between atoms: C1_8  and  C8_15 
REMARK    4  A    between atoms: C6_13  and  C9_16 
ROOT
HETATM    1  O1  UNK     1      33.111 -11.832  33.341  1.00  0.00    -0.293 OA
HETATM    2  N1  UNK     1      35.042  -7.416  33.418  1.00  0.00    -0.357 N 
HETATM    3  N2  UNK     1      32.812  -8.300  35.229  1.00  0.00    -0.375 N 
HETATM    4  C1  UNK     1      36.521 -10.792  32.861  1.00  0.00     0.031 C 
HETATM    5  C2  UNK     1      36.278  -9.307  32.578  1.00  0.00     0.067 C 
HETATM    6  C3  UNK     1      33.962  -9.605  33.489  1.00  0.00     0.037 C 
HETATM    7  C4  UNK     1      35.294 -11.587  32.441  1.00  0.00     0.093 C 
HETATM    8  C5  UNK     1      34.998  -8.781  33.211  1.00  0.00     0.022 C 
HETATM    9  C6  UNK     1      32.644  -9.152  34.064  1.00  0.00     0.160 C 
HETATM   10  C7  UNK     1      34.054 -11.069  33.132  1.00  0.00     0.160 C 
HETATM   11  C10 UNK     1      34.342  -6.586  34.315  1.00  0.00     0.059 A 
HETATM   12  C11 UNK     1      33.347  -7.020  35.208  1.00  0.00     0.055 A 
HETATM   13  C16 UNK     1      34.727  -5.225  34.344  1.00  0.00     0.032 A 
HETATM   14  C17 UNK     1      32.811  -6.088  36.125  1.00  0.00     0.031 A 
HETATM   15  C22 UNK     1      34.171  -4.319  35.244  1.00  0.00     0.002 A 
HETATM   16  C23 UNK     1      33.215  -4.754  36.147  1.00  0.00     0.002 A 
HETATM   17  H7  UNK     1      35.785  -6.943  32.912  1.00  0.00     0.166 HD
HETATM   18  H8  UNK     1      32.235  -8.531  36.033  1.00  0.00     0.160 HD
ENDROOT
BRANCH   9  19
HETATM   19  C9  UNK     1      31.753  -8.500  33.048  1.00  0.00     0.042 A 
HETATM   20  C14 UNK     1      30.371  -8.133  33.447  1.00  0.00     0.195 A 
HETATM   21  O4  UNK     1      29.941  -8.345  34.574  1.00  0.00    -0.287 OA
HETATM   22  C20 UNK     1      29.537  -7.497  32.410  1.00  0.00     0.048 A 
HETATM   23  C24 UNK     1      30.080  -7.281  31.143  1.00  0.00     0.089 A 
HETATM   24  C25 UNK     1      28.223  -7.116  32.687  1.00  0.00     0.018 A 
HETATM   25  O2  UNK     1      31.364  -7.636  30.815  1.00  0.00    -0.321 OA
HETATM   26  C26 UNK     1      29.310  -6.681  30.146  1.00  0.00     0.038 A 
HETATM   27  C15 UNK     1      32.128  -8.227  31.791  1.00  0.00     0.156 A 
HETATM   28  C28 UNK     1      27.996  -6.298  30.421  1.00  0.00     0.003 A 
HETATM   29  C27 UNK     1      27.454  -6.515  31.689  1.00  0.00     0.001 A 
ENDBRANCH   9  19
BRANCH   4  30
HETATM   30  C8  UNK     1      37.789 -11.301  32.202  1.00  0.00    -0.050 A 
HETATM   31  C12 UNK     1      38.959 -10.549  32.274  1.00  0.00     0.047 A 
HETATM   32  C18 UNK     1      40.125 -11.016  31.668  1.00  0.00     0.102 A 
HETATM   33  C21 UNK     1      40.118 -12.236  30.991  1.00  0.00     0.101 A 
HETATM   34  C19 UNK     1      38.945 -12.987  30.920  1.00  0.00     0.040 A 
HETATM   35  C13 UNK     1      37.779 -12.519  31.527  1.00  0.00     0.010 A 
BRANCH  32  36
HETATM   36  O3  UNK     1      41.264 -10.274  31.745  1.00  0.00    -0.353 OA
HETATM   37  C29 UNK     1      41.876 -10.156  33.028  1.00  0.00     0.210 C 
ENDBRANCH  32  36
BRANCH  33  38
HETATM   38  O5  UNK     1      41.250 -12.704  30.396  1.00  0.00    -0.353 OA
HETATM   39  C30 UNK     1      42.008 -13.674  31.117  1.00  0.00     0.210 C 
ENDBRANCH  33  38
ENDBRANCH   4  30
TORSDOF 4
ENDMDL
