MODEL 1
REMARK VINA RESULT:      -8.0      0.000      0.000
REMARK  3 active torsions:
REMARK  status: ('A' for Active; 'I' for Inactive)
REMARK    1  A    between atoms: C16_20  and  O3_3 
REMARK    2  A    between atoms: C13_17  and  O4_4 
REMARK    3  A    between atoms: C2_6  and  C5_9 
ROOT
HETATM    1  O1  UNK     1      18.654   1.354  32.914  1.00  0.00    -0.274 OA
HETATM    2  O2  UNK     1      18.099   3.072  34.299  1.00  0.00    -0.259 OA
HETATM    3  C1  UNK     1      18.789   3.211  30.775  1.00  0.00    -0.032 A 
HETATM    4  C2  UNK     1      18.471   3.632  32.019  1.00  0.00     0.057 A 
HETATM    5  C3  UNK     1      19.063   1.776  30.551  1.00  0.00     0.005 A 
HETATM    6  C4  UNK     1      18.985   0.898  31.629  1.00  0.00     0.092 A 
HETATM    7  C6  UNK     1      18.389   2.689  33.169  1.00  0.00     0.300 A 
HETATM    8  C7  UNK     1      18.889   4.127  29.577  1.00  0.00     0.050 C 
HETATM    9  C8  UNK     1      19.402   1.228  29.304  1.00  0.00     0.017 A 
HETATM   10  C9  UNK     1      19.229  -0.473  31.502  1.00  0.00     0.074 A 
HETATM   11  C12 UNK     1      19.649  -0.143  29.158  1.00  0.00     0.037 A 
HETATM   12  C13 UNK     1      19.563  -0.992  30.257  1.00  0.00     0.068 A 
ENDROOT
BRANCH   4  13
HETATM   13  C5  UNK     1      18.196   5.042  32.282  1.00  0.00    -0.019 A 
HETATM   14  C10 UNK     1      16.910   5.541  32.100  1.00  0.00     0.015 A 
HETATM   15  C14 UNK     1      16.647   6.888  32.351  1.00  0.00     0.037 A 
HETATM   16  C16 UNK     1      17.673   7.731  32.781  1.00  0.00     0.068 A 
HETATM   17  C15 UNK     1      18.960   7.225  32.960  1.00  0.00     0.037 A 
HETATM   18  C11 UNK     1      19.222   5.878  32.710  1.00  0.00     0.015 A 
BRANCH  16  19
HETATM   19  O3  UNK     1      17.416   9.044  33.025  1.00  0.00    -0.356 OA
HETATM   20  C17 UNK     1      18.326   9.736  33.879  1.00  0.00     0.210 C 
ENDBRANCH  16  19
ENDBRANCH   4  13
BRANCH  12  21
HETATM   21  O4  UNK     1      19.805  -2.323  30.113  1.00  0.00    -0.361 OA
HETATM   22  H11 UNK     1      19.339  -2.644  29.322  1.00  0.00     0.217 HD
ENDBRANCH  12  21
TORSDOF 3
ENDMDL
MODEL 2
REMARK VINA RESULT:      -7.8      1.774      7.760
REMARK  3 active torsions:
REMARK  status: ('A' for Active; 'I' for Inactive)
REMARK    1  A    between atoms: C16_20  and  O3_3 
REMARK    2  A    between atoms: C13_17  and  O4_4 
REMARK    3  A    between atoms: C2_6  and  C5_9 
ROOT
HETATM    1  O1  UNK     1      16.978   8.338  32.924  1.00  0.00    -0.274 OA
HETATM    2  O2  UNK     1      16.040   6.507  31.953  1.00  0.00    -0.259 OA
HETATM    3  C1  UNK     1      19.445   6.942  33.018  1.00  0.00    -0.032 A 
HETATM    4  C2  UNK     1      18.349   6.348  32.494  1.00  0.00     0.057 A 
HETATM    5  C3  UNK     1      19.335   8.321  33.537  1.00  0.00     0.005 A 
HETATM    6  C4  UNK     1      18.105   8.970  33.472  1.00  0.00     0.092 A 
HETATM    7  C6  UNK     1      17.035   7.047  32.427  1.00  0.00     0.300 A 
HETATM    8  C7  UNK     1      20.799   6.277  33.106  1.00  0.00     0.050 C 
HETATM    9  C8  UNK     1      20.405   9.033  34.101  1.00  0.00     0.017 A 
HETATM   10  C9  UNK     1      17.917  10.274  33.940  1.00  0.00     0.074 A 
HETATM   11  C12 UNK     1      20.234  10.339  34.575  1.00  0.00     0.037 A 
HETATM   12  C13 UNK     1      18.992  10.959  34.494  1.00  0.00     0.068 A 
ENDROOT
BRANCH   4  13
HETATM   13  C5  UNK     1      18.417   4.987  31.969  1.00  0.00    -0.019 A 
HETATM   14  C10 UNK     1      18.107   3.911  32.796  1.00  0.00     0.015 A 
HETATM   15  C14 UNK     1      18.172   2.611  32.294  1.00  0.00     0.037 A 
HETATM   16  C16 UNK     1      18.548   2.392  30.968  1.00  0.00     0.068 A 
HETATM   17  C15 UNK     1      18.858   3.475  30.145  1.00  0.00     0.037 A 
HETATM   18  C11 UNK     1      18.793   4.775  30.646  1.00  0.00     0.015 A 
BRANCH  16  19
HETATM   19  O3  UNK     1      18.612   1.124  30.479  1.00  0.00    -0.356 OA
HETATM   20  C17 UNK     1      18.999   0.974  29.114  1.00  0.00     0.210 C 
ENDBRANCH  16  19
ENDBRANCH   4  13
BRANCH  12  21
HETATM   21  O4  UNK     1      18.829  12.229  34.955  1.00  0.00    -0.361 OA
HETATM   22  H11 UNK     1      17.880  12.437  34.978  1.00  0.00     0.217 HD
ENDBRANCH  12  21
TORSDOF 3
ENDMDL
MODEL 3
REMARK VINA RESULT:      -7.7      2.309      8.205
REMARK  3 active torsions:
REMARK  status: ('A' for Active; 'I' for Inactive)
REMARK    1  A    between atoms: C16_20  and  O3_3 
REMARK    2  A    between atoms: C13_17  and  O4_4 
REMARK    3  A    between atoms: C2_6  and  C5_9 
ROOT
HETATM    1  O1  UNK     1      18.736   9.168  33.974  1.00  0.00    -0.274 OA
HETATM    2  O2  UNK     1      20.118   7.440  33.443  1.00  0.00    -0.259 OA
HETATM    3  C1  UNK     1      16.682   7.894  32.490  1.00  0.00    -0.032 A 
HETATM    4  C2  UNK     1      17.903   7.322  32.588  1.00  0.00     0.057 A 
HETATM    5  C3  UNK     1      16.439   9.185  33.166  1.00  0.00     0.005 A 
HETATM    6  C4  UNK     1      17.475   9.777  33.884  1.00  0.00     0.092 A 
HETATM    7  C6  UNK     1      19.009   7.959  33.356  1.00  0.00     0.300 A 
HETATM    8  C7  UNK     1      15.529   7.287  31.726  1.00  0.00     0.050 C 
HETATM    9  C8  UNK     1      15.213   9.868  33.133  1.00  0.00     0.017 A 
HETATM   10  C9  UNK     1      17.327  10.997  34.551  1.00  0.00     0.074 A 
HETATM   11  C12 UNK     1      15.048  11.091  33.795  1.00  0.00     0.037 A 
HETATM   12  C13 UNK     1      16.104  11.654  34.504  1.00  0.00     0.068 A 
ENDROOT
BRANCH   4  13
HETATM   13  C5  UNK     1      18.183   6.045  31.936  1.00  0.00    -0.019 A 
HETATM   14  C10 UNK     1      17.885   4.855  32.591  1.00  0.00     0.015 A 
HETATM   15  C14 UNK     1      18.151   3.635  31.968  1.00  0.00     0.037 A 
HETATM   16  C16 UNK     1      18.716   3.612  30.693  1.00  0.00     0.068 A 
HETATM   17  C15 UNK     1      19.013   4.808  30.041  1.00  0.00     0.037 A 
HETATM   18  C11 UNK     1      18.746   6.028  30.663  1.00  0.00     0.015 A 
BRANCH  16  19
HETATM   19  O3  UNK     1      18.977   2.422  30.086  1.00  0.00    -0.356 OA
HETATM   20  C17 UNK     1      18.159   2.070  28.971  1.00  0.00     0.210 C 
ENDBRANCH  16  19
ENDBRANCH   4  13
BRANCH  12  21
HETATM   21  O4  UNK     1      15.940  12.841  35.148  1.00  0.00    -0.361 OA
HETATM   22  H11 UNK     1      16.194  12.732  36.080  1.00  0.00     0.217 HD
ENDBRANCH  12  21
TORSDOF 3
ENDMDL
MODEL 4
REMARK VINA RESULT:      -7.4      1.699      2.410
REMARK  3 active torsions:
REMARK  status: ('A' for Active; 'I' for Inactive)
REMARK    1  A    between atoms: C16_20  and  O3_3 
REMARK    2  A    between atoms: C13_17  and  O4_4 
REMARK    3  A    between atoms: C2_6  and  C5_9 
ROOT
HETATM    1  O1  UNK     1      19.003   3.471  29.456  1.00  0.00    -0.274 OA
HETATM    2  O2  UNK     1      18.667   5.719  29.570  1.00  0.00    -0.259 OA
HETATM    3  C1  UNK     1      18.484   3.320  32.241  1.00  0.00    -0.032 A 
HETATM    4  C2  UNK     1      18.439   4.513  31.606  1.00  0.00     0.057 A 
HETATM    5  C3  UNK     1      18.806   2.106  31.463  1.00  0.00     0.005 A 
HETATM    6  C4  UNK     1      19.054   2.224  30.098  1.00  0.00     0.092 A 
HETATM    7  C6  UNK     1      18.706   4.635  30.146  1.00  0.00     0.300 A 
HETATM    8  C7  UNK     1      18.219   3.144  33.717  1.00  0.00     0.050 C 
HETATM    9  C8  UNK     1      18.880   0.818  32.017  1.00  0.00     0.017 A 
HETATM   10  C9  UNK     1      19.365   1.125  29.292  1.00  0.00     0.074 A 
HETATM   11  C12 UNK     1      19.190  -0.294  31.224  1.00  0.00     0.037 A 
HETATM   12  C13 UNK     1      19.432  -0.140  29.863  1.00  0.00     0.068 A 
ENDROOT
BRANCH   4  13
HETATM   13  C5  UNK     1      18.123   5.736  32.339  1.00  0.00    -0.019 A 
HETATM   14  C10 UNK     1      16.797   6.133  32.483  1.00  0.00     0.015 A 
HETATM   15  C14 UNK     1      16.495   7.301  33.183  1.00  0.00     0.037 A 
HETATM   16  C16 UNK     1      17.521   8.068  33.736  1.00  0.00     0.068 A 
HETATM   17  C15 UNK     1      18.848   7.666  33.588  1.00  0.00     0.037 A 
HETATM   18  C11 UNK     1      19.150   6.498  32.888  1.00  0.00     0.015 A 
BRANCH  16  19
HETATM   19  O3  UNK     1      17.226   9.207  34.418  1.00  0.00    -0.356 OA
HETATM   20  C17 UNK     1      15.853   9.440  34.732  1.00  0.00     0.210 C 
ENDBRANCH  16  19
ENDBRANCH   4  13
BRANCH  12  21
HETATM   21  O4  UNK     1      19.733  -1.222  29.094  1.00  0.00    -0.361 OA
HETATM   22  H11 UNK     1      20.690  -1.233  28.926  1.00  0.00     0.217 HD
ENDBRANCH  12  21
TORSDOF 3
ENDMDL
MODEL 5
REMARK VINA RESULT:      -7.1     15.784     18.172
REMARK  3 active torsions:
REMARK  status: ('A' for Active; 'I' for Inactive)
REMARK    1  A    between atoms: C16_20  and  O3_3 
REMARK    2  A    between atoms: C13_17  and  O4_4 
REMARK    3  A    between atoms: C2_6  and  C5_9 
ROOT
HETATM    1  O1  UNK     1      28.466  -6.195  37.745  1.00  0.00    -0.274 OA
HETATM    2  O2  UNK     1      30.114  -4.884  36.883  1.00  0.00    -0.259 OA
HETATM    3  C1  UNK     1      30.351  -8.302  37.968  1.00  0.00    -0.032 A 
HETATM    4  C2  UNK     1      30.729  -7.103  37.470  1.00  0.00     0.057 A 
HETATM    5  C3  UNK     1      28.948  -8.493  38.391  1.00  0.00     0.005 A 
HETATM    6  C4  UNK     1      28.055  -7.432  38.264  1.00  0.00     0.092 A 
HETATM    7  C6  UNK     1      29.770  -5.972  37.336  1.00  0.00     0.300 A 
HETATM    8  C7  UNK     1      31.286  -9.478  38.127  1.00  0.00     0.050 C 
HETATM    9  C8  UNK     1      28.446  -9.692  38.920  1.00  0.00     0.017 A 
HETATM   10  C9  UNK     1      26.712  -7.531  38.641  1.00  0.00     0.074 A 
HETATM   11  C12 UNK     1      27.104  -9.808  39.302  1.00  0.00     0.037 A 
HETATM   12  C13 UNK     1      26.238  -8.728  39.163  1.00  0.00     0.068 A 
ENDROOT
BRANCH   4  13
HETATM   13  C5  UNK     1      32.108  -6.874  37.043  1.00  0.00    -0.019 A 
HETATM   14  C10 UNK     1      33.031  -6.348  37.941  1.00  0.00     0.015 A 
HETATM   15  C14 UNK     1      34.347  -6.130  37.534  1.00  0.00     0.037 A 
HETATM   16  C16 UNK     1      34.734  -6.438  36.229  1.00  0.00     0.068 A 
HETATM   17  C15 UNK     1      33.803  -6.965  35.333  1.00  0.00     0.037 A 
HETATM   18  C11 UNK     1      32.488  -7.184  35.741  1.00  0.00     0.015 A 
BRANCH  16  19
HETATM   19  O3  UNK     1      36.017  -6.224  35.831  1.00  0.00    -0.356 OA
HETATM   20  C17 UNK     1      36.540  -7.095  34.829  1.00  0.00     0.210 C 
ENDBRANCH  16  19
ENDBRANCH   4  13
BRANCH  12  21
HETATM   21  O4  UNK     1      24.935  -8.843  39.536  1.00  0.00    -0.361 OA
HETATM   22  H11 UNK     1      24.527  -7.961  39.533  1.00  0.00     0.217 HD
ENDBRANCH  12  21
TORSDOF 3
ENDMDL
MODEL 6
REMARK VINA RESULT:      -7.1     22.727     24.491
REMARK  3 active torsions:
REMARK  status: ('A' for Active; 'I' for Inactive)
REMARK    1  A    between atoms: C16_20  and  O3_3 
REMARK    2  A    between atoms: C13_17  and  O4_4 
REMARK    3  A    between atoms: C2_6  and  C5_9 
ROOT
HETATM    1  O1  UNK     1      10.813   8.614   9.829  1.00  0.00    -0.274 OA
HETATM    2  O2  UNK     1      12.421   9.837  10.874  1.00  0.00    -0.259 OA
HETATM    3  C1  UNK     1      12.802   7.630   8.063  1.00  0.00    -0.032 A 
HETATM    4  C2  UNK     1      13.134   8.503   9.041  1.00  0.00     0.057 A 
HETATM    5  C3  UNK     1      11.395   7.201   7.933  1.00  0.00     0.005 A 
HETATM    6  C4  UNK     1      10.449   7.708   8.820  1.00  0.00     0.092 A 
HETATM    7  C6  UNK     1      12.120   9.043   9.988  1.00  0.00     0.300 A 
HETATM    8  C7  UNK     1      13.794   7.051   7.082  1.00  0.00     0.050 C 
HETATM    9  C8  UNK     1      10.937   6.301   6.957  1.00  0.00     0.017 A 
HETATM   10  C9  UNK     1       9.098   7.354   8.764  1.00  0.00     0.074 A 
HETATM   11  C12 UNK     1       9.587   5.935   6.886  1.00  0.00     0.037 A 
HETATM   12  C13 UNK     1       8.669   6.461   7.789  1.00  0.00     0.068 A 
ENDROOT
BRANCH   4  13
HETATM   13  C5  UNK     1      14.516   8.949   9.205  1.00  0.00    -0.019 A 
HETATM   14  C10 UNK     1      14.951  10.101   8.557  1.00  0.00     0.015 A 
HETATM   15  C14 UNK     1      16.270  10.528   8.714  1.00  0.00     0.037 A 
HETATM   16  C16 UNK     1      17.148   9.799   9.516  1.00  0.00     0.068 A 
HETATM   17  C15 UNK     1      16.706   8.644  10.162  1.00  0.00     0.037 A 
HETATM   18  C11 UNK     1      15.387   8.218  10.006  1.00  0.00     0.015 A 
BRANCH  16  19
HETATM   19  O3  UNK     1      18.435  10.214   9.668  1.00  0.00    -0.356 OA
HETATM   20  C17 UNK     1      18.660  11.622   9.725  1.00  0.00     0.210 C 
ENDBRANCH  16  19
ENDBRANCH   4  13
BRANCH  12  21
HETATM   21  O4  UNK     1       7.358   6.102   7.719  1.00  0.00    -0.361 OA
HETATM   22  H11 UNK     1       6.857   6.610   8.379  1.00  0.00     0.217 HD
ENDBRANCH  12  21
TORSDOF 3
ENDMDL
MODEL 7
REMARK VINA RESULT:      -7.0     13.554     15.610
REMARK  3 active torsions:
REMARK  status: ('A' for Active; 'I' for Inactive)
REMARK    1  A    between atoms: C16_20  and  O3_3 
REMARK    2  A    between atoms: C13_17  and  O4_4 
REMARK    3  A    between atoms: C2_6  and  C5_9 
ROOT
HETATM    1  O1  UNK     1      25.907  -5.102  38.796  1.00  0.00    -0.274 OA
HETATM    2  O2  UNK     1      23.634  -5.187  38.832  1.00  0.00    -0.259 OA
HETATM    3  C1  UNK     1      25.944  -7.934  38.641  1.00  0.00    -0.032 A 
HETATM    4  C2  UNK     1      24.766  -7.272  38.697  1.00  0.00     0.057 A 
HETATM    5  C3  UNK     1      27.202  -7.160  38.662  1.00  0.00     0.005 A 
HETATM    6  C4  UNK     1      27.139  -5.771  38.739  1.00  0.00     0.092 A 
HETATM    7  C6  UNK     1      24.703  -5.787  38.780  1.00  0.00     0.300 A 
HETATM    8  C7  UNK     1      26.060  -9.437  38.553  1.00  0.00     0.050 C 
HETATM    9  C8  UNK     1      28.479  -7.740  38.609  1.00  0.00     0.017 A 
HETATM   10  C9  UNK     1      28.283  -4.966  38.764  1.00  0.00     0.074 A 
HETATM   11  C12 UNK     1      29.635  -6.949  38.633  1.00  0.00     0.037 A 
HETATM   12  C13 UNK     1      29.536  -5.564  38.710  1.00  0.00     0.068 A 
ENDROOT
BRANCH   4  13
HETATM   13  C5  UNK     1      23.500  -8.001  38.676  1.00  0.00    -0.019 A 
HETATM   14  C10 UNK     1      23.001  -8.486  37.471  1.00  0.00     0.015 A 
HETATM   15  C14 UNK     1      21.792  -9.183  37.452  1.00  0.00     0.037 A 
HETATM   16  C16 UNK     1      21.087  -9.389  38.638  1.00  0.00     0.068 A 
HETATM   17  C15 UNK     1      21.591  -8.900  39.842  1.00  0.00     0.037 A 
HETATM   18  C11 UNK     1      22.800  -8.205  39.862  1.00  0.00     0.015 A 
BRANCH  16  19
HETATM   19  O3  UNK     1      19.908 -10.068  38.618  1.00  0.00    -0.356 OA
HETATM   20  C17 UNK     1      19.583 -10.771  37.420  1.00  0.00     0.210 C 
ENDBRANCH  16  19
ENDBRANCH   4  13
BRANCH  12  21
HETATM   21  O4  UNK     1      30.660  -4.798  38.732  1.00  0.00    -0.361 OA
HETATM   22  H11 UNK     1      30.532  -4.068  39.361  1.00  0.00     0.217 HD
ENDBRANCH  12  21
TORSDOF 3
ENDMDL
MODEL 8
REMARK VINA RESULT:      -7.0      1.265      2.088
REMARK  3 active torsions:
REMARK  status: ('A' for Active; 'I' for Inactive)
REMARK    1  A    between atoms: C16_20  and  O3_3 
REMARK    2  A    between atoms: C13_17  and  O4_4 
REMARK    3  A    between atoms: C2_6  and  C5_9 
ROOT
HETATM    1  O1  UNK     1      18.364   2.923  33.138  1.00  0.00    -0.274 OA
HETATM    2  O2  UNK     1      17.967   4.549  34.679  1.00  0.00    -0.259 OA
HETATM    3  C1  UNK     1      18.514   4.939  31.148  1.00  0.00    -0.032 A 
HETATM    4  C2  UNK     1      18.274   5.273  32.436  1.00  0.00     0.057 A 
HETATM    5  C3  UNK     1      18.696   3.515  30.799  1.00  0.00     0.005 A 
HETATM    6  C4  UNK     1      18.615   2.557  31.806  1.00  0.00     0.092 A 
HETATM    7  C6  UNK     1      18.187   4.245  33.510  1.00  0.00     0.300 A 
HETATM    8  C7  UNK     1      18.615   5.943  30.024  1.00  0.00     0.050 C 
HETATM    9  C8  UNK     1      18.950   3.053  29.498  1.00  0.00     0.017 A 
HETATM   10  C9  UNK     1      18.775   1.190  31.560  1.00  0.00     0.074 A 
HETATM   11  C12 UNK     1      19.113   1.688  29.233  1.00  0.00     0.037 A 
HETATM   12  C13 UNK     1      19.025   0.757  30.263  1.00  0.00     0.068 A 
ENDROOT
BRANCH   4  13
HETATM   13  C5  UNK     1      18.091   6.670  32.822  1.00  0.00    -0.019 A 
HETATM   14  C10 UNK     1      19.156   7.384  33.361  1.00  0.00     0.015 A 
HETATM   15  C14 UNK     1      18.981   8.718  33.729  1.00  0.00     0.037 A 
HETATM   16  C16 UNK     1      17.740   9.332  33.558  1.00  0.00     0.068 A 
HETATM   17  C15 UNK     1      16.675   8.611  33.018  1.00  0.00     0.037 A 
HETATM   18  C11 UNK     1      16.851   7.277  32.649  1.00  0.00     0.015 A 
BRANCH  16  19
HETATM   19  O3  UNK     1      17.569  10.633  33.918  1.00  0.00    -0.356 OA
HETATM   20  C17 UNK     1      16.233  11.066  34.170  1.00  0.00     0.210 C 
ENDBRANCH  16  19
ENDBRANCH   4  13
BRANCH  12  21
HETATM   21  O4  UNK     1      19.185  -0.568  30.003  1.00  0.00    -0.361 OA
HETATM   22  H11 UNK     1      18.326  -1.013  30.095  1.00  0.00     0.217 HD
ENDBRANCH  12  21
TORSDOF 3
ENDMDL
MODEL 9
REMARK VINA RESULT:      -6.9      6.042     10.202
REMARK  3 active torsions:
REMARK  status: ('A' for Active; 'I' for Inactive)
REMARK    1  A    between atoms: C16_20  and  O3_3 
REMARK    2  A    between atoms: C13_17  and  O4_4 
REMARK    3  A    between atoms: C2_6  and  C5_9 
ROOT
HETATM    1  O1  UNK     1      19.647  -1.558  33.777  1.00  0.00    -0.274 OA
HETATM    2  O2  UNK     1      20.602  -3.618  33.925  1.00  0.00    -0.259 OA
HETATM    3  C1  UNK     1      18.902  -1.781  36.505  1.00  0.00    -0.032 A 
HETATM    4  C2  UNK     1      19.579  -2.784  35.902  1.00  0.00     0.057 A 
HETATM    5  C3  UNK     1      18.560  -0.576  35.722  1.00  0.00     0.005 A 
HETATM    6  C4  UNK     1      18.944  -0.507  34.386  1.00  0.00     0.092 A 
HETATM    7  C6  UNK     1      19.988  -2.707  34.472  1.00  0.00     0.300 A 
HETATM    8  C7  UNK     1      18.468  -1.811  37.951  1.00  0.00     0.050 C 
HETATM    9  C8  UNK     1      17.860   0.524  36.243  1.00  0.00     0.017 A 
HETATM   10  C9  UNK     1      18.660   0.598  33.577  1.00  0.00     0.074 A 
HETATM   11  C12 UNK     1      17.567   1.638  35.448  1.00  0.00     0.037 A 
HETATM   12  C13 UNK     1      17.967   1.675  34.116  1.00  0.00     0.068 A 
ENDROOT
BRANCH   4  13
HETATM   13  C5  UNK     1      19.938  -3.992  36.642  1.00  0.00    -0.019 A 
HETATM   14  C10 UNK     1      19.094  -5.097  36.612  1.00  0.00     0.015 A 
HETATM   15  C14 UNK     1      19.437  -6.251  37.319  1.00  0.00     0.037 A 
HETATM   16  C16 UNK     1      20.622  -6.292  38.054  1.00  0.00     0.068 A 
HETATM   17  C15 UNK     1      21.464  -5.180  38.080  1.00  0.00     0.037 A 
HETATM   18  C11 UNK     1      21.121  -4.028  37.373  1.00  0.00     0.015 A 
BRANCH  16  19
HETATM   19  O3  UNK     1      20.956  -7.416  38.743  1.00  0.00    -0.356 OA
HETATM   20  C17 UNK     1      19.885  -8.186  39.288  1.00  0.00     0.210 C 
ENDBRANCH  16  19
ENDBRANCH   4  13
BRANCH  12  21
HETATM   21  O4  UNK     1      17.681   2.759  33.345  1.00  0.00    -0.361 OA
HETATM   22  H11 UNK     1      16.892   2.567  32.811  1.00  0.00     0.217 HD
ENDBRANCH  12  21
TORSDOF 3
ENDMDL
MODEL 10
REMARK VINA RESULT:      -6.9     15.623     17.903
REMARK  3 active torsions:
REMARK  status: ('A' for Active; 'I' for Inactive)
REMARK    1  A    between atoms: C16_20  and  O3_3 
REMARK    2  A    between atoms: C13_17  and  O4_4 
REMARK    3  A    between atoms: C2_6  and  C5_9 
ROOT
HETATM    1  O1  UNK     1      28.421  -7.573  38.054  1.00  0.00    -0.274 OA
HETATM    2  O2  UNK     1      27.959  -9.566  37.059  1.00  0.00    -0.259 OA
HETATM    3  C1  UNK     1      30.173  -6.981  35.904  1.00  0.00    -0.032 A 
HETATM    4  C2  UNK     1      29.499  -8.152  35.927  1.00  0.00     0.057 A 
HETATM    5  C3  UNK     1      29.982  -6.022  37.012  1.00  0.00     0.005 A 
HETATM    6  C4  UNK     1      29.112  -6.352  38.048  1.00  0.00     0.092 A 
HETATM    7  C6  UNK     1      28.570  -8.502  37.038  1.00  0.00     0.300 A 
HETATM    8  C7  UNK     1      31.123  -6.580  34.800  1.00  0.00     0.050 C 
HETATM    9  C8  UNK     1      30.629  -4.778  37.092  1.00  0.00     0.017 A 
HETATM   10  C9  UNK     1      28.876  -5.500  39.132  1.00  0.00     0.074 A 
HETATM   11  C12 UNK     1      30.404  -3.914  38.170  1.00  0.00     0.037 A 
HETATM   12  C13 UNK     1      29.528  -4.275  39.188  1.00  0.00     0.068 A 
ENDROOT
BRANCH   4  13
HETATM   13  C5  UNK     1      29.659  -9.126  34.850  1.00  0.00    -0.019 A 
HETATM   14  C10 UNK     1      28.843  -9.054  33.726  1.00  0.00     0.015 A 
HETATM   15  C14 UNK     1      28.996  -9.984  32.697  1.00  0.00     0.037 A 
HETATM   16  C16 UNK     1      29.965 -10.983  32.798  1.00  0.00     0.068 A 
HETATM   17  C15 UNK     1      30.781 -11.050  33.928  1.00  0.00     0.037 A 
HETATM   18  C11 UNK     1      30.628 -10.120  34.956  1.00  0.00     0.015 A 
BRANCH  16  19
HETATM   19  O3  UNK     1      30.114 -11.890  31.795  1.00  0.00    -0.356 OA
HETATM   20  C17 UNK     1      30.655 -13.163  32.146  1.00  0.00     0.210 C 
ENDBRANCH  16  19
ENDBRANCH   4  13
BRANCH  12  21
HETATM   21  O4  UNK     1      29.310  -3.432  40.234  1.00  0.00    -0.361 OA
HETATM   22  H11 UNK     1      29.805  -3.754  41.007  1.00  0.00     0.217 HD
ENDBRANCH  12  21
TORSDOF 3
ENDMDL
