MODEL 1
REMARK VINA RESULT:      -7.9      0.000      0.000
REMARK  4 active torsions:
REMARK  status: ('A' for Active; 'I' for Inactive)
REMARK    1  A    between atoms: C5_10  and  O2_2 
REMARK    2  A    between atoms: C9_14  and  O3_3 
REMARK    3  A    between atoms: C12_17  and  O4_4 
REMARK    4  A    between atoms: C1_6  and  C2_7 
ROOT
HETATM    1  O1  UNK     1      16.967   6.862  32.301  1.00  0.00    -0.306 OA
HETATM    2  O5  UNK     1      19.788   8.670  34.623  1.00  0.00    -0.284 OA
HETATM    3  C1  UNK     1      18.179   6.252  32.579  1.00  0.00     0.123 A 
HETATM    4  C3  UNK     1      17.647   8.772  33.638  1.00  0.00     0.051 A 
HETATM    5  C4  UNK     1      16.725   8.101  32.836  1.00  0.00     0.090 A 
HETATM    6  C5  UNK     1      19.156   6.789  33.331  1.00  0.00     0.154 A 
HETATM    7  C6  UNK     1      18.939   8.129  33.928  1.00  0.00     0.221 A 
HETATM    8  C10 UNK     1      17.345  10.034  34.155  1.00  0.00     0.018 A 
HETATM    9  C11 UNK     1      15.494   8.690  32.546  1.00  0.00     0.038 A 
HETATM   10  C14 UNK     1      16.113  10.621  33.864  1.00  0.00     0.001 A 
HETATM   11  C15 UNK     1      15.189   9.950  33.061  1.00  0.00     0.003 A 
ENDROOT
BRANCH   3  12
HETATM   12  C2  UNK     1      18.319   4.966  31.971  1.00  0.00     0.004 A 
HETATM   13  C7  UNK     1      18.104   3.811  32.724  1.00  0.00     0.054 A 
HETATM   14  C9  UNK     1      18.241   2.557  32.131  1.00  0.00     0.102 A 
HETATM   15  C12 UNK     1      18.592   2.456  30.785  1.00  0.00     0.101 A 
HETATM   16  C13 UNK     1      18.807   3.610  30.032  1.00  0.00     0.040 A 
HETATM   17  C8  UNK     1      18.671   4.865  30.625  1.00  0.00     0.017 A 
BRANCH  14  18
HETATM   18  O3  UNK     1      18.028   1.436  32.877  1.00  0.00    -0.353 OA
HETATM   19  C17 UNK     1      17.973   1.601  34.292  1.00  0.00     0.210 C 
ENDBRANCH  14  18
BRANCH  15  20
HETATM   20  O4  UNK     1      18.728   1.236  30.193  1.00  0.00    -0.353 OA
HETATM   21  C18 UNK     1      18.407   1.148  28.807  1.00  0.00     0.210 C 
ENDBRANCH  15  20
ENDBRANCH   3  12
BRANCH   6  22
HETATM   22  O2  UNK     1      20.360   6.160  33.566  1.00  0.00    -0.350 OA
HETATM   23  C16 UNK     1      21.315   6.516  32.584  1.00  0.00     0.210 C 
ENDBRANCH   6  22
TORSDOF 4
ENDMDL
MODEL 2
REMARK VINA RESULT:      -7.7      1.685      6.896
REMARK  4 active torsions:
REMARK  status: ('A' for Active; 'I' for Inactive)
REMARK    1  A    between atoms: C5_10  and  O2_2 
REMARK    2  A    between atoms: C9_14  and  O3_3 
REMARK    3  A    between atoms: C12_17  and  O4_4 
REMARK    4  A    between atoms: C1_6  and  C2_7 
ROOT
HETATM    1  O1  UNK     1      18.247   4.023  34.429  1.00  0.00    -0.306 OA
HETATM    2  O5  UNK     1      18.356   1.849  30.982  1.00  0.00    -0.284 OA
HETATM    3  C1  UNK     1      18.226   4.632  33.185  1.00  0.00     0.123 A 
HETATM    4  C3  UNK     1      18.336   1.854  33.341  1.00  0.00     0.051 A 
HETATM    5  C4  UNK     1      18.297   2.654  34.483  1.00  0.00     0.090 A 
HETATM    6  C5  UNK     1      18.264   3.981  32.010  1.00  0.00     0.154 A 
HETATM    7  C6  UNK     1      18.322   2.500  32.019  1.00  0.00     0.221 A 
HETATM    8  C10 UNK     1      18.386   0.463  33.457  1.00  0.00     0.018 A 
HETATM    9  C11 UNK     1      18.310   2.066  35.747  1.00  0.00     0.038 A 
HETATM   10  C14 UNK     1      18.398  -0.123  34.723  1.00  0.00     0.001 A 
HETATM   11  C15 UNK     1      18.360   0.677  35.866  1.00  0.00     0.003 A 
ENDROOT
BRANCH   3  12
HETATM   12  C2  UNK     1      18.172   6.059  33.254  1.00  0.00     0.004 A 
HETATM   13  C7  UNK     1      17.096   6.743  32.689  1.00  0.00     0.054 A 
HETATM   14  C9  UNK     1      17.043   8.135  32.755  1.00  0.00     0.102 A 
HETATM   15  C12 UNK     1      18.065   8.843  33.386  1.00  0.00     0.101 A 
HETATM   16  C13 UNK     1      19.142   8.159  33.951  1.00  0.00     0.040 A 
HETATM   17  C8  UNK     1      19.195   6.767  33.884  1.00  0.00     0.017 A 
BRANCH  14  18
HETATM   18  O3  UNK     1      15.986   8.793  32.200  1.00  0.00    -0.353 OA
HETATM   19  C17 UNK     1      14.735   8.698  32.877  1.00  0.00     0.210 C 
ENDBRANCH  14  18
BRANCH  15  20
HETATM   20  O4  UNK     1      18.025  10.203  33.458  1.00  0.00    -0.353 OA
HETATM   21  C18 UNK     1      19.087  10.847  34.160  1.00  0.00     0.210 C 
ENDBRANCH  15  20
ENDBRANCH   3  12
BRANCH   6  22
HETATM   22  O2  UNK     1      18.266   4.624  30.790  1.00  0.00    -0.350 OA
HETATM   23  C16 UNK     1      19.581   4.988  30.414  1.00  0.00     0.210 C 
ENDBRANCH   6  22
TORSDOF 4
ENDMDL
MODEL 3
REMARK VINA RESULT:      -7.6      1.666      6.965
REMARK  4 active torsions:
REMARK  status: ('A' for Active; 'I' for Inactive)
REMARK    1  A    between atoms: C5_10  and  O2_2 
REMARK    2  A    between atoms: C9_14  and  O3_3 
REMARK    3  A    between atoms: C12_17  and  O4_4 
REMARK    4  A    between atoms: C1_6  and  C2_7 
ROOT
HETATM    1  O1  UNK     1      18.013   3.243  33.351  1.00  0.00    -0.306 OA
HETATM    2  O5  UNK     1      19.221   2.271  29.581  1.00  0.00    -0.284 OA
HETATM    3  C1  UNK     1      18.137   4.200  32.358  1.00  0.00     0.123 A 
HETATM    4  C3  UNK     1      18.717   1.542  31.767  1.00  0.00     0.051 A 
HETATM    5  C4  UNK     1      18.300   1.939  33.037  1.00  0.00     0.090 A 
HETATM    6  C5  UNK     1      18.533   3.955  31.098  1.00  0.00     0.154 A 
HETATM    7  C6  UNK     1      18.857   2.560  30.713  1.00  0.00     0.221 A 
HETATM    8  C10 UNK     1      18.996   0.199  31.506  1.00  0.00     0.018 A 
HETATM    9  C11 UNK     1      18.161   0.994  34.053  1.00  0.00     0.038 A 
HETATM   10  C14 UNK     1      18.855  -0.745  32.523  1.00  0.00     0.001 A 
HETATM   11  C15 UNK     1      18.438  -0.348  33.795  1.00  0.00     0.003 A 
ENDROOT
BRANCH   3  12
HETATM   12  C2  UNK     1      17.810   5.521  32.800  1.00  0.00     0.004 A 
HETATM   13  C7  UNK     1      18.641   6.177  33.708  1.00  0.00     0.054 A 
HETATM   14  C9  UNK     1      18.323   7.465  34.139  1.00  0.00     0.102 A 
HETATM   15  C12 UNK     1      17.174   8.096  33.663  1.00  0.00     0.101 A 
HETATM   16  C13 UNK     1      16.343   7.439  32.755  1.00  0.00     0.040 A 
HETATM   17  C8  UNK     1      16.661   6.151  32.324  1.00  0.00     0.017 A 
BRANCH  14  18
HETATM   18  O3  UNK     1      19.143   8.096  35.027  1.00  0.00    -0.353 OA
HETATM   19  C17 UNK     1      20.166   8.928  34.484  1.00  0.00     0.210 C 
ENDBRANCH  14  18
BRANCH  15  20
HETATM   20  O4  UNK     1      16.853   9.354  34.076  1.00  0.00    -0.353 OA
HETATM   21  C18 UNK     1      15.675   9.495  34.868  1.00  0.00     0.210 C 
ENDBRANCH  15  20
ENDBRANCH   3  12
BRANCH   6  22
HETATM   22  O2  UNK     1      18.668   4.940  30.142  1.00  0.00    -0.350 OA
HETATM   23  C16 UNK     1      19.933   5.566  30.238  1.00  0.00     0.210 C 
ENDBRANCH   6  22
TORSDOF 4
ENDMDL
MODEL 4
REMARK VINA RESULT:      -7.5     22.505     24.545
REMARK  4 active torsions:
REMARK  status: ('A' for Active; 'I' for Inactive)
REMARK    1  A    between atoms: C5_10  and  O2_2 
REMARK    2  A    between atoms: C9_14  and  O3_3 
REMARK    3  A    between atoms: C12_17  and  O4_4 
REMARK    4  A    between atoms: C1_6  and  C2_7 
ROOT
HETATM    1  O1  UNK     1      14.460   9.299   8.287  1.00  0.00    -0.306 OA
HETATM    2  O5  UNK     1      16.938   7.763  11.135  1.00  0.00    -0.284 OA
HETATM    3  C1  UNK     1      14.188   8.093   8.913  1.00  0.00     0.123 A 
HETATM    4  C3  UNK     1      16.477   9.511   9.621  1.00  0.00     0.051 A 
HETATM    5  C4  UNK     1      15.590   9.982   8.653  1.00  0.00     0.090 A 
HETATM    6  C5  UNK     1      14.960   7.525   9.855  1.00  0.00     0.154 A 
HETATM    7  C6  UNK     1      16.195   8.227  10.281  1.00  0.00     0.221 A 
HETATM    8  C10 UNK     1      17.614  10.252   9.954  1.00  0.00     0.018 A 
HETATM    9  C11 UNK     1      15.836  11.196   8.013  1.00  0.00     0.038 A 
HETATM   10  C14 UNK     1      17.858  11.466   9.312  1.00  0.00     0.001 A 
HETATM   11  C15 UNK     1      16.970  11.938   8.344  1.00  0.00     0.003 A 
ENDROOT
BRANCH   3  12
HETATM   12  C2  UNK     1      12.985   7.473   8.451  1.00  0.00     0.004 A 
HETATM   13  C7  UNK     1      11.820   7.559   9.214  1.00  0.00     0.054 A 
HETATM   14  C9  UNK     1      10.647   6.954   8.764  1.00  0.00     0.102 A 
HETATM   15  C12 UNK     1      10.638   6.263   7.552  1.00  0.00     0.101 A 
HETATM   16  C13 UNK     1      11.804   6.176   6.791  1.00  0.00     0.040 A 
HETATM   17  C8  UNK     1      12.977   6.781   7.240  1.00  0.00     0.017 A 
BRANCH  14  18
HETATM   18  O3  UNK     1       9.514   7.045   9.517  1.00  0.00    -0.353 OA
HETATM   19  C17 UNK     1       8.808   8.284   9.477  1.00  0.00     0.210 C 
ENDBRANCH  14  18
BRANCH  15  20
HETATM   20  O4  UNK     1       9.498   5.668   7.102  1.00  0.00    -0.353 OA
HETATM   21  C18 UNK     1       8.689   6.419   6.199  1.00  0.00     0.210 C 
ENDBRANCH  15  20
ENDBRANCH   3  12
BRANCH   6  22
HETATM   22  O2  UNK     1      14.669   6.310  10.438  1.00  0.00    -0.350 OA
HETATM   23  C16 UNK     1      15.338   5.257   9.770  1.00  0.00     0.210 C 
ENDBRANCH   6  22
TORSDOF 4
ENDMDL
MODEL 5
REMARK VINA RESULT:      -7.5      1.760      3.265
REMARK  4 active torsions:
REMARK  status: ('A' for Active; 'I' for Inactive)
REMARK    1  A    between atoms: C5_10  and  O2_2 
REMARK    2  A    between atoms: C9_14  and  O3_3 
REMARK    3  A    between atoms: C12_17  and  O4_4 
REMARK    4  A    between atoms: C1_6  and  C2_7 
ROOT
HETATM    1  O1  UNK     1      18.072   8.964  33.185  1.00  0.00    -0.306 OA
HETATM    2  O5  UNK     1      14.223   9.416  34.452  1.00  0.00    -0.284 OA
HETATM    3  C1  UNK     1      17.128   7.965  33.011  1.00  0.00     0.123 A 
HETATM    4  C3  UNK     1      16.382  10.346  34.247  1.00  0.00     0.051 A 
HETATM    5  C4  UNK     1      17.682  10.129  33.792  1.00  0.00     0.090 A 
HETATM    6  C5  UNK     1      15.845   8.042  33.407  1.00  0.00     0.154 A 
HETATM    7  C6  UNK     1      15.379   9.284  34.071  1.00  0.00     0.221 A 
HETATM    8  C10 UNK     1      16.042  11.555  34.859  1.00  0.00     0.018 A 
HETATM    9  C11 UNK     1      18.650  11.121  33.948  1.00  0.00     0.038 A 
HETATM   10  C14 UNK     1      17.012  12.546  35.013  1.00  0.00     0.001 A 
HETATM   11  C15 UNK     1      18.314  12.330  34.559  1.00  0.00     0.003 A 
ENDROOT
BRANCH   3  12
HETATM   12  C2  UNK     1      17.647   6.799  32.367  1.00  0.00     0.004 A 
HETATM   13  C7  UNK     1      17.560   5.558  32.997  1.00  0.00     0.054 A 
HETATM   14  C9  UNK     1      18.066   4.421  32.369  1.00  0.00     0.102 A 
HETATM   15  C12 UNK     1      18.661   4.524  31.111  1.00  0.00     0.101 A 
HETATM   16  C13 UNK     1      18.749   5.766  30.482  1.00  0.00     0.040 A 
HETATM   17  C8  UNK     1      18.242   6.904  31.110  1.00  0.00     0.017 A 
BRANCH  14  18
HETATM   18  O3  UNK     1      17.975   3.213  32.994  1.00  0.00    -0.353 OA
HETATM   19  C17 UNK     1      18.382   3.157  34.359  1.00  0.00     0.210 C 
ENDBRANCH  14  18
BRANCH  15  20
HETATM   20  O4  UNK     1      19.159   3.421  30.487  1.00  0.00    -0.353 OA
HETATM   21  C18 UNK     1      18.325   2.794  29.514  1.00  0.00     0.210 C 
ENDBRANCH  15  20
ENDBRANCH   3  12
BRANCH   6  22
HETATM   22  O2  UNK     1      14.939   7.016  33.238  1.00  0.00    -0.350 OA
HETATM   23  C16 UNK     1      14.211   7.180  32.036  1.00  0.00     0.210 C 
ENDBRANCH   6  22
TORSDOF 4
ENDMDL
MODEL 6
REMARK VINA RESULT:      -7.2     14.293     18.154
REMARK  4 active torsions:
REMARK  status: ('A' for Active; 'I' for Inactive)
REMARK    1  A    between atoms: C5_10  and  O2_2 
REMARK    2  A    between atoms: C9_14  and  O3_3 
REMARK    3  A    between atoms: C12_17  and  O4_4 
REMARK    4  A    between atoms: C1_6  and  C2_7 
ROOT
HETATM    1  O1  UNK     1      19.007  -1.234  17.658  1.00  0.00    -0.306 OA
HETATM    2  O5  UNK     1      19.273   2.108  15.340  1.00  0.00    -0.284 OA
HETATM    3  C1  UNK     1      19.114  -1.313  16.279  1.00  0.00     0.123 A 
HETATM    4  C3  UNK     1      19.089   1.188  17.504  1.00  0.00     0.051 A 
HETATM    5  C4  UNK     1      19.001   0.007  18.240  1.00  0.00     0.090 A 
HETATM    6  C5  UNK     1      19.200  -0.256  15.453  1.00  0.00     0.154 A 
HETATM    7  C6  UNK     1      19.194   1.106  16.038  1.00  0.00     0.221 A 
HETATM    8  C10 UNK     1      19.078   2.425  18.152  1.00  0.00     0.018 A 
HETATM    9  C11 UNK     1      18.899   0.057  19.630  1.00  0.00     0.038 A 
HETATM   10  C14 UNK     1      18.977   2.473  19.543  1.00  0.00     0.001 A 
HETATM   11  C15 UNK     1      18.888   1.292  20.281  1.00  0.00     0.003 A 
ENDROOT
BRANCH   3  12
HETATM   12  C2  UNK     1      19.111  -2.655  15.786  1.00  0.00     0.004 A 
HETATM   13  C7  UNK     1      20.292  -3.398  15.781  1.00  0.00     0.054 A 
HETATM   14  C9  UNK     1      20.290  -4.707  15.300  1.00  0.00     0.102 A 
HETATM   15  C12 UNK     1      19.108  -5.273  14.823  1.00  0.00     0.101 A 
HETATM   16  C13 UNK     1      17.927  -4.530  14.828  1.00  0.00     0.040 A 
HETATM   17  C8  UNK     1      17.929  -3.221  15.309  1.00  0.00     0.017 A 
BRANCH  14  18
HETATM   18  O3  UNK     1      21.449  -5.423  15.300  1.00  0.00    -0.353 OA
HETATM   19  C17 UNK     1      22.423  -5.079  16.283  1.00  0.00     0.210 C 
ENDBRANCH  14  18
BRANCH  15  20
HETATM   20  O4  UNK     1      19.092  -6.551  14.351  1.00  0.00    -0.353 OA
HETATM   21  C18 UNK     1      17.882  -7.004  13.746  1.00  0.00     0.210 C 
ENDBRANCH  15  20
ENDBRANCH   3  12
BRANCH   6  22
HETATM   22  O2  UNK     1      19.281  -0.374  14.081  1.00  0.00    -0.350 OA
HETATM   23  C16 UNK     1      20.604  -0.673  13.678  1.00  0.00     0.210 C 
ENDBRANCH   6  22
TORSDOF 4
ENDMDL
MODEL 7
REMARK VINA RESULT:      -7.1     22.829     24.897
REMARK  4 active torsions:
REMARK  status: ('A' for Active; 'I' for Inactive)
REMARK    1  A    between atoms: C5_10  and  O2_2 
REMARK    2  A    between atoms: C9_14  and  O3_3 
REMARK    3  A    between atoms: C12_17  and  O4_4 
REMARK    4  A    between atoms: C1_6  and  C2_7 
ROOT
HETATM    1  O1  UNK     1      12.692   7.646   7.581  1.00  0.00    -0.306 OA
HETATM    2  O5  UNK     1       9.560   8.326  10.101  1.00  0.00    -0.284 OA
HETATM    3  C1  UNK     1      12.855   8.329   8.775  1.00  0.00     0.123 A 
HETATM    4  C3  UNK     1      10.329   7.386   8.079  1.00  0.00     0.051 A 
HETATM    5  C4  UNK     1      11.441   7.187   7.260  1.00  0.00     0.090 A 
HETATM    6  C5  UNK     1      11.869   8.594   9.651  1.00  0.00     0.154 A 
HETATM    7  C6  UNK     1      10.499   8.119   9.343  1.00  0.00     0.221 A 
HETATM    8  C10 UNK     1       9.078   6.895   7.699  1.00  0.00     0.018 A 
HETATM    9  C11 UNK     1      11.306   6.496   6.056  1.00  0.00     0.038 A 
HETATM   10  C14 UNK     1       8.945   6.203   6.494  1.00  0.00     0.001 A 
HETATM   11  C15 UNK     1      10.057   6.004   5.674  1.00  0.00     0.003 A 
ENDROOT
BRANCH   3  12
HETATM   12  C2  UNK     1      14.199   8.757   9.004  1.00  0.00     0.004 A 
HETATM   13  C7  UNK     1      15.118   7.887   9.592  1.00  0.00     0.054 A 
HETATM   14  C9  UNK     1      16.429   8.305   9.815  1.00  0.00     0.102 A 
HETATM   15  C12 UNK     1      16.823   9.593   9.452  1.00  0.00     0.101 A 
HETATM   16  C13 UNK     1      15.904  10.464   8.865  1.00  0.00     0.040 A 
HETATM   17  C8  UNK     1      14.592  10.046   8.642  1.00  0.00     0.017 A 
BRANCH  14  18
HETATM   18  O3  UNK     1      17.318   7.446  10.390  1.00  0.00    -0.353 OA
HETATM   19  C17 UNK     1      17.744   6.335   9.605  1.00  0.00     0.210 C 
ENDBRANCH  14  18
BRANCH  15  20
HETATM   20  O4  UNK     1      18.101  10.013   9.665  1.00  0.00    -0.353 OA
HETATM   21  C18 UNK     1      18.320  11.421   9.719  1.00  0.00     0.210 C 
ENDBRANCH  15  20
ENDBRANCH   3  12
BRANCH   6  22
HETATM   22  O2  UNK     1      12.066   9.299  10.819  1.00  0.00    -0.350 OA
HETATM   23  C16 UNK     1      11.636  10.639  10.677  1.00  0.00     0.210 C 
ENDBRANCH   6  22
TORSDOF 4
ENDMDL
MODEL 8
REMARK VINA RESULT:      -7.0     22.642     25.082
REMARK  4 active torsions:
REMARK  status: ('A' for Active; 'I' for Inactive)
REMARK    1  A    between atoms: C5_10  and  O2_2 
REMARK    2  A    between atoms: C9_14  and  O3_3 
REMARK    3  A    between atoms: C12_17  and  O4_4 
REMARK    4  A    between atoms: C1_6  and  C2_7 
ROOT
HETATM    1  O1  UNK     1      13.277   7.908   7.767  1.00  0.00    -0.306 OA
HETATM    2  O5  UNK     1      10.178   8.936  10.208  1.00  0.00    -0.284 OA
HETATM    3  C1  UNK     1      13.445   8.790   8.822  1.00  0.00     0.123 A 
HETATM    4  C3  UNK     1      10.933   7.681   8.359  1.00  0.00     0.051 A 
HETATM    5  C4  UNK     1      12.033   7.371   7.560  1.00  0.00     0.090 A 
HETATM    6  C5  UNK     1      12.470   9.178   9.663  1.00  0.00     0.154 A 
HETATM    7  C6  UNK     1      11.107   8.624   9.475  1.00  0.00     0.221 A 
HETATM    8  C10 UNK     1       9.689   7.102   8.099  1.00  0.00     0.018 A 
HETATM    9  C11 UNK     1      11.894   6.481   6.496  1.00  0.00     0.038 A 
HETATM   10  C14 UNK     1       9.552   6.211   7.035  1.00  0.00     0.001 A 
HETATM   11  C15 UNK     1      10.652   5.901   6.234  1.00  0.00     0.003 A 
ENDROOT
BRANCH   3  12
HETATM   12  C2  UNK     1      14.781   9.284   8.942  1.00  0.00     0.004 A 
HETATM   13  C7  UNK     1      15.155  10.453   8.279  1.00  0.00     0.054 A 
HETATM   14  C9  UNK     1      16.458  10.934   8.396  1.00  0.00     0.102 A 
HETATM   15  C12 UNK     1      17.389  10.247   9.175  1.00  0.00     0.101 A 
HETATM   16  C13 UNK     1      17.015   9.077   9.838  1.00  0.00     0.040 A 
HETATM   17  C8  UNK     1      15.712   8.596   9.721  1.00  0.00     0.017 A 
BRANCH  14  18
HETATM   18  O3  UNK     1      16.811  12.078   7.743  1.00  0.00    -0.353 OA
HETATM   19  C17 UNK     1      15.752  12.916   7.287  1.00  0.00     0.210 C 
ENDBRANCH  14  18
BRANCH  15  20
HETATM   20  O4  UNK     1      18.665  10.707   9.297  1.00  0.00    -0.353 OA
HETATM   21  C18 UNK     1      18.901  11.709  10.285  1.00  0.00     0.210 C 
ENDBRANCH  15  20
ENDBRANCH   3  12
BRANCH   6  22
HETATM   22  O2  UNK     1      12.670  10.078  10.688  1.00  0.00    -0.350 OA
HETATM   23  C16 UNK     1      12.880   9.405  11.916  1.00  0.00     0.210 C 
ENDBRANCH   6  22
TORSDOF 4
ENDMDL
MODEL 9
REMARK VINA RESULT:      -7.0      7.257     10.955
REMARK  4 active torsions:
REMARK  status: ('A' for Active; 'I' for Inactive)
REMARK    1  A    between atoms: C5_10  and  O2_2 
REMARK    2  A    between atoms: C9_14  and  O3_3 
REMARK    3  A    between atoms: C12_17  and  O4_4 
REMARK    4  A    between atoms: C1_6  and  C2_7 
ROOT
HETATM    1  O1  UNK     1      20.350  -3.223  34.394  1.00  0.00    -0.306 OA
HETATM    2  O5  UNK     1      17.477  -0.397  35.007  1.00  0.00    -0.284 OA
HETATM    3  C1  UNK     1      19.603  -3.187  35.560  1.00  0.00     0.123 A 
HETATM    4  C3  UNK     1      19.128  -1.290  33.578  1.00  0.00     0.051 A 
HETATM    5  C4  UNK     1      20.097  -2.281  33.430  1.00  0.00     0.090 A 
HETATM    6  C5  UNK     1      18.645  -2.284  35.832  1.00  0.00     0.154 A 
HETATM    7  C6  UNK     1      18.339  -1.245  34.819  1.00  0.00     0.221 A 
HETATM    8  C10 UNK     1      18.915  -0.356  32.562  1.00  0.00     0.018 A 
HETATM    9  C11 UNK     1      20.859  -2.344  32.264  1.00  0.00     0.038 A 
HETATM   10  C14 UNK     1      19.677  -0.421  31.395  1.00  0.00     0.001 A 
HETATM   11  C15 UNK     1      20.648  -1.413  31.246  1.00  0.00     0.003 A 
ENDROOT
BRANCH   3  12
HETATM   12  C2  UNK     1      19.952  -4.216  36.489  1.00  0.00     0.004 A 
HETATM   13  C7  UNK     1      19.158  -5.358  36.596  1.00  0.00     0.054 A 
HETATM   14  C9  UNK     1      19.499  -6.361  37.503  1.00  0.00     0.102 A 
HETATM   15  C12 UNK     1      20.634  -6.223  38.302  1.00  0.00     0.101 A 
HETATM   16  C13 UNK     1      21.428  -5.081  38.195  1.00  0.00     0.040 A 
HETATM   17  C8  UNK     1      21.087  -4.077  37.289  1.00  0.00     0.017 A 
BRANCH  14  18
HETATM   18  O3  UNK     1      18.716  -7.473  37.599  1.00  0.00    -0.353 OA
HETATM   19  C17 UNK     1      18.874  -8.465  36.588  1.00  0.00     0.210 C 
ENDBRANCH  14  18
BRANCH  15  20
HETATM   20  O4  UNK     1      20.978  -7.196  39.191  1.00  0.00    -0.353 OA
HETATM   21  C18 UNK     1      22.342  -7.243  39.606  1.00  0.00     0.210 C 
ENDBRANCH  15  20
ENDBRANCH   3  12
BRANCH   6  22
HETATM   22  O2  UNK     1      17.938  -2.267  37.016  1.00  0.00    -0.350 OA
HETATM   23  C16 UNK     1      18.438  -1.270  37.887  1.00  0.00     0.210 C 
ENDBRANCH   6  22
TORSDOF 4
ENDMDL
MODEL 10
REMARK VINA RESULT:      -7.0      8.051     13.197
REMARK  4 active torsions:
REMARK  status: ('A' for Active; 'I' for Inactive)
REMARK    1  A    between atoms: C5_10  and  O2_2 
REMARK    2  A    between atoms: C9_14  and  O3_3 
REMARK    3  A    between atoms: C12_17  and  O4_4 
REMARK    4  A    between atoms: C1_6  and  C2_7 
ROOT
HETATM    1  O1  UNK     1      21.232  -5.117  37.699  1.00  0.00    -0.306 OA
HETATM    2  O5  UNK     1      18.609  -8.206  38.145  1.00  0.00    -0.284 OA
HETATM    3  C1  UNK     1      19.973  -5.089  37.124  1.00  0.00     0.123 A 
HETATM    4  C3  UNK     1      20.734  -7.303  38.631  1.00  0.00     0.051 A 
HETATM    5  C4  UNK     1      21.585  -6.214  38.441  1.00  0.00     0.090 A 
HETATM    6  C5  UNK     1      19.059  -6.071  37.224  1.00  0.00     0.154 A 
HETATM    7  C6  UNK     1      19.398  -7.279  38.014  1.00  0.00     0.221 A 
HETATM    8  C10 UNK     1      21.148  -8.395  39.398  1.00  0.00     0.018 A 
HETATM    9  C11 UNK     1      22.856  -6.213  39.015  1.00  0.00     0.038 A 
HETATM   10  C14 UNK     1      22.420  -8.391  39.972  1.00  0.00     0.001 A 
HETATM   11  C15 UNK     1      23.272  -7.303  39.781  1.00  0.00     0.003 A 
ENDROOT
BRANCH   3  12
HETATM   12  C2  UNK     1      19.716  -3.897  36.377  1.00  0.00     0.004 A 
HETATM   13  C7  UNK     1      18.790  -2.966  36.847  1.00  0.00     0.054 A 
HETATM   14  C9  UNK     1      18.540  -1.803  36.119  1.00  0.00     0.102 A 
HETATM   15  C12 UNK     1      19.215  -1.571  34.920  1.00  0.00     0.101 A 
HETATM   16  C13 UNK     1      20.141  -2.503  34.450  1.00  0.00     0.040 A 
HETATM   17  C8  UNK     1      20.391  -3.666  35.178  1.00  0.00     0.017 A 
BRANCH  14  18
HETATM   18  O3  UNK     1      17.634  -0.900  36.588  1.00  0.00    -0.353 OA
HETATM   19  C17 UNK     1      17.880  -0.346  37.878  1.00  0.00     0.210 C 
ENDBRANCH  14  18
BRANCH  15  20
HETATM   20  O4  UNK     1      18.980  -0.439  34.200  1.00  0.00    -0.353 OA
HETATM   21  C18 UNK     1      18.678  -0.603  32.815  1.00  0.00     0.210 C 
ENDBRANCH  15  20
ENDBRANCH   3  12
BRANCH   6  22
HETATM   22  O2  UNK     1      17.823  -6.018  36.616  1.00  0.00    -0.350 OA
HETATM   23  C16 UNK     1      17.724  -6.986  35.589  1.00  0.00     0.210 C 
ENDBRANCH   6  22
TORSDOF 4
ENDMDL
