MODEL 1
REMARK VINA RESULT:      -8.0      0.000      0.000
REMARK  3 active torsions:
REMARK  status: ('A' for Active; 'I' for Inactive)
REMARK    1  A    between atoms: C11_15  and  N1_4 
REMARK       I    between atoms: C8_12  and  N1_4 
REMARK    2  A    between atoms: C3_7  and  C8_12 
REMARK    3  A    between atoms: C11_15  and  C12_16 
ROOT
HETATM    1  O1  UNK     1      18.161   3.029  32.825  1.00  0.00    -0.274 OA
HETATM    2  O2  UNK     1      18.371   0.830  32.239  1.00  0.00    -0.259 OA
HETATM    3  C1  UNK     1      18.536   4.757  31.156  1.00  0.00    -0.001 A 
HETATM    4  C2  UNK     1      18.217   4.388  32.459  1.00  0.00     0.089 A 
HETATM    5  C3  UNK     1      18.758   2.427  30.532  1.00  0.00     0.108 A 
HETATM    6  C4  UNK     1      18.812   3.717  30.178  1.00  0.00     0.037 A 
HETATM    7  C5  UNK     1      18.581   6.115  30.832  1.00  0.00     0.014 A 
HETATM    8  C6  UNK     1      18.420   2.011  31.911  1.00  0.00     0.304 A 
HETATM    9  C7  UNK     1      17.941   5.335  33.444  1.00  0.00     0.038 A 
HETATM   10  C9  UNK     1      18.307   7.076  31.810  1.00  0.00     0.001 A 
HETATM   11  C10 UNK     1      17.988   6.687  33.112  1.00  0.00     0.003 A 
ENDROOT
BRANCH   5  12
HETATM   12  C8  UNK     1      19.052   1.452  29.474  1.00  0.00     0.258 C 
HETATM   13  O3  UNK     1      18.427   1.462  28.415  1.00  0.00    -0.267 OA
HETATM   14  N1  UNK     1      20.067   0.576  29.816  1.00  0.00    -0.353 N 
HETATM   15  H6  UNK     1      20.511   0.640  30.727  1.00  0.00     0.163 HD
BRANCH  14  16
HETATM   16  C11 UNK     1      20.532  -0.473  28.938  1.00  0.00     0.149 C 
BRANCH  16  17
HETATM   17  C12 UNK     1      20.446  -1.780  29.652  1.00  0.00    -0.018 C 
HETATM   18  C13 UNK     1      20.129  -1.903  30.946  1.00  0.00     0.008 C 
ENDBRANCH  16  17
ENDBRANCH  14  16
ENDBRANCH   5  12
TORSDOF 3
ENDMDL
MODEL 2
REMARK VINA RESULT:      -7.7      1.502      5.935
REMARK  3 active torsions:
REMARK  status: ('A' for Active; 'I' for Inactive)
REMARK    1  A    between atoms: C11_15  and  N1_4 
REMARK       I    between atoms: C8_12  and  N1_4 
REMARK    2  A    between atoms: C3_7  and  C8_12 
REMARK    3  A    between atoms: C11_15  and  C12_16 
ROOT
HETATM    1  O1  UNK     1      18.888   0.402  32.250  1.00  0.00    -0.274 OA
HETATM    2  O2  UNK     1      17.976   2.492  32.402  1.00  0.00    -0.259 OA
HETATM    3  C1  UNK     1      19.921  -0.308  30.167  1.00  0.00    -0.001 A 
HETATM    4  C2  UNK     1      19.559  -0.571  31.484  1.00  0.00     0.089 A 
HETATM    5  C3  UNK     1      18.956   1.908  30.325  1.00  0.00     0.108 A 
HETATM    6  C4  UNK     1      19.594   0.987  29.592  1.00  0.00     0.037 A 
HETATM    7  C5  UNK     1      20.586  -1.300  29.440  1.00  0.00     0.014 A 
HETATM    8  C6  UNK     1      18.562   1.651  31.728  1.00  0.00     0.304 A 
HETATM    9  C7  UNK     1      19.842  -1.792  32.094  1.00  0.00     0.038 A 
HETATM   10  C9  UNK     1      20.876  -2.529  30.039  1.00  0.00     0.001 A 
HETATM   11  C10 UNK     1      20.506  -2.775  31.362  1.00  0.00     0.003 A 
ENDROOT
BRANCH   5  12
HETATM   12  C8  UNK     1      18.671   3.184  29.657  1.00  0.00     0.258 C 
HETATM   13  O3  UNK     1      17.994   3.222  28.631  1.00  0.00    -0.267 OA
HETATM   14  N1  UNK     1      19.238   4.268  30.303  1.00  0.00    -0.353 N 
HETATM   15  H6  UNK     1      19.797   4.130  31.138  1.00  0.00     0.163 HD
BRANCH  14  16
HETATM   16  C11 UNK     1      19.097   5.627  29.832  1.00  0.00     0.149 C 
BRANCH  16  17
HETATM   17  C12 UNK     1      18.727   6.505  30.981  1.00  0.00    -0.018 C 
HETATM   18  C13 UNK     1      19.202   6.348  32.222  1.00  0.00     0.008 C 
ENDBRANCH  16  17
ENDBRANCH  14  16
ENDBRANCH   5  12
TORSDOF 3
ENDMDL
MODEL 3
REMARK VINA RESULT:      -7.6      1.671      6.267
REMARK  3 active torsions:
REMARK  status: ('A' for Active; 'I' for Inactive)
REMARK    1  A    between atoms: C11_15  and  N1_4 
REMARK       I    between atoms: C8_12  and  N1_4 
REMARK    2  A    between atoms: C3_7  and  C8_12 
REMARK    3  A    between atoms: C11_15  and  C12_16 
ROOT
HETATM    1  O1  UNK     1      19.013   1.285  28.612  1.00  0.00    -0.274 OA
HETATM    2  O2  UNK     1      18.170   3.409  28.573  1.00  0.00    -0.259 OA
HETATM    3  C1  UNK     1      19.578   0.258  30.741  1.00  0.00    -0.001 A 
HETATM    4  C2  UNK     1      19.502   0.192  29.354  1.00  0.00     0.089 A 
HETATM    5  C3  UNK     1      18.685   2.509  30.703  1.00  0.00     0.108 A 
HETATM    6  C4  UNK     1      19.148   1.473  31.414  1.00  0.00     0.037 A 
HETATM    7  C5  UNK     1      20.069  -0.848  31.442  1.00  0.00     0.014 A 
HETATM    8  C6  UNK     1      18.593   2.461  29.227  1.00  0.00     0.304 A 
HETATM    9  C7  UNK     1      19.898  -0.943  28.649  1.00  0.00     0.038 A 
HETATM   10  C9  UNK     1      20.470  -1.993  30.749  1.00  0.00     0.001 A 
HETATM   11  C10 UNK     1      20.385  -2.041  29.356  1.00  0.00     0.003 A 
ENDROOT
BRANCH   5  12
HETATM   12  C8  UNK     1      18.274   3.690  31.472  1.00  0.00     0.258 C 
HETATM   13  O3  UNK     1      17.596   3.575  32.492  1.00  0.00    -0.267 OA
HETATM   14  N1  UNK     1      18.727   4.875  30.921  1.00  0.00    -0.353 N 
HETATM   15  H6  UNK     1      19.268   4.865  30.062  1.00  0.00     0.163 HD
BRANCH  14  16
HETATM   16  C11 UNK     1      18.448   6.170  31.498  1.00  0.00     0.149 C 
BRANCH  16  17
HETATM   17  C12 UNK     1      19.611   6.593  32.332  1.00  0.00    -0.018 C 
HETATM   18  C13 UNK     1      19.759   6.274  33.622  1.00  0.00     0.008 C 
ENDBRANCH  16  17
ENDBRANCH  14  16
ENDBRANCH   5  12
TORSDOF 3
ENDMDL
MODEL 4
REMARK VINA RESULT:      -7.5      3.487      6.646
REMARK  3 active torsions:
REMARK  status: ('A' for Active; 'I' for Inactive)
REMARK    1  A    between atoms: C11_15  and  N1_4 
REMARK       I    between atoms: C8_12  and  N1_4 
REMARK    2  A    between atoms: C3_7  and  C8_12 
REMARK    3  A    between atoms: C11_15  and  C12_16 
ROOT
HETATM    1  O1  UNK     1      18.804   1.311  31.472  1.00  0.00    -0.274 OA
HETATM    2  O2  UNK     1      17.789   2.211  33.311  1.00  0.00    -0.259 OA
HETATM    3  C1  UNK     1      19.530  -1.009  31.517  1.00  0.00    -0.001 A 
HETATM    4  C2  UNK     1      19.407   0.203  30.845  1.00  0.00     0.089 A 
HETATM    5  C3  UNK     1      18.454  -0.058  33.468  1.00  0.00     0.108 A 
HETATM    6  C4  UNK     1      19.026  -1.114  32.877  1.00  0.00     0.037 A 
HETATM    7  C5  UNK     1      20.134  -2.085  30.860  1.00  0.00     0.014 A 
HETATM    8  C6  UNK     1      18.312   1.241  32.773  1.00  0.00     0.304 A 
HETATM    9  C7  UNK     1      19.868   0.370  29.541  1.00  0.00     0.038 A 
HETATM   10  C9  UNK     1      20.602  -1.932  29.552  1.00  0.00     0.001 A 
HETATM   11  C10 UNK     1      20.469  -0.708  28.894  1.00  0.00     0.003 A 
ENDROOT
BRANCH   5  12
HETATM   12  C8  UNK     1      17.977  -0.263  34.841  1.00  0.00     0.258 C 
HETATM   13  O3  UNK     1      18.632  -0.925  35.645  1.00  0.00    -0.267 OA
HETATM   14  N1  UNK     1      16.763   0.353  35.087  1.00  0.00    -0.353 N 
HETATM   15  H6  UNK     1      16.291   0.864  34.348  1.00  0.00     0.163 HD
BRANCH  14  16
HETATM   16  C11 UNK     1      16.093   0.290  36.366  1.00  0.00     0.149 C 
BRANCH  16  17
HETATM   17  C12 UNK     1      16.604   1.388  37.238  1.00  0.00    -0.018 C 
HETATM   18  C13 UNK     1      17.547   1.220  38.172  1.00  0.00     0.008 C 
ENDBRANCH  16  17
ENDBRANCH  14  16
ENDBRANCH   5  12
TORSDOF 3
ENDMDL
MODEL 5
REMARK VINA RESULT:      -7.4      1.844      5.884
REMARK  3 active torsions:
REMARK  status: ('A' for Active; 'I' for Inactive)
REMARK    1  A    between atoms: C11_15  and  N1_4 
REMARK       I    between atoms: C8_12  and  N1_4 
REMARK    2  A    between atoms: C3_7  and  C8_12 
REMARK    3  A    between atoms: C11_15  and  C12_16 
ROOT
HETATM    1  O1  UNK     1      18.794   0.267  32.648  1.00  0.00    -0.274 OA
HETATM    2  O2  UNK     1      17.915   2.092  33.707  1.00  0.00    -0.259 OA
HETATM    3  C1  UNK     1      19.601   0.478  30.364  1.00  0.00    -0.001 A 
HETATM    4  C2  UNK     1      19.376  -0.298  31.497  1.00  0.00     0.089 A 
HETATM    5  C3  UNK     1      18.670   2.414  31.484  1.00  0.00     0.108 A 
HETATM    6  C4  UNK     1      19.223   1.882  30.387  1.00  0.00     0.037 A 
HETATM    7  C5  UNK     1      20.181  -0.119  29.242  1.00  0.00     0.014 A 
HETATM    8  C6  UNK     1      18.422   1.608  32.700  1.00  0.00     0.304 A 
HETATM    9  C7  UNK     1      19.714  -1.649  31.540  1.00  0.00     0.038 A 
HETATM   10  C9  UNK     1      20.525  -1.474  29.271  1.00  0.00     0.001 A 
HETATM   11  C10 UNK     1      20.292  -2.237  30.416  1.00  0.00     0.003 A 
ENDROOT
BRANCH   5  12
HETATM   12  C8  UNK     1      18.325   3.839  31.410  1.00  0.00     0.258 C 
HETATM   13  O3  UNK     1      17.202   4.233  31.720  1.00  0.00    -0.267 OA
HETATM   14  N1  UNK     1      19.374   4.625  30.970  1.00  0.00    -0.353 N 
HETATM   15  H6  UNK     1      20.262   4.200  30.721  1.00  0.00     0.163 HD
BRANCH  14  16
HETATM   16  C11 UNK     1      19.274   6.059  30.814  1.00  0.00     0.149 C 
BRANCH  16  17
HETATM   17  C12 UNK     1      19.414   6.705  32.152  1.00  0.00    -0.018 C 
HETATM   18  C13 UNK     1      20.475   6.543  32.950  1.00  0.00     0.008 C 
ENDBRANCH  16  17
ENDBRANCH  14  16
ENDBRANCH   5  12
TORSDOF 3
ENDMDL
MODEL 6
REMARK VINA RESULT:      -7.1     22.572     24.121
REMARK  3 active torsions:
REMARK  status: ('A' for Active; 'I' for Inactive)
REMARK    1  A    between atoms: C11_15  and  N1_4 
REMARK       I    between atoms: C8_12  and  N1_4 
REMARK    2  A    between atoms: C3_7  and  C8_12 
REMARK    3  A    between atoms: C11_15  and  C12_16 
ROOT
HETATM    1  O1  UNK     1      11.170   7.188   9.474  1.00  0.00    -0.274 OA
HETATM    2  O2  UNK     1      12.893   7.438  10.955  1.00  0.00    -0.259 OA
HETATM    3  C1  UNK     1      11.622   6.339   7.241  1.00  0.00    -0.001 A 
HETATM    4  C2  UNK     1      10.724   6.811   8.193  1.00  0.00     0.089 A 
HETATM    5  C3  UNK     1      13.450   6.603   8.809  1.00  0.00     0.108 A 
HETATM    6  C4  UNK     1      13.031   6.243   7.590  1.00  0.00     0.037 A 
HETATM    7  C5  UNK     1      11.139   5.975   5.981  1.00  0.00     0.014 A 
HETATM    8  C6  UNK     1      12.513   7.107   9.838  1.00  0.00     0.304 A 
HETATM    9  C7  UNK     1       9.361   6.927   7.923  1.00  0.00     0.038 A 
HETATM   10  C9  UNK     1       9.776   6.087   5.696  1.00  0.00     0.001 A 
HETATM   11  C10 UNK     1       8.889   6.562   6.664  1.00  0.00     0.003 A 
ENDROOT
BRANCH   5  12
HETATM   12  C8  UNK     1      14.889   6.469   9.065  1.00  0.00     0.258 C 
HETATM   13  O3  UNK     1      15.507   5.473   8.692  1.00  0.00    -0.267 OA
HETATM   14  N1  UNK     1      15.419   7.553   9.743  1.00  0.00    -0.353 N 
HETATM   15  H6  UNK     1      14.819   8.323  10.023  1.00  0.00     0.163 HD
BRANCH  14  16
HETATM   16  C11 UNK     1      16.813   7.648  10.109  1.00  0.00     0.149 C 
BRANCH  16  17
HETATM   17  C12 UNK     1      17.304   9.024   9.804  1.00  0.00    -0.018 C 
HETATM   18  C13 UNK     1      16.551   9.976   9.241  1.00  0.00     0.008 C 
ENDBRANCH  16  17
ENDBRANCH  14  16
ENDBRANCH   5  12
TORSDOF 3
ENDMDL
MODEL 7
REMARK VINA RESULT:      -7.1      2.888      4.468
REMARK  3 active torsions:
REMARK  status: ('A' for Active; 'I' for Inactive)
REMARK    1  A    between atoms: C11_15  and  N1_4 
REMARK       I    between atoms: C8_12  and  N1_4 
REMARK    2  A    between atoms: C3_7  and  C8_12 
REMARK    3  A    between atoms: C11_15  and  C12_16 
ROOT
HETATM    1  O1  UNK     1      18.937   2.526  30.639  1.00  0.00    -0.274 OA
HETATM    2  O2  UNK     1      18.865   0.343  31.311  1.00  0.00    -0.259 OA
HETATM    3  C1  UNK     1      18.372   4.287  32.217  1.00  0.00    -0.001 A 
HETATM    4  C2  UNK     1      18.768   3.891  30.943  1.00  0.00     0.089 A 
HETATM    5  C3  UNK     1      18.295   1.975  32.933  1.00  0.00     0.108 A 
HETATM    6  C4  UNK     1      18.133   3.270  33.228  1.00  0.00     0.037 A 
HETATM    7  C5  UNK     1      18.216   5.651  32.480  1.00  0.00     0.014 A 
HETATM    8  C6  UNK     1      18.717   1.529  31.586  1.00  0.00     0.304 A 
HETATM    9  C7  UNK     1      19.013   4.815  29.929  1.00  0.00     0.038 A 
HETATM   10  C9  UNK     1      18.458   6.589  31.472  1.00  0.00     0.001 A 
HETATM   11  C10 UNK     1      18.855   6.173  30.201  1.00  0.00     0.003 A 
ENDROOT
BRANCH   5  12
HETATM   12  C8  UNK     1      18.031   1.024  34.020  1.00  0.00     0.258 C 
HETATM   13  O3  UNK     1      18.956   0.488  34.628  1.00  0.00    -0.267 OA
HETATM   14  N1  UNK     1      16.681   0.828  34.248  1.00  0.00    -0.353 N 
HETATM   15  H6  UNK     1      15.991   1.307  33.677  1.00  0.00     0.163 HD
BRANCH  14  16
HETATM   16  C11 UNK     1      16.175  -0.064  35.266  1.00  0.00     0.149 C 
BRANCH  16  17
HETATM   17  C12 UNK     1      16.041   0.687  36.549  1.00  0.00    -0.018 C 
HETATM   18  C13 UNK     1      16.979   0.703  37.504  1.00  0.00     0.008 C 
ENDBRANCH  16  17
ENDBRANCH  14  16
ENDBRANCH   5  12
TORSDOF 3
ENDMDL
MODEL 8
REMARK VINA RESULT:      -7.1      5.969      7.716
REMARK  3 active torsions:
REMARK  status: ('A' for Active; 'I' for Inactive)
REMARK    1  A    between atoms: C11_15  and  N1_4 
REMARK       I    between atoms: C8_12  and  N1_4 
REMARK    2  A    between atoms: C3_7  and  C8_12 
REMARK    3  A    between atoms: C11_15  and  C12_16 
ROOT
HETATM    1  O1  UNK     1      19.578  -0.861  34.819  1.00  0.00    -0.274 OA
HETATM    2  O2  UNK     1      20.606  -2.802  34.186  1.00  0.00    -0.259 OA
HETATM    3  C1  UNK     1      18.427  -0.756  36.957  1.00  0.00    -0.001 A 
HETATM    4  C2  UNK     1      18.825  -0.148  35.771  1.00  0.00     0.089 A 
HETATM    5  C3  UNK     1      19.516  -2.814  36.290  1.00  0.00     0.108 A 
HETATM    6  C4  UNK     1      18.800  -2.140  37.198  1.00  0.00     0.037 A 
HETATM    7  C5  UNK     1      17.681  -0.014  37.877  1.00  0.00     0.014 A 
HETATM    8  C6  UNK     1      19.951  -2.188  35.021  1.00  0.00     0.304 A 
HETATM    9  C7  UNK     1      18.501   1.176  35.478  1.00  0.00     0.038 A 
HETATM   10  C9  UNK     1      17.348   1.314  37.597  1.00  0.00     0.001 A 
HETATM   11  C10 UNK     1      17.756   1.908  36.401  1.00  0.00     0.003 A 
ENDROOT
BRANCH   5  12
HETATM   12  C8  UNK     1      19.843  -4.205  36.624  1.00  0.00     0.258 C 
HETATM   13  O3  UNK     1      20.977  -4.518  36.984  1.00  0.00    -0.267 OA
HETATM   14  N1  UNK     1      18.765  -5.061  36.485  1.00  0.00    -0.353 N 
HETATM   15  H6  UNK     1      17.870  -4.706  36.163  1.00  0.00     0.163 HD
BRANCH  14  16
HETATM   16  C11 UNK     1      18.844  -6.478  36.755  1.00  0.00     0.149 C 
BRANCH  16  17
HETATM   17  C12 UNK     1      19.048  -7.209  35.470  1.00  0.00    -0.018 C 
HETATM   18  C13 UNK     1      20.235  -7.337  34.866  1.00  0.00     0.008 C 
ENDBRANCH  16  17
ENDBRANCH  14  16
ENDBRANCH   5  12
TORSDOF 3
ENDMDL
MODEL 9
REMARK VINA RESULT:      -7.1      3.357      6.354
REMARK  3 active torsions:
REMARK  status: ('A' for Active; 'I' for Inactive)
REMARK    1  A    between atoms: C11_15  and  N1_4 
REMARK       I    between atoms: C8_12  and  N1_4 
REMARK    2  A    between atoms: C3_7  and  C8_12 
REMARK    3  A    between atoms: C11_15  and  C12_16 
ROOT
HETATM    1  O1  UNK     1      18.893   1.463  31.255  1.00  0.00    -0.274 OA
HETATM    2  O2  UNK     1      17.728   2.608  32.854  1.00  0.00    -0.259 OA
HETATM    3  C1  UNK     1      19.424  -0.883  31.606  1.00  0.00    -0.001 A 
HETATM    4  C2  UNK     1      19.482   0.261  30.817  1.00  0.00     0.089 A 
HETATM    5  C3  UNK     1      18.190   0.327  33.303  1.00  0.00     0.108 A 
HETATM    6  C4  UNK     1      18.748  -0.818  32.892  1.00  0.00     0.037 A 
HETATM    7  C5  UNK     1      20.021  -2.056  31.136  1.00  0.00     0.014 A 
HETATM    8  C6  UNK     1      18.238   1.556  32.480  1.00  0.00     0.304 A 
HETATM    9  C7  UNK     1      20.115   0.266  29.575  1.00  0.00     0.038 A 
HETATM   10  C9  UNK     1      20.660  -2.066  29.893  1.00  0.00     0.001 A 
HETATM   11  C10 UNK     1      20.707  -0.908  29.115  1.00  0.00     0.003 A 
ENDROOT
BRANCH   5  12
HETATM   12  C8  UNK     1      17.530   0.292  34.614  1.00  0.00     0.258 C 
HETATM   13  O3  UNK     1      16.303   0.282  34.702  1.00  0.00    -0.267 OA
HETATM   14  N1  UNK     1      18.425   0.276  35.668  1.00  0.00    -0.353 N 
HETATM   15  H6  UNK     1      19.424   0.305  35.490  1.00  0.00     0.163 HD
BRANCH  14  16
HETATM   16  C11 UNK     1      18.012   0.244  37.052  1.00  0.00     0.149 C 
BRANCH  16  17
HETATM   17  C12 UNK     1      17.951  -1.176  37.509  1.00  0.00    -0.018 C 
HETATM   18  C13 UNK     1      18.833  -2.114  37.147  1.00  0.00     0.008 C 
ENDBRANCH  16  17
ENDBRANCH  14  16
ENDBRANCH   5  12
TORSDOF 3
ENDMDL
MODEL 10
REMARK VINA RESULT:      -6.9     13.167     15.278
REMARK  3 active torsions:
REMARK  status: ('A' for Active; 'I' for Inactive)
REMARK    1  A    between atoms: C11_15  and  N1_4 
REMARK       I    between atoms: C8_12  and  N1_4 
REMARK    2  A    between atoms: C3_7  and  C8_12 
REMARK    3  A    between atoms: C11_15  and  C12_16 
ROOT
HETATM    1  O1  UNK     1      19.277   1.044  15.351  1.00  0.00    -0.274 OA
HETATM    2  O2  UNK     1      19.258  -0.556  13.719  1.00  0.00    -0.259 OA
HETATM    3  C1  UNK     1      18.933   0.398  17.669  1.00  0.00    -0.001 A 
HETATM    4  C2  UNK     1      19.165   1.382  16.713  1.00  0.00     0.089 A 
HETATM    5  C3  UNK     1      18.913  -1.300  15.942  1.00  0.00     0.108 A 
HETATM    6  C4  UNK     1      18.806  -0.985  17.238  1.00  0.00     0.037 A 
HETATM    7  C5  UNK     1      18.829   0.774  19.011  1.00  0.00     0.014 A 
HETATM    8  C6  UNK     1      19.160  -0.271  14.908  1.00  0.00     0.304 A 
HETATM    9  C7  UNK     1      19.297   2.726  17.059  1.00  0.00     0.038 A 
HETATM   10  C9  UNK     1      18.958   2.117  19.373  1.00  0.00     0.001 A 
HETATM   11  C10 UNK     1      19.192   3.091  18.400  1.00  0.00     0.003 A 
ENDROOT
BRANCH   5  12
HETATM   12  C8  UNK     1      18.771  -2.722  15.607  1.00  0.00     0.258 C 
HETATM   13  O3  UNK     1      17.697  -3.303  15.760  1.00  0.00    -0.267 OA
HETATM   14  N1  UNK     1      19.941  -3.282  15.126  1.00  0.00    -0.353 N 
HETATM   15  H6  UNK     1      20.783  -2.721  15.052  1.00  0.00     0.163 HD
BRANCH  14  16
HETATM   16  C11 UNK     1      20.047  -4.668  14.731  1.00  0.00     0.149 C 
BRANCH  16  17
HETATM   17  C12 UNK     1      21.159  -5.308  15.492  1.00  0.00    -0.018 C 
HETATM   18  C13 UNK     1      22.066  -4.626  16.201  1.00  0.00     0.008 C 
ENDBRANCH  16  17
ENDBRANCH  14  16
ENDBRANCH   5  12
TORSDOF 3
ENDMDL
