MODEL 1
REMARK VINA RESULT:     -10.5      0.000      0.000
REMARK  2 active torsions:
REMARK  status: ('A' for Active; 'I' for Inactive)
REMARK       I    between atoms: C6_12  and  N1_5 
REMARK    1  A    between atoms: C9_15  and  N1_5 
REMARK    2  A    between atoms: C3_9  and  C6_12 
ROOT
HETATM    1  N2  UNK     1      19.120   2.787  15.679  1.00  0.00    -0.191 NA
HETATM    2  C9  UNK     1      19.190   0.270  18.146  1.00  0.00     0.055 A 
HETATM    3  C12 UNK     1      19.176   1.658  18.012  1.00  0.00     0.071 A 
HETATM    4  C13 UNK     1      19.221  -0.309  19.415  1.00  0.00     0.031 A 
HETATM    5  C14 UNK     1      19.194   2.468  19.148  1.00  0.00     0.025 A 
HETATM    6  C15 UNK     1      19.238   0.501  20.551  1.00  0.00     0.002 A 
HETATM    7  C16 UNK     1      19.226   1.889  20.417  1.00  0.00     0.002 A 
HETATM    8  C17 UNK     1      19.145   2.281  16.723  1.00  0.00     0.102 C 
ENDROOT
BRANCH   2   9
HETATM    9  N1  UNK     1      19.173  -0.580  17.012  1.00  0.00    -0.321 N 
HETATM   10  C6  UNK     1      18.141  -1.407  16.590  1.00  0.00     0.262 C 
HETATM   11  O2  UNK     1      17.038  -1.571  17.108  1.00  0.00    -0.267 OA
HETATM   12  H4  UNK     1      20.018  -0.572  16.448  1.00  0.00     0.169 HD
BRANCH  10  13
HETATM   13  C3  UNK     1      18.486  -2.141  15.367  1.00  0.00     0.108 A 
HETATM   14  C4  UNK     1      18.161  -3.439  15.343  1.00  0.00     0.037 A 
HETATM   15  C1  UNK     1      18.462  -4.249  14.173  1.00  0.00     0.001 A 
HETATM   16  C2  UNK     1      19.091  -3.653  13.085  1.00  0.00     0.089 A 
HETATM   17  C5  UNK     1      18.140  -5.608  14.106  1.00  0.00     0.038 A 
HETATM   18  O1  UNK     1      19.430  -2.287  13.116  1.00  0.00    -0.274 OA
HETATM   19  C8  UNK     1      19.407  -4.374  11.936  1.00  0.00     0.040 A 
HETATM   20  C7  UNK     1      19.155  -1.485  14.220  1.00  0.00     0.304 A 
HETATM   21  O3  UNK     1      19.454  -0.296  14.237  1.00  0.00    -0.259 OA
HETATM   22  C11 UNK     1      19.083  -5.728  11.876  1.00  0.00     0.026 A 
HETATM   23  C10 UNK     1      18.452  -6.344  12.959  1.00  0.00     0.035 A 
HETATM   24 Cl1  UNK     1      18.054  -8.017  12.881  1.00  0.00    -0.084 Cl
ENDBRANCH  10  13
ENDBRANCH   2   9
TORSDOF 2
ENDMDL
MODEL 2
REMARK VINA RESULT:      -9.4     19.281     21.452
REMARK  2 active torsions:
REMARK  status: ('A' for Active; 'I' for Inactive)
REMARK       I    between atoms: C6_12  and  N1_5 
REMARK    1  A    between atoms: C9_15  and  N1_5 
REMARK    2  A    between atoms: C3_9  and  C6_12 
ROOT
HETATM    1  N2  UNK     1      20.806  -6.966  33.274  1.00  0.00    -0.191 NA
HETATM    2  C9  UNK     1      19.451  -6.728  36.519  1.00  0.00     0.055 A 
HETATM    3  C12 UNK     1      19.994  -7.660  35.636  1.00  0.00     0.071 A 
HETATM    4  C13 UNK     1      19.021  -7.132  37.783  1.00  0.00     0.031 A 
HETATM    5  C14 UNK     1      20.108  -8.998  36.017  1.00  0.00     0.025 A 
HETATM    6  C15 UNK     1      19.136  -8.468  38.165  1.00  0.00     0.002 A 
HETATM    7  C16 UNK     1      19.678  -9.401  37.282  1.00  0.00     0.002 A 
HETATM    8  C17 UNK     1      20.443  -7.276  34.331  1.00  0.00     0.102 C 
ENDROOT
BRANCH   2   9
HETATM    9  N1  UNK     1      19.321  -5.363  36.161  1.00  0.00    -0.321 N 
HETATM   10  C6  UNK     1      20.172  -4.317  36.492  1.00  0.00     0.262 C 
HETATM   11  O2  UNK     1      21.206  -4.360  37.156  1.00  0.00    -0.267 OA
HETATM   12  H4  UNK     1      18.509  -5.135  35.595  1.00  0.00     0.169 HD
BRANCH  10  13
HETATM   13  C3  UNK     1      19.715  -3.036  35.941  1.00  0.00     0.108 A 
HETATM   14  C4  UNK     1      18.959  -2.281  36.746  1.00  0.00     0.037 A 
HETATM   15  C1  UNK     1      18.458  -0.994  36.289  1.00  0.00     0.001 A 
HETATM   16  C2  UNK     1      18.778  -0.565  35.005  1.00  0.00     0.089 A 
HETATM   17  C5  UNK     1      17.667  -0.174  37.097  1.00  0.00     0.038 A 
HETATM   18  O1  UNK     1      19.574  -1.365  34.162  1.00  0.00    -0.274 OA
HETATM   19  C8  UNK     1      18.329   0.656  34.506  1.00  0.00     0.040 A 
HETATM   20  C7  UNK     1      20.068  -2.600  34.571  1.00  0.00     0.304 A 
HETATM   21  O3  UNK     1      20.761  -3.289  33.829  1.00  0.00    -0.259 OA
HETATM   22  C11 UNK     1      17.541   1.469  35.318  1.00  0.00     0.026 A 
HETATM   23  C10 UNK     1      17.209   1.054  36.610  1.00  0.00     0.035 A 
HETATM   24 Cl1  UNK     1      16.233   2.062  37.609  1.00  0.00    -0.084 Cl
ENDBRANCH  10  13
ENDBRANCH   2   9
TORSDOF 2
ENDMDL
MODEL 3
REMARK VINA RESULT:      -9.3     19.649     22.004
REMARK  2 active torsions:
REMARK  status: ('A' for Active; 'I' for Inactive)
REMARK       I    between atoms: C6_12  and  N1_5 
REMARK    1  A    between atoms: C9_15  and  N1_5 
REMARK    2  A    between atoms: C3_9  and  C6_12 
ROOT
HETATM    1  N2  UNK     1      17.438  -7.465  34.916  1.00  0.00    -0.191 NA
HETATM    2  C9  UNK     1      19.337  -6.498  37.724  1.00  0.00     0.055 A 
HETATM    3  C12 UNK     1      18.766  -7.626  37.137  1.00  0.00     0.071 A 
HETATM    4  C13 UNK     1      20.045  -6.616  38.921  1.00  0.00     0.031 A 
HETATM    5  C14 UNK     1      18.903  -8.874  37.746  1.00  0.00     0.025 A 
HETATM    6  C15 UNK     1      20.182  -7.864  39.529  1.00  0.00     0.002 A 
HETATM    7  C16 UNK     1      19.611  -8.992  38.943  1.00  0.00     0.002 A 
HETATM    8  C17 UNK     1      18.032  -7.536  35.910  1.00  0.00     0.102 C 
ENDROOT
BRANCH   2   9
HETATM    9  N1  UNK     1      19.215  -5.217  37.130  1.00  0.00    -0.321 N 
HETATM   10  C6  UNK     1      20.233  -4.317  36.842  1.00  0.00     0.262 C 
HETATM   11  O2  UNK     1      21.439  -4.447  37.040  1.00  0.00    -0.267 OA
HETATM   12  H4  UNK     1      18.269  -4.936  36.889  1.00  0.00     0.169 HD
BRANCH  10  13
HETATM   13  C3  UNK     1      19.725  -3.087  36.225  1.00  0.00     0.108 A 
HETATM   14  C4  UNK     1      18.997  -2.286  37.012  1.00  0.00     0.037 A 
HETATM   15  C1  UNK     1      18.451  -1.044  36.489  1.00  0.00     0.001 A 
HETATM   16  C2  UNK     1      18.698  -0.705  35.163  1.00  0.00     0.089 A 
HETATM   17  C5  UNK     1      17.686  -0.178  37.276  1.00  0.00     0.038 A 
HETATM   18  O1  UNK     1      19.464  -1.551  34.340  1.00  0.00    -0.274 OA
HETATM   19  C8  UNK     1      18.202   0.471  34.602  1.00  0.00     0.040 A 
HETATM   20  C7  UNK     1      20.001  -2.746  34.810  1.00  0.00     0.304 A 
HETATM   21  O3  UNK     1      20.668  -3.477  34.085  1.00  0.00    -0.259 OA
HETATM   22  C11 UNK     1      17.441   1.329  35.392  1.00  0.00     0.026 A 
HETATM   23  C10 UNK     1      17.182   1.005  36.726  1.00  0.00     0.035 A 
HETATM   24 Cl1  UNK     1      16.239   2.068  37.699  1.00  0.00    -0.084 Cl
ENDBRANCH  10  13
ENDBRANCH   2   9
TORSDOF 2
ENDMDL
MODEL 4
REMARK VINA RESULT:      -9.1     14.021     16.470
REMARK  2 active torsions:
REMARK  status: ('A' for Active; 'I' for Inactive)
REMARK       I    between atoms: C6_12  and  N1_5 
REMARK    1  A    between atoms: C9_15  and  N1_5 
REMARK    2  A    between atoms: C3_9  and  C6_12 
ROOT
HETATM    1  N2  UNK     1      21.468   6.202  32.726  1.00  0.00    -0.191 NA
HETATM    2  C9  UNK     1      18.007   6.132  32.065  1.00  0.00     0.055 A 
HETATM    3  C12 UNK     1      18.981   6.930  32.663  1.00  0.00     0.071 A 
HETATM    4  C13 UNK     1      16.676   6.550  32.048  1.00  0.00     0.031 A 
HETATM    5  C14 UNK     1      18.625   8.148  33.243  1.00  0.00     0.025 A 
HETATM    6  C15 UNK     1      16.320   7.768  32.627  1.00  0.00     0.002 A 
HETATM    7  C16 UNK     1      17.294   8.566  33.225  1.00  0.00     0.002 A 
HETATM    8  C17 UNK     1      20.355   6.527  32.698  1.00  0.00     0.102 C 
ENDROOT
BRANCH   2   9
HETATM    9  N1  UNK     1      18.337   4.890  31.468  1.00  0.00    -0.321 N 
HETATM   10  C6  UNK     1      18.157   3.620  32.001  1.00  0.00     0.262 C 
HETATM   11  O2  UNK     1      17.677   3.315  33.091  1.00  0.00    -0.267 OA
HETATM   12  H4  UNK     1      18.750   4.947  30.541  1.00  0.00     0.169 HD
BRANCH  10  13
HETATM   13  C3  UNK     1      18.618   2.567  31.089  1.00  0.00     0.108 A 
HETATM   14  C4  UNK     1      19.047   1.435  31.660  1.00  0.00     0.037 A 
HETATM   15  C1  UNK     1      19.524   0.334  30.838  1.00  0.00     0.001 A 
HETATM   16  C2  UNK     1      19.526   0.478  29.455  1.00  0.00     0.089 A 
HETATM   17  C5  UNK     1      19.979  -0.865  31.392  1.00  0.00     0.038 A 
HETATM   18  O1  UNK     1      19.075   1.672  28.860  1.00  0.00    -0.274 OA
HETATM   19  C8  UNK     1      19.971  -0.538  28.612  1.00  0.00     0.040 A 
HETATM   20  C7  UNK     1      18.612   2.743  29.619  1.00  0.00     0.304 A 
HETATM   21  O3  UNK     1      18.220   3.779  29.091  1.00  0.00    -0.259 OA
HETATM   22  C11 UNK     1      20.424  -1.731  29.171  1.00  0.00     0.026 A 
HETATM   23  C10 UNK     1      20.428  -1.894  30.559  1.00  0.00     0.035 A 
HETATM   24 Cl1  UNK     1      20.990  -3.370  31.246  1.00  0.00    -0.084 Cl
ENDBRANCH  10  13
ENDBRANCH   2   9
TORSDOF 2
ENDMDL
MODEL 5
REMARK VINA RESULT:      -8.8     19.628     21.785
REMARK  2 active torsions:
REMARK  status: ('A' for Active; 'I' for Inactive)
REMARK       I    between atoms: C6_12  and  N1_5 
REMARK    1  A    between atoms: C9_15  and  N1_5 
REMARK    2  A    between atoms: C3_9  and  C6_12 
ROOT
HETATM    1  N2  UNK     1      20.876  -2.484  33.777  1.00  0.00    -0.191 NA
HETATM    2  C9  UNK     1      18.720  -2.387  36.565  1.00  0.00     0.055 A 
HETATM    3  C12 UNK     1      19.286  -1.553  35.602  1.00  0.00     0.071 A 
HETATM    4  C13 UNK     1      17.869  -1.857  37.535  1.00  0.00     0.031 A 
HETATM    5  C14 UNK     1      19.000  -0.187  35.608  1.00  0.00     0.025 A 
HETATM    6  C15 UNK     1      17.583  -0.492  37.541  1.00  0.00     0.002 A 
HETATM    7  C16 UNK     1      18.149   0.343  36.579  1.00  0.00     0.002 A 
HETATM    8  C17 UNK     1      20.164  -2.068  34.594  1.00  0.00     0.102 C 
ENDROOT
BRANCH   2   9
HETATM    9  N1  UNK     1      18.990  -3.778  36.585  1.00  0.00    -0.321 N 
HETATM   10  C6  UNK     1      20.051  -4.426  37.204  1.00  0.00     0.262 C 
HETATM   11  O2  UNK     1      20.966  -3.928  37.858  1.00  0.00    -0.267 OA
HETATM   12  H4  UNK     1      18.321  -4.360  36.088  1.00  0.00     0.169 HD
BRANCH  10  13
HETATM   13  C3  UNK     1      20.002  -5.879  37.010  1.00  0.00     0.108 A 
HETATM   14  C4  UNK     1      19.818  -6.617  38.111  1.00  0.00     0.037 A 
HETATM   15  C1  UNK     1      19.755  -8.067  38.019  1.00  0.00     0.001 A 
HETATM   16  C2  UNK     1      19.889  -8.670  36.773  1.00  0.00     0.089 A 
HETATM   17  C5  UNK     1      19.563  -8.876  39.143  1.00  0.00     0.038 A 
HETATM   18  O1  UNK     1      20.083  -7.888  35.618  1.00  0.00    -0.274 OA
HETATM   19  C8  UNK     1      19.839 -10.054  36.618  1.00  0.00     0.040 A 
HETATM   20  C7  UNK     1      20.147  -6.499  35.673  1.00  0.00     0.304 A 
HETATM   21  O3  UNK     1      20.315  -5.826  34.662  1.00  0.00    -0.259 OA
HETATM   22  C11 UNK     1      19.647 -10.854  37.742  1.00  0.00     0.026 A 
HETATM   23  C10 UNK     1      19.511 -10.267  39.003  1.00  0.00     0.035 A 
HETATM   24 Cl1  UNK     1      19.276 -11.259  40.390  1.00  0.00    -0.084 Cl
ENDBRANCH  10  13
ENDBRANCH   2   9
TORSDOF 2
ENDMDL
MODEL 6
REMARK VINA RESULT:      -8.8     19.746     21.427
REMARK  2 active torsions:
REMARK  status: ('A' for Active; 'I' for Inactive)
REMARK       I    between atoms: C6_12  and  N1_5 
REMARK    1  A    between atoms: C9_15  and  N1_5 
REMARK    2  A    between atoms: C3_9  and  C6_12 
ROOT
HETATM    1  N2  UNK     1      20.791  -2.674  33.718  1.00  0.00    -0.191 NA
HETATM    2  C9  UNK     1      18.687  -2.475  36.539  1.00  0.00     0.055 A 
HETATM    3  C12 UNK     1      19.252  -1.673  35.548  1.00  0.00     0.071 A 
HETATM    4  C13 UNK     1      17.863  -1.907  37.512  1.00  0.00     0.031 A 
HETATM    5  C14 UNK     1      18.992  -0.302  35.529  1.00  0.00     0.025 A 
HETATM    6  C15 UNK     1      17.603  -0.537  37.492  1.00  0.00     0.002 A 
HETATM    7  C16 UNK     1      18.169   0.266  36.502  1.00  0.00     0.002 A 
HETATM    8  C17 UNK     1      20.102  -2.227  34.537  1.00  0.00     0.102 C 
ENDROOT
BRANCH   2   9
HETATM    9  N1  UNK     1      18.931  -3.870  36.586  1.00  0.00    -0.321 N 
HETATM   10  C6  UNK     1      19.966  -4.527  37.237  1.00  0.00     0.262 C 
HETATM   11  O2  UNK     1      20.876  -4.037  37.903  1.00  0.00    -0.267 OA
HETATM   12  H4  UNK     1      18.262  -4.447  36.083  1.00  0.00     0.169 HD
BRANCH  10  13
HETATM   13  C3  UNK     1      19.894  -5.982  37.064  1.00  0.00     0.108 A 
HETATM   14  C4  UNK     1      21.057  -6.613  36.864  1.00  0.00     0.037 A 
HETATM   15  C1  UNK     1      21.087  -8.056  36.682  1.00  0.00     0.001 A 
HETATM   16  C2  UNK     1      19.891  -8.764  36.719  1.00  0.00     0.089 A 
HETATM   17  C5  UNK     1      22.279  -8.755  36.471  1.00  0.00     0.038 A 
HETATM   18  O1  UNK     1      18.670  -8.094  36.929  1.00  0.00    -0.274 OA
HETATM   19  C8  UNK     1      19.851 -10.147  36.550  1.00  0.00     0.040 A 
HETATM   20  C7  UNK     1      18.609  -6.715  37.107  1.00  0.00     0.304 A 
HETATM   21  O3  UNK     1      17.540  -6.141  37.291  1.00  0.00    -0.259 OA
HETATM   22  C11 UNK     1      21.042 -10.837  36.341  1.00  0.00     0.026 A 
HETATM   23  C10 UNK     1      22.254 -10.143  36.300  1.00  0.00     0.035 A 
HETATM   24 Cl1  UNK     1      23.725 -11.000  36.040  1.00  0.00    -0.084 Cl
ENDBRANCH  10  13
ENDBRANCH   2   9
TORSDOF 2
ENDMDL
MODEL 7
REMARK VINA RESULT:      -8.5     15.180     18.045
REMARK  2 active torsions:
REMARK  status: ('A' for Active; 'I' for Inactive)
REMARK       I    between atoms: C6_12  and  N1_5 
REMARK    1  A    between atoms: C9_15  and  N1_5 
REMARK    2  A    between atoms: C3_9  and  C6_12 
ROOT
HETATM    1  N2  UNK     1      18.043   0.076  33.840  1.00  0.00    -0.191 NA
HETATM    2  C9  UNK     1      19.759   0.337  30.771  1.00  0.00     0.055 A 
HETATM    3  C12 UNK     1      19.385  -0.606  31.729  1.00  0.00     0.071 A 
HETATM    4  C13 UNK     1      20.482  -0.060  29.646  1.00  0.00     0.031 A 
HETATM    5  C14 UNK     1      19.735  -1.946  31.561  1.00  0.00     0.025 A 
HETATM    6  C15 UNK     1      20.831  -1.400  29.478  1.00  0.00     0.002 A 
HETATM    7  C16 UNK     1      20.458  -2.342  30.435  1.00  0.00     0.002 A 
HETATM    8  C17 UNK     1      18.644  -0.228  32.895  1.00  0.00     0.102 C 
ENDROOT
BRANCH   2   9
HETATM    9  N1  UNK     1      19.420   1.705  30.913  1.00  0.00    -0.321 N 
HETATM   10  C6  UNK     1      18.306   2.359  30.403  1.00  0.00     0.262 C 
HETATM   11  O2  UNK     1      17.392   1.887  29.730  1.00  0.00    -0.267 OA
HETATM   12  H4  UNK     1      20.074   2.263  31.456  1.00  0.00     0.169 HD
BRANCH  10  13
HETATM   13  C3  UNK     1      18.290   3.783  30.757  1.00  0.00     0.108 A 
HETATM   14  C4  UNK     1      17.882   4.081  31.996  1.00  0.00     0.037 A 
HETATM   15  C1  UNK     1      17.832   5.466  32.438  1.00  0.00     0.001 A 
HETATM   16  C2  UNK     1      18.214   6.469  31.554  1.00  0.00     0.089 A 
HETATM   17  C5  UNK     1      17.413   5.821  33.723  1.00  0.00     0.038 A 
HETATM   18  O1  UNK     1      18.642   6.149  30.251  1.00  0.00    -0.274 OA
HETATM   19  C8  UNK     1      18.188   7.814  31.916  1.00  0.00     0.040 A 
HETATM   20  C7  UNK     1      18.701   4.835  29.799  1.00  0.00     0.304 A 
HETATM   21  O3  UNK     1      19.076   4.566  28.662  1.00  0.00    -0.259 OA
HETATM   22  C11 UNK     1      17.769   8.162  33.199  1.00  0.00     0.026 A 
HETATM   23  C10 UNK     1      17.382   7.167  34.101  1.00  0.00     0.035 A 
HETATM   24 Cl1  UNK     1      16.865   7.601  35.684  1.00  0.00    -0.084 Cl
ENDBRANCH  10  13
ENDBRANCH   2   9
TORSDOF 2
ENDMDL
MODEL 8
REMARK VINA RESULT:      -8.5      1.525      2.916
REMARK  2 active torsions:
REMARK  status: ('A' for Active; 'I' for Inactive)
REMARK       I    between atoms: C6_12  and  N1_5 
REMARK    1  A    between atoms: C9_15  and  N1_5 
REMARK    2  A    between atoms: C3_9  and  C6_12 
ROOT
HETATM    1  N2  UNK     1      18.965  -0.612  20.543  1.00  0.00    -0.191 NA
HETATM    2  C9  UNK     1      19.215   1.098  17.470  1.00  0.00     0.055 A 
HETATM    3  C12 UNK     1      19.283   1.321  18.845  1.00  0.00     0.071 A 
HETATM    4  C13 UNK     1      19.389   2.159  16.581  1.00  0.00     0.031 A 
HETATM    5  C14 UNK     1      19.526   2.606  19.331  1.00  0.00     0.025 A 
HETATM    6  C15 UNK     1      19.633   3.443  17.067  1.00  0.00     0.002 A 
HETATM    7  C16 UNK     1      19.700   3.667  18.441  1.00  0.00     0.002 A 
HETATM    8  C17 UNK     1      19.107   0.253  19.783  1.00  0.00     0.102 C 
ENDROOT
BRANCH   2   9
HETATM    9  N1  UNK     1      18.969  -0.195  16.945  1.00  0.00    -0.321 N 
HETATM   10  C6  UNK     1      19.095  -0.612  15.627  1.00  0.00     0.262 C 
HETATM   11  O2  UNK     1      19.445   0.050  14.652  1.00  0.00    -0.267 OA
HETATM   12  H4  UNK     1      18.669  -0.891  17.623  1.00  0.00     0.169 HD
BRANCH  10  13
HETATM   13  C3  UNK     1      18.755  -2.029  15.460  1.00  0.00     0.108 A 
HETATM   14  C4  UNK     1      19.609  -2.762  14.736  1.00  0.00     0.037 A 
HETATM   15  C1  UNK     1      19.356  -4.178  14.515  1.00  0.00     0.001 A 
HETATM   16  C2  UNK     1      18.216  -4.752  15.067  1.00  0.00     0.089 A 
HETATM   17  C5  UNK     1      20.222  -4.980  13.767  1.00  0.00     0.038 A 
HETATM   18  O1  UNK     1      17.321  -3.976  15.827  1.00  0.00    -0.274 OA
HETATM   19  C8  UNK     1      17.916  -6.101  14.891  1.00  0.00     0.040 A 
HETATM   20  C7  UNK     1      17.535  -2.620  16.056  1.00  0.00     0.304 A 
HETATM   21  O3  UNK     1      16.749  -1.952  16.721  1.00  0.00    -0.259 OA
HETATM   22  C11 UNK     1      18.784  -6.895  14.144  1.00  0.00     0.026 A 
HETATM   23  C10 UNK     1      19.934  -6.336  13.582  1.00  0.00     0.035 A 
HETATM   24 Cl1  UNK     1      21.003  -7.320  12.659  1.00  0.00    -0.084 Cl
ENDBRANCH  10  13
ENDBRANCH   2   9
TORSDOF 2
ENDMDL
MODEL 9
REMARK VINA RESULT:      -8.5     20.803     22.368
REMARK  2 active torsions:
REMARK  status: ('A' for Active; 'I' for Inactive)
REMARK       I    between atoms: C6_12  and  N1_5 
REMARK    1  A    between atoms: C9_15  and  N1_5 
REMARK    2  A    between atoms: C3_9  and  C6_12 
ROOT
HETATM    1  N2  UNK     1      23.254  -5.234  38.638  1.00  0.00    -0.191 NA
HETATM    2  C9  UNK     1      19.958  -6.343  38.058  1.00  0.00     0.055 A 
HETATM    3  C12 UNK     1      21.186  -6.794  38.542  1.00  0.00     0.071 A 
HETATM    4  C13 UNK     1      18.863  -7.206  38.017  1.00  0.00     0.031 A 
HETATM    5  C14 UNK     1      21.318  -8.110  38.986  1.00  0.00     0.025 A 
HETATM    6  C15 UNK     1      18.995  -8.521  38.462  1.00  0.00     0.002 A 
HETATM    7  C16 UNK     1      20.223  -8.974  38.945  1.00  0.00     0.002 A 
HETATM    8  C17 UNK     1      22.328  -5.932  38.594  1.00  0.00     0.102 C 
ENDROOT
BRANCH   2   9
HETATM    9  N1  UNK     1      19.792  -5.012  37.599  1.00  0.00    -0.321 N 
HETATM   10  C6  UNK     1      19.943  -4.538  36.303  1.00  0.00     0.262 C 
HETATM   11  O2  UNK     1      20.249  -5.171  35.295  1.00  0.00    -0.267 OA
HETATM   12  H4  UNK     1      19.528  -4.335  38.310  1.00  0.00     0.169 HD
BRANCH  10  13
HETATM   13  C3  UNK     1      19.687  -3.097  36.208  1.00  0.00     0.108 A 
HETATM   14  C4  UNK     1      18.429  -2.702  36.439  1.00  0.00     0.037 A 
HETATM   15  C1  UNK     1      18.078  -1.292  36.368  1.00  0.00     0.001 A 
HETATM   16  C2  UNK     1      19.068  -0.367  36.056  1.00  0.00     0.089 A 
HETATM   17  C5  UNK     1      16.778  -0.837  36.603  1.00  0.00     0.038 A 
HETATM   18  O1  UNK     1      20.390  -0.788  35.813  1.00  0.00    -0.274 OA
HETATM   19  C8  UNK     1      18.797   0.997  35.971  1.00  0.00     0.040 A 
HETATM   20  C7  UNK     1      20.757  -2.129  35.874  1.00  0.00     0.304 A 
HETATM   21  O3  UNK     1      21.911  -2.486  35.662  1.00  0.00    -0.259 OA
HETATM   22  C11 UNK     1      17.499   1.444  36.206  1.00  0.00     0.026 A 
HETATM   23  C10 UNK     1      16.491   0.529  36.521  1.00  0.00     0.035 A 
HETATM   24 Cl1  UNK     1      14.887   1.086  36.810  1.00  0.00    -0.084 Cl
ENDBRANCH  10  13
ENDBRANCH   2   9
TORSDOF 2
ENDMDL
MODEL 10
REMARK VINA RESULT:      -8.5     16.918     19.204
REMARK  2 active torsions:
REMARK  status: ('A' for Active; 'I' for Inactive)
REMARK       I    between atoms: C6_12  and  N1_5 
REMARK    1  A    between atoms: C9_15  and  N1_5 
REMARK    2  A    between atoms: C3_9  and  C6_12 
ROOT
HETATM    1  N2  UNK     1      21.077  -2.435  33.129  1.00  0.00    -0.191 NA
HETATM    2  C9  UNK     1      19.113  -0.888  35.614  1.00  0.00     0.055 A 
HETATM    3  C12 UNK     1      19.835  -2.056  35.373  1.00  0.00     0.071 A 
HETATM    4  C13 UNK     1      18.454  -0.713  36.831  1.00  0.00     0.031 A 
HETATM    5  C14 UNK     1      19.900  -3.050  36.350  1.00  0.00     0.025 A 
HETATM    6  C15 UNK     1      18.519  -1.707  37.808  1.00  0.00     0.002 A 
HETATM    7  C16 UNK     1      19.241  -2.875  37.568  1.00  0.00     0.002 A 
HETATM    8  C17 UNK     1      20.521  -2.265  34.133  1.00  0.00     0.102 C 
ENDROOT
BRANCH   2   9
HETATM    9  N1  UNK     1      19.028   0.139  34.642  1.00  0.00    -0.321 N 
HETATM   10  C6  UNK     1      17.885   0.627  34.023  1.00  0.00     0.262 C 
HETATM   11  O2  UNK     1      16.720   0.271  34.191  1.00  0.00    -0.267 OA
HETATM   12  H4  UNK     1      19.913   0.563  34.377  1.00  0.00     0.169 HD
BRANCH  10  13
HETATM   13  C3  UNK     1      18.188   1.698  33.067  1.00  0.00     0.108 A 
HETATM   14  C4  UNK     1      17.969   2.949  33.491  1.00  0.00     0.037 A 
HETATM   15  C1  UNK     1      18.240   4.078  32.614  1.00  0.00     0.001 A 
HETATM   16  C2  UNK     1      18.727   3.835  31.334  1.00  0.00     0.089 A 
HETATM   17  C5  UNK     1      18.027   5.399  33.016  1.00  0.00     0.038 A 
HETATM   18  O1  UNK     1      18.954   2.517  30.894  1.00  0.00    -0.274 OA
HETATM   19  C8  UNK     1      19.005   4.872  30.446  1.00  0.00     0.040 A 
HETATM   20  C7  UNK     1      18.706   1.416  31.709  1.00  0.00     0.304 A 
HETATM   21  O3  UNK     1      18.908   0.272  31.317  1.00  0.00    -0.259 OA
HETATM   22  C11 UNK     1      18.791   6.187  30.853  1.00  0.00     0.026 A 
HETATM   23  C10 UNK     1      18.302   6.450  32.135  1.00  0.00     0.035 A 
HETATM   24 Cl1  UNK     1      18.037   8.077  32.633  1.00  0.00    -0.084 Cl
ENDBRANCH  10  13
ENDBRANCH   2   9
TORSDOF 2
ENDMDL
