MODEL 1
REMARK VINA RESULT:      -7.1      0.000      0.000
REMARK  2 active torsions:
REMARK  status: ('A' for Active; 'I' for Inactive)
REMARK    1  A    between atoms: C10_15  and  O3_4 
REMARK    2  A    between atoms: C10_15  and  C6_11 
ROOT
HETATM    1 Br1  UNK     1      19.400   8.435  34.484  1.00  0.00    -0.051 Br
HETATM    2  O1  UNK     1      18.037   3.290  31.604  1.00  0.00    -0.303 OA
HETATM    3  O2  UNK     1      19.985   6.188  29.497  1.00  0.00    -0.287 OA
HETATM    4  C1  UNK     1      19.033   5.506  31.552  1.00  0.00     0.049 A 
HETATM    5  C2  UNK     1      18.368   4.474  32.214  1.00  0.00     0.090 A 
HETATM    6  C3  UNK     1      19.400   5.324  30.137  1.00  0.00     0.187 A 
HETATM    7  C4  UNK     1      19.345   6.691  32.224  1.00  0.00     0.037 A 
HETATM    8  C5  UNK     1      18.009   4.622  33.555  1.00  0.00     0.039 A 
HETATM    9  C6  UNK     1      18.385   3.131  30.279  1.00  0.00     0.153 A 
HETATM   10  C7  UNK     1      19.024   4.035  29.526  1.00  0.00     0.100 A 
HETATM   11  C8  UNK     1      18.985   6.835  33.564  1.00  0.00     0.012 A 
HETATM   12  C9  UNK     1      18.318   5.804  34.228  1.00  0.00     0.022 A 
ENDROOT
BRANCH   9  13
HETATM   13  C10 UNK     1      18.025   1.860  29.646  1.00  0.00     0.201 C 
HETATM   14  O4  UNK     1      17.462   1.760  28.570  1.00  0.00    -0.645 OA
BRANCH  13  15
HETATM   15  O3  UNK     1      18.410   0.835  30.436  1.00  0.00    -0.771 OA
HETATM   16  H5  UNK     1      18.271   1.030  31.387  1.00  0.00     0.167 HD
ENDBRANCH  13  15
ENDBRANCH   9  13
TORSDOF 2
ENDMDL
MODEL 2
REMARK VINA RESULT:      -6.9      1.294      2.646
REMARK  2 active torsions:
REMARK  status: ('A' for Active; 'I' for Inactive)
REMARK    1  A    between atoms: C10_15  and  O3_4 
REMARK    2  A    between atoms: C10_15  and  C6_11 
ROOT
HETATM    1 Br1  UNK     1      18.332   7.673  34.678  1.00  0.00    -0.051 Br
HETATM    2  O1  UNK     1      18.784   3.879  29.985  1.00  0.00    -0.303 OA
HETATM    3  O2  UNK     1      17.850   2.295  33.625  1.00  0.00    -0.287 OA
HETATM    4  C1  UNK     1      18.353   4.223  32.352  1.00  0.00     0.049 A 
HETATM    5  C2  UNK     1      18.670   4.700  31.080  1.00  0.00     0.090 A 
HETATM    6  C3  UNK     1      18.131   2.779  32.537  1.00  0.00     0.187 A 
HETATM    7  C4  UNK     1      18.251   5.105  33.430  1.00  0.00     0.037 A 
HETATM    8  C5  UNK     1      18.886   6.063  30.878  1.00  0.00     0.039 A 
HETATM    9  C6  UNK     1      18.573   2.528  30.170  1.00  0.00     0.153 A 
HETATM   10  C7  UNK     1      18.264   1.939  31.331  1.00  0.00     0.100 A 
HETATM   11  C8  UNK     1      18.467   6.469  33.226  1.00  0.00     0.012 A 
HETATM   12  C9  UNK     1      18.784   6.946  31.954  1.00  0.00     0.022 A 
ENDROOT
BRANCH   9  13
HETATM   13  C10 UNK     1      18.698   1.671  28.990  1.00  0.00     0.201 C 
HETATM   14  O4  UNK     1      19.393   0.671  28.934  1.00  0.00    -0.645 OA
BRANCH  13  15
HETATM   15  O3  UNK     1      17.932   2.158  27.991  1.00  0.00    -0.771 OA
HETATM   16  H5  UNK     1      18.448   2.710  27.367  1.00  0.00     0.167 HD
ENDBRANCH  13  15
ENDBRANCH   9  13
TORSDOF 2
ENDMDL
MODEL 3
REMARK VINA RESULT:      -6.8     13.498     15.804
REMARK  2 active torsions:
REMARK  status: ('A' for Active; 'I' for Inactive)
REMARK    1  A    between atoms: C10_15  and  O3_4 
REMARK    2  A    between atoms: C10_15  and  C6_11 
ROOT
HETATM    1 Br1  UNK     1      19.383  -2.114  12.742  1.00  0.00    -0.051 Br
HETATM    2  O1  UNK     1      18.603  -0.228  18.439  1.00  0.00    -0.303 OA
HETATM    3  O2  UNK     1      19.439   2.583  15.606  1.00  0.00    -0.287 OA
HETATM    4  C1  UNK     1      19.076   0.303  16.115  1.00  0.00     0.049 A 
HETATM    5  C2  UNK     1      18.788  -0.607  17.133  1.00  0.00     0.090 A 
HETATM    6  C3  UNK     1      19.189   1.733  16.449  1.00  0.00     0.187 A 
HETATM    7  C4  UNK     1      19.255  -0.141  14.803  1.00  0.00     0.037 A 
HETATM    8  C5  UNK     1      18.676  -1.968  16.843  1.00  0.00     0.039 A 
HETATM    9  C6  UNK     1      18.711   1.114  18.741  1.00  0.00     0.153 A 
HETATM   10  C7  UNK     1      18.982   2.090  17.866  1.00  0.00     0.100 A 
HETATM   11  C8  UNK     1      19.142  -1.502  14.516  1.00  0.00     0.012 A 
HETATM   12  C9  UNK     1      18.854  -2.413  15.533  1.00  0.00     0.022 A 
ENDROOT
BRANCH   9  13
HETATM   13  C10 UNK     1      18.509   1.498  20.139  1.00  0.00     0.201 C 
HETATM   14  O4  UNK     1      19.073   2.428  20.687  1.00  0.00    -0.645 OA
BRANCH  13  15
HETATM   15  O3  UNK     1      17.613   0.667  20.713  1.00  0.00    -0.771 OA
HETATM   16  H5  UNK     1      17.619  -0.223  20.301  1.00  0.00     0.167 HD
ENDBRANCH  13  15
ENDBRANCH   9  13
TORSDOF 2
ENDMDL
MODEL 4
REMARK VINA RESULT:      -6.7      1.680      2.832
REMARK  2 active torsions:
REMARK  status: ('A' for Active; 'I' for Inactive)
REMARK    1  A    between atoms: C10_15  and  O3_4 
REMARK    2  A    between atoms: C10_15  and  C6_11 
ROOT
HETATM    1 Br1  UNK     1      17.627   7.835  33.298  1.00  0.00    -0.051 Br
HETATM    2  O1  UNK     1      19.083   3.249  29.627  1.00  0.00    -0.303 OA
HETATM    3  O2  UNK     1      17.844   2.339  33.404  1.00  0.00    -0.287 OA
HETATM    4  C1  UNK     1      18.311   4.013  31.801  1.00  0.00     0.049 A 
HETATM    5  C2  UNK     1      18.741   4.255  30.496  1.00  0.00     0.090 A 
HETATM    6  C3  UNK     1      18.215   2.621  32.273  1.00  0.00     0.187 A 
HETATM    7  C4  UNK     1      17.976   5.077  32.642  1.00  0.00     0.037 A 
HETATM    8  C5  UNK     1      18.841   5.565  30.025  1.00  0.00     0.039 A 
HETATM    9  C6  UNK     1      18.990   1.950  30.079  1.00  0.00     0.153 A 
HETATM   10  C7  UNK     1      18.592   1.576  31.302  1.00  0.00     0.100 A 
HETATM   11  C8  UNK     1      18.076   6.386  32.168  1.00  0.00     0.012 A 
HETATM   12  C9  UNK     1      18.508   6.629  30.863  1.00  0.00     0.022 A 
ENDROOT
BRANCH   9  13
HETATM   13  C10 UNK     1      19.357   0.891  29.137  1.00  0.00     0.201 C 
HETATM   14  O4  UNK     1      18.710   0.591  28.150  1.00  0.00    -0.645 OA
BRANCH  13  15
HETATM   15  O3  UNK     1      20.510   0.311  29.533  1.00  0.00    -0.771 OA
HETATM   16  H5  UNK     1      21.254   0.950  29.556  1.00  0.00     0.167 HD
ENDBRANCH  13  15
ENDBRANCH   9  13
TORSDOF 2
ENDMDL
MODEL 5
REMARK VINA RESULT:      -6.7      3.580      4.564
REMARK  2 active torsions:
REMARK  status: ('A' for Active; 'I' for Inactive)
REMARK    1  A    between atoms: C10_15  and  O3_4 
REMARK    2  A    between atoms: C10_15  and  C6_11 
ROOT
HETATM    1 Br1  UNK     1      17.508   0.906  37.438  1.00  0.00    -0.051 Br
HETATM    2  O1  UNK     1      18.913   0.195  31.594  1.00  0.00    -0.303 OA
HETATM    3  O2  UNK     1      17.875   3.931  32.857  1.00  0.00    -0.287 OA
HETATM    4  C1  UNK     1      18.223   1.658  33.408  1.00  0.00     0.049 A 
HETATM    5  C2  UNK     1      18.587   0.406  32.911  1.00  0.00     0.090 A 
HETATM    6  C3  UNK     1      18.185   2.806  32.487  1.00  0.00     0.187 A 
HETATM    7  C4  UNK     1      17.900   1.813  34.758  1.00  0.00     0.037 A 
HETATM    8  C5  UNK     1      18.629  -0.699  33.763  1.00  0.00     0.039 A 
HETATM    9  C6  UNK     1      18.875   1.278  30.741  1.00  0.00     0.153 A 
HETATM   10  C7  UNK     1      18.545   2.529  31.083  1.00  0.00     0.100 A 
HETATM   11  C8  UNK     1      17.944   0.707  35.608  1.00  0.00     0.012 A 
HETATM   12  C9  UNK     1      18.307  -0.545  35.111  1.00  0.00     0.022 A 
ENDROOT
BRANCH   9  13
HETATM   13  C10 UNK     1      19.228   1.032  29.342  1.00  0.00     0.201 C 
HETATM   14  O4  UNK     1      18.533   1.343  28.390  1.00  0.00    -0.645 OA
BRANCH  13  15
HETATM   15  O3  UNK     1      20.427   0.415  29.277  1.00  0.00    -0.771 OA
HETATM   16  H5  UNK     1      21.061   0.774  29.934  1.00  0.00     0.167 HD
ENDBRANCH  13  15
ENDBRANCH   9  13
TORSDOF 2
ENDMDL
MODEL 6
REMARK VINA RESULT:      -6.6     12.852     14.559
REMARK  2 active torsions:
REMARK  status: ('A' for Active; 'I' for Inactive)
REMARK    1  A    between atoms: C10_15  and  O3_4 
REMARK    2  A    between atoms: C10_15  and  C6_11 
ROOT
HETATM    1 Br1  UNK     1      23.714 -11.715  35.782  1.00  0.00    -0.051 Br
HETATM    2  O1  UNK     1      18.722  -8.434  36.746  1.00  0.00    -0.303 OA
HETATM    3  O2  UNK     1      21.182  -7.298  33.699  1.00  0.00    -0.287 OA
HETATM    4  C1  UNK     1      20.750  -8.813  35.462  1.00  0.00     0.049 A 
HETATM    5  C2  UNK     1      19.866  -9.148  36.488  1.00  0.00     0.090 A 
HETATM    6  C3  UNK     1      20.450  -7.646  34.615  1.00  0.00     0.187 A 
HETATM    7  C4  UNK     1      21.900  -9.576  35.246  1.00  0.00     0.037 A 
HETATM    8  C5  UNK     1      20.128 -10.249  37.305  1.00  0.00     0.039 A 
HETATM    9  C6  UNK     1      18.450  -7.344  35.947  1.00  0.00     0.153 A 
HETATM   10  C7  UNK     1      19.209  -6.913  34.931  1.00  0.00     0.100 A 
HETATM   11  C8  UNK     1      22.159 -10.676  36.064  1.00  0.00     0.012 A 
HETATM   12  C9  UNK     1      21.276 -11.011  37.091  1.00  0.00     0.022 A 
ENDROOT
BRANCH   9  13
HETATM   13  C10 UNK     1      17.225  -6.597  36.237  1.00  0.00     0.201 C 
HETATM   14  O4  UNK     1      17.119  -5.759  37.115  1.00  0.00    -0.645 OA
BRANCH  13  15
HETATM   15  O3  UNK     1      16.248  -6.981  35.388  1.00  0.00    -0.771 OA
HETATM   16  H5  UNK     1      15.404  -6.512  35.562  1.00  0.00     0.167 HD
ENDBRANCH  13  15
ENDBRANCH   9  13
TORSDOF 2
ENDMDL
MODEL 7
REMARK VINA RESULT:      -6.5     16.615     17.404
REMARK  2 active torsions:
REMARK  status: ('A' for Active; 'I' for Inactive)
REMARK    1  A    between atoms: C10_15  and  O3_4 
REMARK    2  A    between atoms: C10_15  and  C6_11 
ROOT
HETATM    1 Br1  UNK     1      27.269  -9.766  39.796  1.00  0.00    -0.051 Br
HETATM    2  O1  UNK     1      31.143  -5.943  37.149  1.00  0.00    -0.303 OA
HETATM    3  O2  UNK     1      27.980  -4.347  39.170  1.00  0.00    -0.287 OA
HETATM    4  C1  UNK     1      29.134  -6.290  38.473  1.00  0.00     0.049 A 
HETATM    5  C2  UNK     1      30.237  -6.770  37.766  1.00  0.00     0.090 A 
HETATM    6  C3  UNK     1      28.926  -4.835  38.566  1.00  0.00     0.187 A 
HETATM    7  C4  UNK     1      28.245  -7.179  39.082  1.00  0.00     0.037 A 
HETATM    8  C5  UNK     1      30.457  -8.144  37.664  1.00  0.00     0.039 A 
HETATM    9  C6  UNK     1      30.938  -4.582  37.243  1.00  0.00     0.153 A 
HETATM   10  C7  UNK     1      29.926  -3.988  37.887  1.00  0.00     0.100 A 
HETATM   11  C8  UNK     1      28.467  -8.552  38.977  1.00  0.00     0.012 A 
HETATM   12  C9  UNK     1      29.570  -9.034  38.270  1.00  0.00     0.022 A 
ENDROOT
BRANCH   9  13
HETATM   13  C10 UNK     1      31.915  -3.717  36.579  1.00  0.00     0.201 C 
HETATM   14  O4  UNK     1      33.001  -4.090  36.171  1.00  0.00    -0.645 OA
BRANCH  13  15
HETATM   15  O3  UNK     1      31.427  -2.462  36.495  1.00  0.00    -0.771 OA
HETATM   16  H5  UNK     1      30.711  -2.300  37.146  1.00  0.00     0.167 HD
ENDBRANCH  13  15
ENDBRANCH   9  13
TORSDOF 2
ENDMDL
MODEL 8
REMARK VINA RESULT:      -6.5      3.701      5.238
REMARK  2 active torsions:
REMARK  status: ('A' for Active; 'I' for Inactive)
REMARK    1  A    between atoms: C10_15  and  O3_4 
REMARK    2  A    between atoms: C10_15  and  C6_11 
ROOT
HETATM    1 Br1  UNK     1      22.282   5.915  32.183  1.00  0.00    -0.051 Br
HETATM    2  O1  UNK     1      16.323   6.862  31.723  1.00  0.00    -0.303 OA
HETATM    3  O2  UNK     1      18.106   7.687  35.296  1.00  0.00    -0.287 OA
HETATM    4  C1  UNK     1      18.345   6.925  33.070  1.00  0.00     0.049 A 
HETATM    5  C2  UNK     1      17.673   6.664  31.875  1.00  0.00     0.090 A 
HETATM    6  C3  UNK     1      17.580   7.436  34.220  1.00  0.00     0.187 A 
HETATM    7  C4  UNK     1      19.720   6.704  33.168  1.00  0.00     0.037 A 
HETATM    8  C5  UNK     1      18.374   6.179  30.771  1.00  0.00     0.039 A 
HETATM    9  C6  UNK     1      15.617   7.341  32.806  1.00  0.00     0.153 A 
HETATM   10  C7  UNK     1      16.133   7.634  34.006  1.00  0.00     0.100 A 
HETATM   11  C8  UNK     1      20.419   6.219  32.062  1.00  0.00     0.012 A 
HETATM   12  C9  UNK     1      19.748   5.957  30.867  1.00  0.00     0.022 A 
ENDROOT
BRANCH   9  13
HETATM   13  C10 UNK     1      14.179   7.547  32.623  1.00  0.00     0.201 C 
HETATM   14  O4  UNK     1      13.476   6.884  31.881  1.00  0.00    -0.645 OA
BRANCH  13  15
HETATM   15  O3  UNK     1      13.765   8.574  33.395  1.00  0.00    -0.771 OA
HETATM   16  H5  UNK     1      12.822   8.794  33.241  1.00  0.00     0.167 HD
ENDBRANCH  13  15
ENDBRANCH   9  13
TORSDOF 2
ENDMDL
MODEL 9
REMARK VINA RESULT:      -6.5     22.986     24.225
REMARK  2 active torsions:
REMARK  status: ('A' for Active; 'I' for Inactive)
REMARK    1  A    between atoms: C10_15  and  O3_4 
REMARK    2  A    between atoms: C10_15  and  C6_11 
ROOT
HETATM    1 Br1  UNK     1      16.066   6.615   9.898  1.00  0.00    -0.051 Br
HETATM    2  O1  UNK     1      10.391   5.414   8.172  1.00  0.00    -0.303 OA
HETATM    3  O2  UNK     1      11.189   9.146   9.611  1.00  0.00    -0.287 OA
HETATM    4  C1  UNK     1      12.004   6.991   9.077  1.00  0.00     0.049 A 
HETATM    5  C2  UNK     1      11.664   5.734   8.575  1.00  0.00     0.090 A 
HETATM    6  C3  UNK     1      10.959   8.024   9.181  1.00  0.00     0.187 A 
HETATM    7  C4  UNK     1      13.317   7.260   9.473  1.00  0.00     0.037 A 
HETATM    8  C5  UNK     1      12.636   4.739   8.467  1.00  0.00     0.039 A 
HETATM    9  C6  UNK     1       9.421   6.389   8.273  1.00  0.00     0.153 A 
HETATM   10  C7  UNK     1       9.608   7.632   8.734  1.00  0.00     0.100 A 
HETATM   11  C8  UNK     1      14.286   6.263   9.364  1.00  0.00     0.012 A 
HETATM   12  C9  UNK     1      13.947   5.005   8.862  1.00  0.00     0.022 A 
ENDROOT
BRANCH   9  13
HETATM   13  C10 UNK     1       8.071   6.028   7.836  1.00  0.00     0.201 C 
HETATM   14  O4  UNK     1       7.634   4.891   7.812  1.00  0.00    -0.645 OA
BRANCH  13  15
HETATM   15  O3  UNK     1       7.400   7.141   7.471  1.00  0.00    -0.771 OA
HETATM   16  H5  UNK     1       7.623   7.423   6.558  1.00  0.00     0.167 HD
ENDBRANCH  13  15
ENDBRANCH   9  13
TORSDOF 2
ENDMDL
MODEL 10
REMARK VINA RESULT:      -6.5      5.784      7.526
REMARK  2 active torsions:
REMARK  status: ('A' for Active; 'I' for Inactive)
REMARK    1  A    between atoms: C10_15  and  O3_4 
REMARK    2  A    between atoms: C10_15  and  C6_11 
ROOT
HETATM    1 Br1  UNK     1      20.350  -0.225  29.076  1.00  0.00    -0.051 Br
HETATM    2  O1  UNK     1      19.161  -1.944  34.755  1.00  0.00    -0.303 OA
HETATM    3  O2  UNK     1      17.520   1.553  33.445  1.00  0.00    -0.287 OA
HETATM    4  C1  UNK     1      18.872  -0.327  32.963  1.00  0.00     0.049 A 
HETATM    5  C2  UNK     1      19.401  -1.513  33.474  1.00  0.00     0.090 A 
HETATM    6  C3  UNK     1      18.017   0.502  33.830  1.00  0.00     0.187 A 
HETATM    7  C4  UNK     1      19.151   0.063  31.651  1.00  0.00     0.037 A 
HETATM    8  C5  UNK     1      20.215  -2.316  32.673  1.00  0.00     0.039 A 
HETATM    9  C6  UNK     1      18.358  -1.160  35.557  1.00  0.00     0.153 A 
HETATM   10  C7  UNK     1      17.787  -0.004  35.197  1.00  0.00     0.100 A 
HETATM   11  C8  UNK     1      19.964  -0.743  30.853  1.00  0.00     0.012 A 
HETATM   12  C9  UNK     1      20.495  -1.929  31.363  1.00  0.00     0.022 A 
ENDROOT
BRANCH   9  13
HETATM   13  C10 UNK     1      18.113  -1.638  36.919  1.00  0.00     0.201 C 
HETATM   14  O4  UNK     1      18.101  -0.927  37.908  1.00  0.00    -0.645 OA
BRANCH  13  15
HETATM   15  O3  UNK     1      17.906  -2.972  36.901  1.00  0.00    -0.771 OA
HETATM   16  H5  UNK     1      17.752  -3.309  35.992  1.00  0.00     0.167 HD
ENDBRANCH  13  15
ENDBRANCH   9  13
TORSDOF 2
ENDMDL
