MODEL 1
REMARK VINA RESULT:      -9.8      0.000      0.000
REMARK  4 active torsions:
REMARK  status: ('A' for Active; 'I' for Inactive)
REMARK    1  A    between atoms: C3_8  and  N1_4 
REMARK       I    between atoms: C11_16  and  N2_5 
REMARK    2  A    between atoms: C2_7  and  N2_5 
REMARK    3  A    between atoms: C1_6  and  C2_7 
REMARK    4  A    between atoms: C11_16  and  C8_13 
ROOT
HETATM    1  O2  UNK     1      21.486  -4.315  37.487  1.00  0.00    -0.267 OA
HETATM    2  N2  UNK     1      19.529  -4.067  36.218  1.00  0.00    -0.352 N 
HETATM    3  C11 UNK     1      20.519  -4.771  36.881  1.00  0.00     0.258 C 
HETATM    4  H7  UNK     1      18.774  -4.567  35.761  1.00  0.00     0.163 HD
ENDROOT
BRANCH   2   5
HETATM    5  C2  UNK     1      19.490  -2.624  36.140  1.00  0.00     0.161 C 
BRANCH   5   6
HETATM    6  C1  UNK     1      19.555  -2.129  34.723  1.00  0.00    -0.040 A 
HETATM    7  C4  UNK     1      18.671  -1.143  34.301  1.00  0.00     0.011 A 
HETATM    8  C6  UNK     1      18.731  -0.682  32.985  1.00  0.00     0.030 A 
HETATM    9  C3  UNK     1      19.674  -1.211  32.103  1.00  0.00     0.038 A 
HETATM   10  C7  UNK     1      20.557  -2.200  32.537  1.00  0.00     0.030 A 
HETATM   11  C5  UNK     1      20.496  -2.661  33.853  1.00  0.00     0.011 A 
BRANCH   9  12
HETATM   12  N1  UNK     1      19.733  -0.754  30.799  1.00  0.00    -0.333 N 
HETATM   13  C13 UNK     1      20.166  -1.483  29.713  1.00  0.00     0.096 A 
HETATM   14  C18 UNK     1      20.077  -0.683  28.596  1.00  0.00     0.019 A 
HETATM   15  C19 UNK     1      19.574   0.573  29.013  1.00  0.00     0.019 A 
HETATM   16  C14 UNK     1      19.371   0.504  30.373  1.00  0.00     0.096 A 
ENDBRANCH   9  12
ENDBRANCH   5   6
ENDBRANCH   2   5
BRANCH   3  17
HETATM   17  C8  UNK     1      20.351  -6.228  36.824  1.00  0.00     0.108 A 
HETATM   18  C10 UNK     1      20.139  -6.844  37.993  1.00  0.00     0.037 A 
HETATM   19  C9  UNK     1      19.961  -8.288  38.039  1.00  0.00    -0.001 A 
HETATM   20  C12 UNK     1      20.016  -9.011  36.851  1.00  0.00     0.089 A 
HETATM   21  C16 UNK     1      19.737  -8.973  39.235  1.00  0.00     0.014 A 
HETATM   22  O1  UNK     1      20.239  -8.356  35.624  1.00  0.00    -0.274 OA
HETATM   23  C17 UNK     1      19.854 -10.395  36.827  1.00  0.00     0.038 A 
HETATM   24  C15 UNK     1      20.413  -6.977  35.548  1.00  0.00     0.304 A 
HETATM   25  O3  UNK     1      20.607  -6.415  34.475  1.00  0.00    -0.259 OA
HETATM   26  C21 UNK     1      19.631 -11.070  38.024  1.00  0.00     0.003 A 
HETATM   27  C20 UNK     1      19.572 -10.361  39.226  1.00  0.00     0.001 A 
ENDBRANCH   3  17
TORSDOF 4
ENDMDL
MODEL 2
REMARK VINA RESULT:      -9.6      2.710      8.982
REMARK  4 active torsions:
REMARK  status: ('A' for Active; 'I' for Inactive)
REMARK    1  A    between atoms: C3_8  and  N1_4 
REMARK       I    between atoms: C11_16  and  N2_5 
REMARK    2  A    between atoms: C2_7  and  N2_5 
REMARK    3  A    between atoms: C1_6  and  C2_7 
REMARK    4  A    between atoms: C11_16  and  C8_13 
ROOT
HETATM    1  O2  UNK     1      17.755  -1.400  35.983  1.00  0.00    -0.267 OA
HETATM    2  N2  UNK     1      19.894  -2.335  35.758  1.00  0.00    -0.352 N 
HETATM    3  C11 UNK     1      18.799  -1.588  35.362  1.00  0.00     0.258 C 
HETATM    4  H7  UNK     1      20.705  -2.402  35.151  1.00  0.00     0.163 HD
ENDROOT
BRANCH   2   5
HETATM    5  C2  UNK     1      19.971  -3.035  37.020  1.00  0.00     0.161 C 
BRANCH   5   6
HETATM    6  C1  UNK     1      20.281  -4.495  36.844  1.00  0.00    -0.040 A 
HETATM    7  C4  UNK     1      21.123  -5.130  37.748  1.00  0.00     0.011 A 
HETATM    8  C6  UNK     1      21.411  -6.486  37.584  1.00  0.00     0.030 A 
HETATM    9  C3  UNK     1      20.854  -7.194  36.518  1.00  0.00     0.038 A 
HETATM   10  C7  UNK     1      20.010  -6.545  35.616  1.00  0.00     0.030 A 
HETATM   11  C5  UNK     1      19.723  -5.191  35.780  1.00  0.00     0.011 A 
BRANCH   9  12
HETATM   12  N1  UNK     1      21.140  -8.537  36.356  1.00  0.00    -0.333 N 
HETATM   13  C13 UNK     1      21.148  -9.481  37.359  1.00  0.00     0.096 A 
HETATM   14  C18 UNK     1      21.480 -10.697  36.803  1.00  0.00     0.019 A 
HETATM   15  C19 UNK     1      21.682 -10.487  35.416  1.00  0.00     0.019 A 
HETATM   16  C14 UNK     1      21.468  -9.150  35.167  1.00  0.00     0.096 A 
ENDBRANCH   9  12
ENDBRANCH   5   6
ENDBRANCH   2   5
BRANCH   3  17
HETATM   17  C8  UNK     1      18.948  -0.969  34.040  1.00  0.00     0.108 A 
HETATM   18  C10 UNK     1      19.479  -1.739  33.083  1.00  0.00     0.037 A 
HETATM   19  C9  UNK     1      19.667  -1.214  31.739  1.00  0.00    -0.001 A 
HETATM   20  C12 UNK     1      19.288   0.098  31.470  1.00  0.00     0.089 A 
HETATM   21  C16 UNK     1      20.216  -1.981  30.710  1.00  0.00     0.014 A 
HETATM   22  O1  UNK     1      18.729   0.903  32.481  1.00  0.00    -0.274 OA
HETATM   23  C17 UNK     1      19.441   0.661  30.204  1.00  0.00     0.038 A 
HETATM   24  C15 UNK     1      18.536   0.429  33.776  1.00  0.00     0.304 A 
HETATM   25  O3  UNK     1      18.051   1.138  34.651  1.00  0.00    -0.259 OA
HETATM   26  C21 UNK     1      19.990  -0.112  29.184  1.00  0.00     0.003 A 
HETATM   27  C20 UNK     1      20.376  -1.430  29.435  1.00  0.00     0.001 A 
ENDBRANCH   3  17
TORSDOF 4
ENDMDL
MODEL 3
REMARK VINA RESULT:      -9.6      6.936     10.707
REMARK  4 active torsions:
REMARK  status: ('A' for Active; 'I' for Inactive)
REMARK    1  A    between atoms: C3_8  and  N1_4 
REMARK       I    between atoms: C11_16  and  N2_5 
REMARK    2  A    between atoms: C2_7  and  N2_5 
REMARK    3  A    between atoms: C1_6  and  C2_7 
REMARK    4  A    between atoms: C11_16  and  C8_13 
ROOT
HETATM    1  O2  UNK     1      18.124   3.316  28.780  1.00  0.00    -0.267 OA
HETATM    2  N2  UNK     1      19.406   4.325  30.465  1.00  0.00    -0.352 N 
HETATM    3  C11 UNK     1      18.802   3.271  29.805  1.00  0.00     0.258 C 
HETATM    4  H7  UNK     1      19.951   4.150  31.303  1.00  0.00     0.163 HD
ENDROOT
BRANCH   2   5
HETATM    5  C2  UNK     1      19.323   5.699  30.023  1.00  0.00     0.161 C 
BRANCH   5   6
HETATM    6  C1  UNK     1      18.507   6.548  30.955  1.00  0.00    -0.040 A 
HETATM    7  C4  UNK     1      18.986   6.823  32.229  1.00  0.00     0.011 A 
HETATM    8  C6  UNK     1      18.228   7.612  33.095  1.00  0.00     0.030 A 
HETATM    9  C3  UNK     1      16.997   8.120  32.678  1.00  0.00     0.038 A 
HETATM   10  C7  UNK     1      16.525   7.838  31.396  1.00  0.00     0.030 A 
HETATM   11  C5  UNK     1      17.283   7.049  30.531  1.00  0.00     0.011 A 
BRANCH   9  12
HETATM   12  N1  UNK     1      16.246   8.902  33.537  1.00  0.00    -0.333 N 
HETATM   13  C13 UNK     1      16.691  10.032  34.188  1.00  0.00     0.096 A 
HETATM   14  C18 UNK     1      15.654  10.525  34.949  1.00  0.00     0.019 A 
HETATM   15  C19 UNK     1      14.542   9.669  34.757  1.00  0.00     0.019 A 
HETATM   16  C14 UNK     1      14.933   8.678  33.884  1.00  0.00     0.096 A 
ENDBRANCH   9  12
ENDBRANCH   5   6
ENDBRANCH   2   5
BRANCH   3  17
HETATM   17  C8  UNK     1      19.023   1.966  30.440  1.00  0.00     0.108 A 
HETATM   18  C10 UNK     1      19.654   1.047  29.699  1.00  0.00     0.037 A 
HETATM   19  C9  UNK     1      19.918  -0.277  30.243  1.00  0.00    -0.001 A 
HETATM   20  C12 UNK     1      19.505  -0.567  31.539  1.00  0.00     0.089 A 
HETATM   21  C16 UNK     1      20.573  -1.266  29.506  1.00  0.00     0.014 A 
HETATM   22  O1  UNK     1      18.842   0.404  32.314  1.00  0.00    -0.274 OA
HETATM   23  C17 UNK     1      19.728  -1.816  32.118  1.00  0.00     0.038 A 
HETATM   24  C15 UNK     1      18.575   1.680  31.822  1.00  0.00     0.304 A 
HETATM   25  O3  UNK     1      17.996   2.519  32.503  1.00  0.00    -0.259 OA
HETATM   26  C21 UNK     1      20.381  -2.796  31.376  1.00  0.00     0.003 A 
HETATM   27  C20 UNK     1      20.804  -2.523  30.073  1.00  0.00     0.001 A 
ENDBRANCH   3  17
TORSDOF 4
ENDMDL
MODEL 4
REMARK VINA RESULT:      -9.1      1.830      2.441
REMARK  4 active torsions:
REMARK  status: ('A' for Active; 'I' for Inactive)
REMARK    1  A    between atoms: C3_8  and  N1_4 
REMARK       I    between atoms: C11_16  and  N2_5 
REMARK    2  A    between atoms: C2_7  and  N2_5 
REMARK    3  A    between atoms: C1_6  and  C2_7 
REMARK    4  A    between atoms: C11_16  and  C8_13 
ROOT
HETATM    1  O2  UNK     1      18.463  -5.434  36.474  1.00  0.00    -0.267 OA
HETATM    2  N2  UNK     1      20.261  -3.932  36.368  1.00  0.00    -0.352 N 
HETATM    3  C11 UNK     1      19.665  -5.174  36.488  1.00  0.00     0.258 C 
HETATM    4  H7  UNK     1      21.273  -3.854  36.386  1.00  0.00     0.163 HD
ENDROOT
BRANCH   2   5
HETATM    5  C2  UNK     1      19.521  -2.702  36.202  1.00  0.00     0.161 C 
BRANCH   5   6
HETATM    6  C1  UNK     1      19.582  -2.186  34.792  1.00  0.00    -0.040 A 
HETATM    7  C4  UNK     1      18.690  -1.204  34.382  1.00  0.00     0.011 A 
HETATM    8  C6  UNK     1      18.746  -0.725  33.072  1.00  0.00     0.030 A 
HETATM    9  C3  UNK     1      19.696  -1.232  32.185  1.00  0.00     0.038 A 
HETATM   10  C7  UNK     1      20.588  -2.219  32.607  1.00  0.00     0.030 A 
HETATM   11  C5  UNK     1      20.530  -2.697  33.915  1.00  0.00     0.011 A 
BRANCH   9  12
HETATM   12  N1  UNK     1      19.752  -0.758  30.887  1.00  0.00    -0.333 N 
HETATM   13  C13 UNK     1      19.366   0.499  30.476  1.00  0.00     0.096 A 
HETATM   14  C18 UNK     1      19.571   0.590  29.117  1.00  0.00     0.019 A 
HETATM   15  C19 UNK     1      20.099  -0.652  28.685  1.00  0.00     0.019 A 
HETATM   16  C14 UNK     1      20.199  -1.464  29.793  1.00  0.00     0.096 A 
ENDBRANCH   9  12
ENDBRANCH   5   6
ENDBRANCH   2   5
BRANCH   3  17
HETATM   17  C8  UNK     1      20.618  -6.278  36.649  1.00  0.00     0.108 A 
HETATM   18  C10 UNK     1      20.497  -7.294  35.786  1.00  0.00     0.037 A 
HETATM   19  C9  UNK     1      21.397  -8.435  35.866  1.00  0.00    -0.001 A 
HETATM   20  C12 UNK     1      22.379  -8.450  36.851  1.00  0.00     0.089 A 
HETATM   21  C16 UNK     1      21.307  -9.517  34.988  1.00  0.00     0.014 A 
HETATM   22  O1  UNK     1      22.503  -7.377  37.755  1.00  0.00    -0.274 OA
HETATM   23  C17 UNK     1      23.272  -9.512  36.982  1.00  0.00     0.038 A 
HETATM   24  C15 UNK     1      21.657  -6.271  37.704  1.00  0.00     0.304 A 
HETATM   25  O3  UNK     1      21.771  -5.343  38.496  1.00  0.00    -0.259 OA
HETATM   26  C21 UNK     1      23.175 -10.587  36.102  1.00  0.00     0.003 A 
HETATM   27  C20 UNK     1      22.195 -10.590  35.106  1.00  0.00     0.001 A 
ENDBRANCH   3  17
TORSDOF 4
ENDMDL
MODEL 5
REMARK VINA RESULT:      -8.8      2.049      9.247
REMARK  4 active torsions:
REMARK  status: ('A' for Active; 'I' for Inactive)
REMARK    1  A    between atoms: C3_8  and  N1_4 
REMARK       I    between atoms: C11_16  and  N2_5 
REMARK    2  A    between atoms: C2_7  and  N2_5 
REMARK    3  A    between atoms: C1_6  and  C2_7 
REMARK    4  A    between atoms: C11_16  and  C8_13 
ROOT
HETATM    1  O2  UNK     1      18.362  -1.465  35.375  1.00  0.00    -0.267 OA
HETATM    2  N2  UNK     1      20.392  -2.631  35.531  1.00  0.00    -0.352 N 
HETATM    3  C11 UNK     1      19.408  -1.898  34.893  1.00  0.00     0.258 C 
HETATM    4  H7  UNK     1      21.218  -2.921  35.017  1.00  0.00     0.163 HD
ENDROOT
BRANCH   2   5
HETATM    5  C2  UNK     1      20.329  -3.012  36.923  1.00  0.00     0.161 C 
BRANCH   5   6
HETATM    6  C1  UNK     1      20.281  -4.503  37.103  1.00  0.00    -0.040 A 
HETATM    7  C4  UNK     1      21.233  -5.129  37.899  1.00  0.00     0.011 A 
HETATM    8  C6  UNK     1      21.189  -6.513  38.066  1.00  0.00     0.030 A 
HETATM    9  C3  UNK     1      20.192  -7.261  37.438  1.00  0.00     0.038 A 
HETATM   10  C7  UNK     1      19.240  -6.622  36.641  1.00  0.00     0.030 A 
HETATM   11  C5  UNK     1      19.285  -5.239  36.473  1.00  0.00     0.011 A 
BRANCH   9  12
HETATM   12  N1  UNK     1      20.148  -8.632  37.604  1.00  0.00    -0.333 N 
HETATM   13  C13 UNK     1      19.260  -9.315  38.406  1.00  0.00     0.096 A 
HETATM   14  C18 UNK     1      19.537 -10.660  38.307  1.00  0.00     0.019 A 
HETATM   15  C19 UNK     1      20.629 -10.804  37.415  1.00  0.00     0.019 A 
HETATM   16  C14 UNK     1      20.987  -9.541  36.997  1.00  0.00     0.096 A 
ENDBRANCH   9  12
ENDBRANCH   5   6
ENDBRANCH   2   5
BRANCH   3  17
HETATM   17  C8  UNK     1      19.688  -1.631  33.477  1.00  0.00     0.108 A 
HETATM   18  C10 UNK     1      19.148  -0.518  32.967  1.00  0.00     0.037 A 
HETATM   19  C9  UNK     1      19.370  -0.168  31.572  1.00  0.00    -0.001 A 
HETATM   20  C12 UNK     1      20.149  -1.008  30.783  1.00  0.00     0.089 A 
HETATM   21  C16 UNK     1      18.826   0.982  30.997  1.00  0.00     0.014 A 
HETATM   22  O1  UNK     1      20.716  -2.178  31.326  1.00  0.00    -0.274 OA
HETATM   23  C17 UNK     1      20.399  -0.731  29.440  1.00  0.00     0.038 A 
HETATM   24  C15 UNK     1      20.522  -2.539  32.657  1.00  0.00     0.304 A 
HETATM   25  O3  UNK     1      21.018  -3.560  33.121  1.00  0.00    -0.259 OA
HETATM   26  C21 UNK     1      19.852   0.419  28.876  1.00  0.00     0.003 A 
HETATM   27  C20 UNK     1      19.068   1.275  29.652  1.00  0.00     0.001 A 
ENDBRANCH   3  17
TORSDOF 4
ENDMDL
MODEL 6
REMARK VINA RESULT:      -8.5      7.400     10.313
REMARK  4 active torsions:
REMARK  status: ('A' for Active; 'I' for Inactive)
REMARK    1  A    between atoms: C3_8  and  N1_4 
REMARK       I    between atoms: C11_16  and  N2_5 
REMARK    2  A    between atoms: C2_7  and  N2_5 
REMARK    3  A    between atoms: C1_6  and  C2_7 
REMARK    4  A    between atoms: C11_16  and  C8_13 
ROOT
HETATM    1  O2  UNK     1      17.481   2.779  31.264  1.00  0.00    -0.267 OA
HETATM    2  N2  UNK     1      18.720   4.184  32.675  1.00  0.00    -0.352 N 
HETATM    3  C11 UNK     1      18.088   3.010  32.308  1.00  0.00     0.258 C 
HETATM    4  H7  UNK     1      19.198   4.241  33.568  1.00  0.00     0.163 HD
ENDROOT
BRANCH   2   5
HETATM    5  C2  UNK     1      18.760   5.365  31.842  1.00  0.00     0.161 C 
BRANCH   5   6
HETATM    6  C1  UNK     1      17.976   6.503  32.432  1.00  0.00    -0.040 A 
HETATM    7  C4  UNK     1      16.589   6.496  32.347  1.00  0.00     0.011 A 
HETATM    8  C6  UNK     1      15.861   7.553  32.894  1.00  0.00     0.030 A 
HETATM    9  C3  UNK     1      16.526   8.607  33.523  1.00  0.00     0.038 A 
HETATM   10  C7  UNK     1      17.919   8.604  33.603  1.00  0.00     0.030 A 
HETATM   11  C5  UNK     1      18.646   7.548  33.055  1.00  0.00     0.011 A 
BRANCH   9  12
HETATM   12  N1  UNK     1      15.803   9.654  34.065  1.00  0.00    -0.333 N 
HETATM   13  C13 UNK     1      14.532   9.565  34.587  1.00  0.00     0.096 A 
HETATM   14  C18 UNK     1      14.158  10.816  35.024  1.00  0.00     0.019 A 
HETATM   15  C19 UNK     1      15.235  11.697  34.760  1.00  0.00     0.019 A 
HETATM   16  C14 UNK     1      16.235  10.958  34.169  1.00  0.00     0.096 A 
ENDBRANCH   9  12
ENDBRANCH   5   6
ENDBRANCH   2   5
BRANCH   3  17
HETATM   17  C8  UNK     1      18.179   1.946  33.314  1.00  0.00     0.108 A 
HETATM   18  C10 UNK     1      17.860   2.289  34.568  1.00  0.00     0.037 A 
HETATM   19  C9  UNK     1      17.919   1.302  35.636  1.00  0.00    -0.001 A 
HETATM   20  C12 UNK     1      18.312   0.003  35.331  1.00  0.00     0.089 A 
HETATM   21  C16 UNK     1      17.595   1.615  36.957  1.00  0.00     0.014 A 
HETATM   22  O1  UNK     1      18.646  -0.353  34.010  1.00  0.00    -0.274 OA
HETATM   23  C17 UNK     1      18.390  -0.989  36.307  1.00  0.00     0.038 A 
HETATM   24  C15 UNK     1      18.599   0.569  32.966  1.00  0.00     0.304 A 
HETATM   25  O3  UNK     1      18.892   0.251  31.819  1.00  0.00    -0.259 OA
HETATM   26  C21 UNK     1      18.065  -0.667  37.623  1.00  0.00     0.003 A 
HETATM   27  C20 UNK     1      17.668   0.632  37.948  1.00  0.00     0.001 A 
ENDBRANCH   3  17
TORSDOF 4
ENDMDL
MODEL 7
REMARK VINA RESULT:      -8.5     10.079     14.879
REMARK  4 active torsions:
REMARK  status: ('A' for Active; 'I' for Inactive)
REMARK    1  A    between atoms: C3_8  and  N1_4 
REMARK       I    between atoms: C11_16  and  N2_5 
REMARK    2  A    between atoms: C2_7  and  N2_5 
REMARK    3  A    between atoms: C1_6  and  C2_7 
REMARK    4  A    between atoms: C11_16  and  C8_13 
ROOT
HETATM    1  O2  UNK     1      18.737  10.141  33.716  1.00  0.00    -0.267 OA
HETATM    2  N2  UNK     1      17.797   7.992  33.699  1.00  0.00    -0.352 N 
HETATM    3  C11 UNK     1      17.775   9.375  33.714  1.00  0.00     0.258 C 
HETATM    4  H7  UNK     1      16.924   7.473  33.689  1.00  0.00     0.163 HD
ENDROOT
BRANCH   2   5
HETATM    5  C2  UNK     1      19.013   7.211  33.682  1.00  0.00     0.161 C 
BRANCH   5   6
HETATM    6  C1  UNK     1      18.917   6.026  32.763  1.00  0.00    -0.040 A 
HETATM    7  C4  UNK     1      18.210   4.901  33.169  1.00  0.00     0.011 A 
HETATM    8  C6  UNK     1      18.120   3.800  32.316  1.00  0.00     0.030 A 
HETATM    9  C3  UNK     1      18.737   3.835  31.064  1.00  0.00     0.038 A 
HETATM   10  C7  UNK     1      19.444   4.970  30.667  1.00  0.00     0.030 A 
HETATM   11  C5  UNK     1      19.534   6.070  31.520  1.00  0.00     0.011 A 
BRANCH   9  12
HETATM   12  N1  UNK     1      18.648   2.744  30.220  1.00  0.00    -0.333 N 
HETATM   13  C13 UNK     1      17.919   2.692  29.052  1.00  0.00     0.096 A 
HETATM   14  C18 UNK     1      18.081   1.441  28.499  1.00  0.00     0.019 A 
HETATM   15  C19 UNK     1      18.937   0.706  29.356  1.00  0.00     0.019 A 
HETATM   16  C14 UNK     1      19.271   1.530  30.408  1.00  0.00     0.096 A 
ENDBRANCH   9  12
ENDBRANCH   5   6
ENDBRANCH   2   5
BRANCH   3  17
HETATM   17  C8  UNK     1      16.424   9.948  33.730  1.00  0.00     0.108 A 
HETATM   18  C10 UNK     1      16.138  10.759  34.755  1.00  0.00     0.037 A 
HETATM   19  C9  UNK     1      14.824  11.376  34.858  1.00  0.00    -0.001 A 
HETATM   20  C12 UNK     1      13.875  11.106  33.877  1.00  0.00     0.089 A 
HETATM   21  C16 UNK     1      14.482  12.228  35.910  1.00  0.00     0.014 A 
HETATM   22  O1  UNK     1      14.182  10.252  32.800  1.00  0.00    -0.274 OA
HETATM   23  C17 UNK     1      12.599  11.664  33.917  1.00  0.00     0.038 A 
HETATM   24  C15 UNK     1      15.431   9.648  32.673  1.00  0.00     0.304 A 
HETATM   25  O3  UNK     1      15.688   8.904  31.733  1.00  0.00    -0.259 OA
HETATM   26  C21 UNK     1      12.267  12.514  34.970  1.00  0.00     0.003 A 
HETATM   27  C20 UNK     1      13.206  12.796  35.964  1.00  0.00     0.001 A 
ENDBRANCH   3  17
TORSDOF 4
ENDMDL
MODEL 8
REMARK VINA RESULT:      -8.4      3.925      9.110
REMARK  4 active torsions:
REMARK  status: ('A' for Active; 'I' for Inactive)
REMARK    1  A    between atoms: C3_8  and  N1_4 
REMARK       I    between atoms: C11_16  and  N2_5 
REMARK    2  A    between atoms: C2_7  and  N2_5 
REMARK    3  A    between atoms: C1_6  and  C2_7 
REMARK    4  A    between atoms: C11_16  and  C8_13 
ROOT
HETATM    1  O2  UNK     1      20.180  -5.455  35.256  1.00  0.00    -0.267 OA
HETATM    2  N2  UNK     1      19.838  -5.222  37.565  1.00  0.00    -0.352 N 
HETATM    3  C11 UNK     1      19.916  -4.787  36.254  1.00  0.00     0.258 C 
HETATM    4  H7  UNK     1      19.600  -4.565  38.301  1.00  0.00     0.163 HD
ENDROOT
BRANCH   2   5
HETATM    5  C2  UNK     1      20.066  -6.591  37.968  1.00  0.00     0.161 C 
BRANCH   5   6
HETATM    6  C1  UNK     1      21.521  -6.878  38.211  1.00  0.00    -0.040 A 
HETATM    7  C4  UNK     1      22.080  -8.050  37.717  1.00  0.00     0.011 A 
HETATM    8  C6  UNK     1      23.431  -8.317  37.943  1.00  0.00     0.030 A 
HETATM    9  C3  UNK     1      24.212  -7.409  38.660  1.00  0.00     0.038 A 
HETATM   10  C7  UNK     1      23.640  -6.235  39.151  1.00  0.00     0.030 A 
HETATM   11  C5  UNK     1      22.290  -5.969  38.926  1.00  0.00     0.011 A 
BRANCH   9  12
HETATM   12  N1  UNK     1      25.550  -7.674  38.883  1.00  0.00    -0.333 N 
HETATM   13  C13 UNK     1      26.582  -6.774  38.732  1.00  0.00     0.096 A 
HETATM   14  C18 UNK     1      27.760  -7.414  39.045  1.00  0.00     0.019 A 
HETATM   15  C19 UNK     1      27.438  -8.747  39.400  1.00  0.00     0.019 A 
HETATM   16  C14 UNK     1      26.071  -8.882  39.291  1.00  0.00     0.096 A 
ENDBRANCH   9  12
ENDBRANCH   5   6
ENDBRANCH   2   5
BRANCH   3  17
HETATM   17  C8  UNK     1      19.646  -3.355  36.086  1.00  0.00     0.108 A 
HETATM   18  C10 UNK     1      18.919  -2.773  37.048  1.00  0.00     0.037 A 
HETATM   19  C9  UNK     1      18.600  -1.356  36.969  1.00  0.00    -0.001 A 
HETATM   20  C12 UNK     1      19.060  -0.621  35.881  1.00  0.00     0.089 A 
HETATM   21  C16 UNK     1      17.844  -0.708  37.949  1.00  0.00     0.014 A 
HETATM   22  O1  UNK     1      19.826  -1.238  34.873  1.00  0.00    -0.274 OA
HETATM   23  C17 UNK     1      18.789   0.740  35.746  1.00  0.00     0.038 A 
HETATM   24  C15 UNK     1      20.148  -2.592  34.920  1.00  0.00     0.304 A 
HETATM   25  O3  UNK     1      20.814  -3.121  34.037  1.00  0.00    -0.259 OA
HETATM   26  C21 UNK     1      18.035   1.378  36.728  1.00  0.00     0.003 A 
HETATM   27  C20 UNK     1      17.563   0.656  37.827  1.00  0.00     0.001 A 
ENDBRANCH   3  17
TORSDOF 4
ENDMDL
MODEL 9
REMARK VINA RESULT:      -8.4      5.117      7.925
REMARK  4 active torsions:
REMARK  status: ('A' for Active; 'I' for Inactive)
REMARK    1  A    between atoms: C3_8  and  N1_4 
REMARK       I    between atoms: C11_16  and  N2_5 
REMARK    2  A    between atoms: C2_7  and  N2_5 
REMARK    3  A    between atoms: C1_6  and  C2_7 
REMARK    4  A    between atoms: C11_16  and  C8_13 
ROOT
HETATM    1  O2  UNK     1      19.384  -0.287  30.076  1.00  0.00    -0.267 OA
HETATM    2  N2  UNK     1      18.782   1.366  31.627  1.00  0.00    -0.352 N 
HETATM    3  C11 UNK     1      19.208   0.113  31.226  1.00  0.00     0.258 C 
HETATM    4  H7  UNK     1      18.687   1.573  32.617  1.00  0.00     0.163 HD
ENDROOT
BRANCH   2   5
HETATM    5  C2  UNK     1      18.467   2.436  30.709  1.00  0.00     0.161 C 
BRANCH   5   6
HETATM    6  C1  UNK     1      18.546   3.788  31.360  1.00  0.00    -0.040 A 
HETATM    7  C4  UNK     1      18.074   3.952  32.657  1.00  0.00     0.011 A 
HETATM    8  C6  UNK     1      18.147   5.207  33.263  1.00  0.00     0.030 A 
HETATM    9  C3  UNK     1      18.693   6.287  32.567  1.00  0.00     0.038 A 
HETATM   10  C7  UNK     1      19.164   6.111  31.265  1.00  0.00     0.030 A 
HETATM   11  C5  UNK     1      19.090   4.857  30.660  1.00  0.00     0.011 A 
BRANCH   9  12
HETATM   12  N1  UNK     1      18.765   7.530  33.167  1.00  0.00    -0.333 N 
HETATM   13  C13 UNK     1      19.823   7.998  33.916  1.00  0.00     0.096 A 
HETATM   14  C18 UNK     1      19.518   9.272  34.341  1.00  0.00     0.019 A 
HETATM   15  C19 UNK     1      18.233   9.591  33.837  1.00  0.00     0.019 A 
HETATM   16  C14 UNK     1      17.791   8.502  33.119  1.00  0.00     0.096 A 
ENDBRANCH   9  12
ENDBRANCH   5   6
ENDBRANCH   2   5
BRANCH   3  17
HETATM   17  C8  UNK     1      19.467  -0.811  32.336  1.00  0.00     0.108 A 
HETATM   18  C10 UNK     1      18.840  -0.543  33.488  1.00  0.00     0.037 A 
HETATM   19  C9  UNK     1      19.034  -1.402  34.645  1.00  0.00    -0.001 A 
HETATM   20  C12 UNK     1      19.879  -2.501  34.534  1.00  0.00     0.089 A 
HETATM   21  C16 UNK     1      18.401  -1.160  35.866  1.00  0.00     0.014 A 
HETATM   22  O1  UNK     1      20.535  -2.780  33.319  1.00  0.00    -0.274 OA
HETATM   23  C17 UNK     1      20.107  -3.363  35.605  1.00  0.00     0.038 A 
HETATM   24  C15 UNK     1      20.370  -1.976  32.194  1.00  0.00     0.304 A 
HETATM   25  O3  UNK     1      20.947  -2.225  31.141  1.00  0.00    -0.259 OA
HETATM   26  C21 UNK     1      19.472  -3.114  36.819  1.00  0.00     0.003 A 
HETATM   27  C20 UNK     1      18.619  -2.015  36.950  1.00  0.00     0.001 A 
ENDBRANCH   3  17
TORSDOF 4
ENDMDL
MODEL 10
REMARK VINA RESULT:      -8.3     29.071     31.380
REMARK  4 active torsions:
REMARK  status: ('A' for Active; 'I' for Inactive)
REMARK    1  A    between atoms: C3_8  and  N1_4 
REMARK       I    between atoms: C11_16  and  N2_5 
REMARK    2  A    between atoms: C2_7  and  N2_5 
REMARK    3  A    between atoms: C1_6  and  C2_7 
REMARK    4  A    between atoms: C11_16  and  C8_13 
ROOT
HETATM    1  O2  UNK     1      15.556   6.685   9.394  1.00  0.00    -0.267 OA
HETATM    2  N2  UNK     1      15.199   8.998   9.236  1.00  0.00    -0.352 N 
HETATM    3  C11 UNK     1      14.834   7.664   9.211  1.00  0.00     0.258 C 
HETATM    4  H7  UNK     1      14.498   9.716   9.078  1.00  0.00     0.163 HD
ENDROOT
BRANCH   2   5
HETATM    5  C2  UNK     1      16.546   9.454   9.492  1.00  0.00     0.161 C 
BRANCH   5   6
HETATM    6  C1  UNK     1      16.892  10.683   8.699  1.00  0.00    -0.040 A 
HETATM    7  C4  UNK     1      15.882  11.391   8.059  1.00  0.00     0.011 A 
HETATM    8  C6  UNK     1      16.202  12.532   7.321  1.00  0.00     0.030 A 
HETATM    9  C3  UNK     1      17.529  12.954   7.231  1.00  0.00     0.038 A 
HETATM   10  C7  UNK     1      18.535  12.236   7.878  1.00  0.00     0.030 A 
HETATM   11  C5  UNK     1      18.215  11.095   8.614  1.00  0.00     0.011 A 
BRANCH   9  12
HETATM   12  N1  UNK     1      17.846  14.085   6.500  1.00  0.00    -0.333 N 
HETATM   13  C13 UNK     1      16.939  14.960   5.944  1.00  0.00     0.096 A 
HETATM   14  C18 UNK     1      17.641  15.952   5.296  1.00  0.00     0.019 A 
HETATM   15  C19 UNK     1      19.020  15.674   5.463  1.00  0.00     0.019 A 
HETATM   16  C14 UNK     1      19.119  14.519   6.206  1.00  0.00     0.096 A 
ENDBRANCH   9  12
ENDBRANCH   5   6
ENDBRANCH   2   5
BRANCH   3  17
HETATM   17  C8  UNK     1      13.411   7.442   8.930  1.00  0.00     0.108 A 
HETATM   18  C10 UNK     1      13.112   7.006   7.700  1.00  0.00     0.037 A 
HETATM   19  C9  UNK     1      11.729   6.757   7.327  1.00  0.00    -0.001 A 
HETATM   20  C12 UNK     1      10.727   6.979   8.267  1.00  0.00     0.089 A 
HETATM   21  C16 UNK     1      11.371   6.303   6.056  1.00  0.00     0.014 A 
HETATM   22  O1  UNK     1      11.048   7.436   9.560  1.00  0.00    -0.274 OA
HETATM   23  C17 UNK     1       9.382   6.760   7.972  1.00  0.00     0.038 A 
HETATM   24  C15 UNK     1      12.362   7.684   9.947  1.00  0.00     0.304 A 
HETATM   25  O3  UNK     1      12.632   8.083  11.074  1.00  0.00    -0.259 OA
HETATM   26  C21 UNK     1       9.035   6.307   6.702  1.00  0.00     0.003 A 
HETATM   27  C20 UNK     1      10.026   6.078   5.745  1.00  0.00     0.001 A 
ENDBRANCH   3  17
TORSDOF 4
ENDMDL
