MODEL 1
REMARK VINA RESULT:      -7.2      0.000      0.000
REMARK  2 active torsions:
REMARK  status: ('A' for Active; 'I' for Inactive)
REMARK    1  A    between atoms: C4_9  and  O3_3 
REMARK    2  A    between atoms: C6_11  and  O4_4 
ROOT
HETATM    1  O1  UNK     1      19.019  -0.160  31.927  1.00  0.00    -0.311 OA
HETATM    2  O2  UNK     1      17.396   0.005  36.443  1.00  0.00    -0.319 OA
HETATM    3  O5  UNK     1      21.343  -3.371  32.861  1.00  0.00    -0.287 OA
HETATM    4  C1  UNK     1      19.769  -1.751  33.606  1.00  0.00     0.085 A 
HETATM    5  C2  UNK     1      18.892  -1.581  35.848  1.00  0.00     0.037 A 
HETATM    6  C3  UNK     1      19.001  -0.653  33.210  1.00  0.00     0.128 A 
HETATM    7  C4  UNK     1      19.730  -2.233  34.925  1.00  0.00     0.098 A 
HETATM    8  C5  UNK     1      18.142  -0.491  35.416  1.00  0.00     0.124 A 
HETATM    9  C6  UNK     1      18.162   0.008  34.114  1.00  0.00     0.138 A 
HETATM   10  C7  UNK     1      20.633  -2.408  32.610  1.00  0.00     0.190 A 
HETATM   11  C8  UNK     1      18.574  -1.746  37.222  1.00  0.00     0.042 A 
HETATM   12  C9  UNK     1      19.832  -0.778  30.991  1.00  0.00     0.053 A 
HETATM   13  C10 UNK     1      20.612  -1.836  31.251  1.00  0.00     0.088 A 
HETATM   14  C11 UNK     1      17.665  -0.761  37.532  1.00  0.00     0.143 A 
HETATM   15  C12 UNK     1      19.765  -0.150  29.635  1.00  0.00     0.077 C 
ENDROOT
BRANCH   7  16
HETATM   16  O3  UNK     1      20.472  -3.305  35.333  1.00  0.00    -0.354 OA
HETATM   17  C13 UNK     1      19.756  -4.443  35.803  1.00  0.00     0.210 C 
ENDBRANCH   7  16
BRANCH   9  18
HETATM   18  O4  UNK     1      17.406   1.081  33.742  1.00  0.00    -0.351 OA
HETATM   19  C14 UNK     1      17.999   2.369  33.884  1.00  0.00     0.210 C 
ENDBRANCH   9  18
TORSDOF 2
ENDMDL
MODEL 2
REMARK VINA RESULT:      -7.2      2.619      5.823
REMARK  2 active torsions:
REMARK  status: ('A' for Active; 'I' for Inactive)
REMARK    1  A    between atoms: C4_9  and  O3_3 
REMARK    2  A    between atoms: C6_11  and  O4_4 
ROOT
HETATM    1  O1  UNK     1      17.859   4.009  33.532  1.00  0.00    -0.311 OA
HETATM    2  O2  UNK     1      18.807  -0.698  33.511  1.00  0.00    -0.319 OA
HETATM    3  O5  UNK     1      18.829   4.240  29.583  1.00  0.00    -0.287 OA
HETATM    4  C1  UNK     1      18.605   2.871  31.515  1.00  0.00     0.085 A 
HETATM    5  C2  UNK     1      19.055   0.502  31.612  1.00  0.00     0.037 A 
HETATM    6  C3  UNK     1      18.258   2.872  32.869  1.00  0.00     0.128 A 
HETATM    7  C4  UNK     1      19.008   1.693  30.865  1.00  0.00     0.098 A 
HETATM    8  C5  UNK     1      18.701   0.543  32.958  1.00  0.00     0.124 A 
HETATM    9  C6  UNK     1      18.298   1.698  33.628  1.00  0.00     0.138 A 
HETATM   10  C7  UNK     1      18.543   4.138  30.767  1.00  0.00     0.190 A 
HETATM   11  C8  UNK     1      19.394  -0.850  31.344  1.00  0.00     0.042 A 
HETATM   12  C9  UNK     1      17.801   5.200  32.827  1.00  0.00     0.053 A 
HETATM   13  C10 UNK     1      18.109   5.325  31.529  1.00  0.00     0.088 A 
HETATM   14  C11 UNK     1      19.227  -1.535  32.526  1.00  0.00     0.143 A 
HETATM   15  C12 UNK     1      17.356   6.363  33.657  1.00  0.00     0.077 C 
ENDROOT
BRANCH   7  16
HETATM   16  O3  UNK     1      19.352   1.671  29.543  1.00  0.00    -0.354 OA
HETATM   17  C13 UNK     1      18.392   1.134  28.638  1.00  0.00     0.210 C 
ENDBRANCH   7  16
BRANCH   9  18
HETATM   18  O4  UNK     1      17.962   1.682  34.950  1.00  0.00    -0.351 OA
HETATM   19  C14 UNK     1      19.028   1.799  35.889  1.00  0.00     0.210 C 
ENDBRANCH   9  18
TORSDOF 2
ENDMDL
MODEL 3
REMARK VINA RESULT:      -7.1      1.445      3.906
REMARK  2 active torsions:
REMARK  status: ('A' for Active; 'I' for Inactive)
REMARK    1  A    between atoms: C4_9  and  O3_3 
REMARK    2  A    between atoms: C6_11  and  O4_4 
ROOT
HETATM    1  O1  UNK     1      19.712  -1.720  32.887  1.00  0.00    -0.311 OA
HETATM    2  O2  UNK     1      18.094  -0.364  37.199  1.00  0.00    -0.319 OA
HETATM    3  O5  UNK     1      18.543   1.848  31.307  1.00  0.00    -0.287 OA
HETATM    4  C1  UNK     1      18.686   0.459  33.233  1.00  0.00     0.085 A 
HETATM    5  C2  UNK     1      17.905   1.042  35.441  1.00  0.00     0.037 A 
HETATM    6  C3  UNK     1      19.113  -0.787  33.700  1.00  0.00     0.128 A 
HETATM    7  C4  UNK     1      18.077   1.391  34.089  1.00  0.00     0.098 A 
HETATM    8  C5  UNK     1      18.343  -0.207  35.869  1.00  0.00     0.124 A 
HETATM    9  C6  UNK     1      18.950  -1.152  35.041  1.00  0.00     0.138 A 
HETATM   10  C7  UNK     1      18.885   0.787  31.811  1.00  0.00     0.190 A 
HETATM   11  C8  UNK     1      17.358   1.672  36.589  1.00  0.00     0.042 A 
HETATM   12  C9  UNK     1      19.898  -1.409  31.550  1.00  0.00     0.053 A 
HETATM   13  C10 UNK     1      19.532  -0.250  30.986  1.00  0.00     0.088 A 
HETATM   14  C11 UNK     1      17.496   0.780  37.626  1.00  0.00     0.143 A 
HETATM   15  C12 UNK     1      20.558  -2.503  30.770  1.00  0.00     0.077 C 
ENDROOT
BRANCH   7  16
HETATM   16  O3  UNK     1      17.653   2.614  33.652  1.00  0.00    -0.354 OA
HETATM   17  C13 UNK     1      18.418   3.744  34.060  1.00  0.00     0.210 C 
ENDBRANCH   7  16
BRANCH   9  18
HETATM   18  O4  UNK     1      19.361  -2.363  35.514  1.00  0.00    -0.351 OA
HETATM   19  C14 UNK     1      20.636  -2.410  36.150  1.00  0.00     0.210 C 
ENDBRANCH   9  18
TORSDOF 2
ENDMDL
MODEL 4
REMARK VINA RESULT:      -6.8     12.022     14.643
REMARK  2 active torsions:
REMARK  status: ('A' for Active; 'I' for Inactive)
REMARK    1  A    between atoms: C4_9  and  O3_3 
REMARK    2  A    between atoms: C6_11  and  O4_4 
ROOT
HETATM    1  O1  UNK     1      29.267  -9.349  38.433  1.00  0.00    -0.311 OA
HETATM    2  O2  UNK     1      33.624  -7.826  37.109  1.00  0.00    -0.319 OA
HETATM    3  O5  UNK     1      28.233  -5.548  39.469  1.00  0.00    -0.287 OA
HETATM    4  C1  UNK     1      29.902  -7.008  38.607  1.00  0.00     0.085 A 
HETATM    5  C2  UNK     1      32.118  -6.346  37.915  1.00  0.00     0.037 A 
HETATM    6  C3  UNK     1      30.183  -8.336  38.276  1.00  0.00     0.128 A 
HETATM    7  C4  UNK     1      30.859  -5.994  38.434  1.00  0.00     0.098 A 
HETATM    8  C5  UNK     1      32.359  -7.679  37.596  1.00  0.00     0.124 A 
HETATM    9  C6  UNK     1      31.429  -8.705  37.758  1.00  0.00     0.138 A 
HETATM   10  C7  UNK     1      28.572  -6.678  39.147  1.00  0.00     0.190 A 
HETATM   11  C8  UNK     1      33.314  -5.652  37.598  1.00  0.00     0.042 A 
HETATM   12  C9  UNK     1      28.017  -9.038  38.941  1.00  0.00     0.053 A 
HETATM   13  C10 UNK     1      27.631  -7.805  39.294  1.00  0.00     0.088 A 
HETATM   14  C11 UNK     1      34.194  -6.592  37.115  1.00  0.00     0.143 A 
HETATM   15  C12 UNK     1      27.112 -10.223  39.066  1.00  0.00     0.077 C 
ENDROOT
BRANCH   7  16
HETATM   16  O3  UNK     1      30.604  -4.689  38.752  1.00  0.00    -0.354 OA
HETATM   17  C13 UNK     1      30.355  -3.800  37.667  1.00  0.00     0.210 C 
ENDBRANCH   7  16
BRANCH   9  18
HETATM   18  O4  UNK     1      31.718  -9.997  37.429  1.00  0.00    -0.351 OA
HETATM   19  C14 UNK     1      31.526 -10.376  36.068  1.00  0.00     0.210 C 
ENDBRANCH   9  18
TORSDOF 2
ENDMDL
MODEL 5
REMARK VINA RESULT:      -6.8     11.230     13.850
REMARK  2 active torsions:
REMARK  status: ('A' for Active; 'I' for Inactive)
REMARK    1  A    between atoms: C4_9  and  O3_3 
REMARK    2  A    between atoms: C6_11  and  O4_4 
ROOT
HETATM    1  O1  UNK     1      32.168  -7.306  37.827  1.00  0.00    -0.311 OA
HETATM    2  O2  UNK     1      28.463 -10.242  38.668  1.00  0.00    -0.319 OA
HETATM    3  O5  UNK     1      29.923  -4.112  38.987  1.00  0.00    -0.287 OA
HETATM    4  C1  UNK     1      30.037  -6.463  38.643  1.00  0.00     0.085 A 
HETATM    5  C2  UNK     1      28.238  -8.024  39.033  1.00  0.00     0.037 A 
HETATM    6  C3  UNK     1      30.869  -7.507  38.229  1.00  0.00     0.128 A 
HETATM    7  C4  UNK     1      28.714  -6.700  39.050  1.00  0.00     0.098 A 
HETATM    8  C5  UNK     1      29.096  -9.037  38.616  1.00  0.00     0.124 A 
HETATM    9  C6  UNK     1      30.413  -8.830  38.207  1.00  0.00     0.138 A 
HETATM   10  C7  UNK     1      30.572  -5.091  38.647  1.00  0.00     0.190 A 
HETATM   11  C8  UNK     1      27.014  -8.665  39.355  1.00  0.00     0.042 A 
HETATM   12  C9  UNK     1      32.670  -6.016  37.831  1.00  0.00     0.053 A 
HETATM   13  C10 UNK     1      31.971  -4.935  38.205  1.00  0.00     0.088 A 
HETATM   14  C11 UNK     1      27.202 -10.007  39.117  1.00  0.00     0.143 A 
HETATM   15  C12 UNK     1      34.091  -5.926  37.372  1.00  0.00     0.077 C 
ENDROOT
BRANCH   7  16
HETATM   16  O3  UNK     1      27.885  -5.693  39.457  1.00  0.00    -0.354 OA
HETATM   17  C13 UNK     1      26.799  -5.365  38.595  1.00  0.00     0.210 C 
ENDBRANCH   7  16
BRANCH   9  18
HETATM   18  O4  UNK     1      31.213  -9.860  37.807  1.00  0.00    -0.351 OA
HETATM   19  C14 UNK     1      31.244 -10.149  36.412  1.00  0.00     0.210 C 
ENDBRANCH   9  18
TORSDOF 2
ENDMDL
MODEL 6
REMARK VINA RESULT:      -6.8      1.903      6.167
REMARK  2 active torsions:
REMARK  status: ('A' for Active; 'I' for Inactive)
REMARK    1  A    between atoms: C4_9  and  O3_3 
REMARK    2  A    between atoms: C6_11  and  O4_4 
ROOT
HETATM    1  O1  UNK     1      18.625  -0.120  34.276  1.00  0.00    -0.311 OA
HETATM    2  O2  UNK     1      20.267  -1.916  30.137  1.00  0.00    -0.319 OA
HETATM    3  O5  UNK     1      17.977   3.477  32.479  1.00  0.00    -0.287 OA
HETATM    4  C1  UNK     1      18.732   1.232  32.258  1.00  0.00     0.085 A 
HETATM    5  C2  UNK     1      19.574   0.233  30.228  1.00  0.00     0.037 A 
HETATM    6  C3  UNK     1      18.928   0.031  32.944  1.00  0.00     0.128 A 
HETATM    7  C4  UNK     1      19.050   1.356  30.895  1.00  0.00     0.098 A 
HETATM    8  C5  UNK     1      19.754  -0.946  30.945  1.00  0.00     0.124 A 
HETATM    9  C6  UNK     1      19.447  -1.096  32.297  1.00  0.00     0.138 A 
HETATM   10  C7  UNK     1      18.181   2.385  32.990  1.00  0.00     0.190 A 
HETATM   11  C8  UNK     1      20.008  -0.050  28.907  1.00  0.00     0.042 A 
HETATM   12  C9  UNK     1      18.106   0.964  34.964  1.00  0.00     0.053 A 
HETATM   13  C10 UNK     1      17.875   2.165  34.417  1.00  0.00     0.088 A 
HETATM   14  C11 UNK     1      20.417  -1.363  28.904  1.00  0.00     0.143 A 
HETATM   15  C12 UNK     1      17.820   0.676  36.404  1.00  0.00     0.077 C 
ENDROOT
BRANCH   7  16
HETATM   16  O3  UNK     1      18.867   2.521  30.206  1.00  0.00    -0.354 OA
HETATM   17  C13 UNK     1      17.982   2.477  29.091  1.00  0.00     0.210 C 
ENDBRANCH   7  16
BRANCH   9  18
HETATM   18  O4  UNK     1      19.643  -2.276  32.953  1.00  0.00    -0.351 OA
HETATM   19  C14 UNK     1      20.980  -2.585  33.341  1.00  0.00     0.210 C 
ENDBRANCH   9  18
TORSDOF 2
ENDMDL
MODEL 7
REMARK VINA RESULT:      -6.8      4.496      7.578
REMARK  2 active torsions:
REMARK  status: ('A' for Active; 'I' for Inactive)
REMARK    1  A    between atoms: C4_9  and  O3_3 
REMARK    2  A    between atoms: C6_11  and  O4_4 
ROOT
HETATM    1  O1  UNK     1      18.972  -4.952  36.792  1.00  0.00    -0.311 OA
HETATM    2  O2  UNK     1      18.594  -9.729  37.098  1.00  0.00    -0.319 OA
HETATM    3  O5  UNK     1      22.765  -5.141  38.264  1.00  0.00    -0.287 OA
HETATM    4  C1  UNK     1      20.803  -6.322  37.622  1.00  0.00     0.085 A 
HETATM    5  C2  UNK     1      20.509  -8.715  37.736  1.00  0.00     0.037 A 
HETATM    6  C3  UNK     1      19.509  -6.176  37.114  1.00  0.00     0.128 A 
HETATM    7  C4  UNK     1      21.324  -7.587  37.942  1.00  0.00     0.098 A 
HETATM    8  C5  UNK     1      19.227  -8.530  37.228  1.00  0.00     0.124 A 
HETATM    9  C6  UNK     1      18.685  -7.287  36.903  1.00  0.00     0.138 A 
HETATM   10  C7  UNK     1      21.625  -5.117  37.822  1.00  0.00     0.190 A 
HETATM   11  C8  UNK     1      20.651 -10.115  37.922  1.00  0.00     0.042 A 
HETATM   12  C9  UNK     1      19.747  -3.820  36.980  1.00  0.00     0.053 A 
HETATM   13  C10 UNK     1      20.998  -3.832  37.460  1.00  0.00     0.088 A 
HETATM   14  C11 UNK     1      19.464 -10.683  37.521  1.00  0.00     0.143 A 
HETATM   15  C12 UNK     1      19.053  -2.551  36.595  1.00  0.00     0.077 C 
ENDROOT
BRANCH   7  16
HETATM   16  O3  UNK     1      22.586  -7.751  38.439  1.00  0.00    -0.354 OA
HETATM   17  C13 UNK     1      22.695  -8.077  39.822  1.00  0.00     0.210 C 
ENDBRANCH   7  16
BRANCH   9  18
HETATM   18  O4  UNK     1      17.420  -7.161  36.407  1.00  0.00    -0.351 OA
HETATM   19  C14 UNK     1      17.218  -7.544  35.049  1.00  0.00     0.210 C 
ENDBRANCH   9  18
TORSDOF 2
ENDMDL
MODEL 8
REMARK VINA RESULT:      -6.6      3.022      6.053
REMARK  2 active torsions:
REMARK  status: ('A' for Active; 'I' for Inactive)
REMARK    1  A    between atoms: C4_9  and  O3_3 
REMARK    2  A    between atoms: C6_11  and  O4_4 
ROOT
HETATM    1  O1  UNK     1      18.690   0.765  32.957  1.00  0.00    -0.311 OA
HETATM    2  O2  UNK     1      17.787   5.227  34.484  1.00  0.00    -0.319 OA
HETATM    3  O5  UNK     1      19.127   2.139  29.147  1.00  0.00    -0.287 OA
HETATM    4  C1  UNK     1      18.673   2.654  31.424  1.00  0.00     0.085 A 
HETATM    5  C2  UNK     1      18.207   4.857  32.295  1.00  0.00     0.037 A 
HETATM    6  C3  UNK     1      18.537   2.108  32.703  1.00  0.00     0.128 A 
HETATM    7  C4  UNK     1      18.511   4.031  31.197  1.00  0.00     0.098 A 
HETATM    8  C5  UNK     1      18.080   4.276  33.553  1.00  0.00     0.124 A 
HETATM    9  C6  UNK     1      18.236   2.913  33.807  1.00  0.00     0.138 A 
HETATM   10  C7  UNK     1      18.992   1.757  30.301  1.00  0.00     0.190 A 
HETATM   11  C8  UNK     1      17.974   6.244  32.486  1.00  0.00     0.042 A 
HETATM   12  C9  UNK     1      18.991  -0.078  31.900  1.00  0.00     0.053 A 
HETATM   13  C10 UNK     1      19.145   0.327  30.631  1.00  0.00     0.088 A 
HETATM   14  C11 UNK     1      17.724   6.415  33.828  1.00  0.00     0.143 A 
HETATM   15  C12 UNK     1      19.131  -1.512  32.301  1.00  0.00     0.077 C 
ENDROOT
BRANCH   7  16
HETATM   16  O3  UNK     1      18.639   4.585  29.955  1.00  0.00    -0.354 OA
HETATM   17  C13 UNK     1      19.637   5.589  29.798  1.00  0.00     0.210 C 
ENDBRANCH   7  16
BRANCH   9  18
HETATM   18  O4  UNK     1      18.100   2.396  35.061  1.00  0.00    -0.351 OA
HETATM   19  C14 UNK     1      19.284   2.294  35.849  1.00  0.00     0.210 C 
ENDBRANCH   9  18
TORSDOF 2
ENDMDL
MODEL 9
REMARK VINA RESULT:      -6.5      1.919      5.944
REMARK  2 active torsions:
REMARK  status: ('A' for Active; 'I' for Inactive)
REMARK    1  A    between atoms: C4_9  and  O3_3 
REMARK    2  A    between atoms: C6_11  and  O4_4 
ROOT
HETATM    1  O1  UNK     1      19.037  -1.072  34.176  1.00  0.00    -0.311 OA
HETATM    2  O2  UNK     1      18.980   0.980  29.835  1.00  0.00    -0.319 OA
HETATM    3  O5  UNK     1      17.825   2.430  35.867  1.00  0.00    -0.287 OA
HETATM    4  C1  UNK     1      18.404   1.258  33.879  1.00  0.00     0.085 A 
HETATM    5  C2  UNK     1      18.409   2.193  31.654  1.00  0.00     0.037 A 
HETATM    6  C3  UNK     1      18.822   0.023  33.374  1.00  0.00     0.128 A 
HETATM    7  C4  UNK     1      18.192   2.359  33.034  1.00  0.00     0.098 A 
HETATM    8  C5  UNK     1      18.824   0.949  31.189  1.00  0.00     0.124 A 
HETATM    9  C6  UNK     1      19.042  -0.161  32.005  1.00  0.00     0.138 A 
HETATM   10  C7  UNK     1      18.187   1.392  35.330  1.00  0.00     0.190 A 
HETATM   11  C8  UNK     1      18.311   3.020  30.505  1.00  0.00     0.042 A 
HETATM   12  C9  UNK     1      18.832  -0.945  35.540  1.00  0.00     0.053 A 
HETATM   13  C10 UNK     1      18.433   0.185  36.141  1.00  0.00     0.088 A 
HETATM   14  C11 UNK     1      18.668   2.239  29.431  1.00  0.00     0.143 A 
HETATM   15  C12 UNK     1      19.100  -2.203  36.304  1.00  0.00     0.077 C 
ENDROOT
BRANCH   7  16
HETATM   16  O3  UNK     1      17.784   3.574  33.508  1.00  0.00    -0.354 OA
HETATM   17  C13 UNK     1      18.732   4.636  33.457  1.00  0.00     0.210 C 
ENDBRANCH   7  16
BRANCH   9  18
HETATM   18  O4  UNK     1      19.449  -1.359  31.496  1.00  0.00    -0.351 OA
HETATM   19  C14 UNK     1      20.848  -1.527  31.276  1.00  0.00     0.210 C 
ENDBRANCH   9  18
TORSDOF 2
ENDMDL
MODEL 10
REMARK VINA RESULT:      -6.5      1.940      4.887
REMARK  2 active torsions:
REMARK  status: ('A' for Active; 'I' for Inactive)
REMARK    1  A    between atoms: C4_9  and  O3_3 
REMARK    2  A    between atoms: C6_11  and  O4_4 
ROOT
HETATM    1  O1  UNK     1      19.253  -0.964  33.940  1.00  0.00    -0.311 OA
HETATM    2  O2  UNK     1      17.769   2.959  31.603  1.00  0.00    -0.319 OA
HETATM    3  O5  UNK     1      21.028  -2.339  30.541  1.00  0.00    -0.287 OA
HETATM    4  C1  UNK     1      19.761  -0.618  31.587  1.00  0.00     0.085 A 
HETATM    5  C2  UNK     1      18.968   1.389  30.506  1.00  0.00     0.037 A 
HETATM    6  C3  UNK     1      19.177  -0.214  32.790  1.00  0.00     0.128 A 
HETATM    7  C4  UNK     1      19.668   0.172  30.428  1.00  0.00     0.098 A 
HETATM    8  C5  UNK     1      18.400   1.757  31.722  1.00  0.00     0.124 A 
HETATM    9  C6  UNK     1      18.478   0.994  32.886  1.00  0.00     0.138 A 
HETATM   10  C7  UNK     1      20.487  -1.899  31.546  1.00  0.00     0.190 A 
HETATM   11  C8  UNK     1      18.655   2.438  29.602  1.00  0.00     0.042 A 
HETATM   12  C9  UNK     1      19.935  -2.169  33.901  1.00  0.00     0.053 A 
HETATM   13  C10 UNK     1      20.535  -2.661  32.808  1.00  0.00     0.088 A 
HETATM   14  C11 UNK     1      17.928   3.363  30.315  1.00  0.00     0.143 A 
HETATM   15  C12 UNK     1      19.946  -2.892  35.210  1.00  0.00     0.077 C 
ENDROOT
BRANCH   7  16
HETATM   16  O3  UNK     1      20.231  -0.205  29.242  1.00  0.00    -0.354 OA
HETATM   17  C13 UNK     1      19.340  -0.580  28.196  1.00  0.00     0.210 C 
ENDBRANCH   7  16
BRANCH   9  18
HETATM   18  O4  UNK     1      17.903   1.402  34.054  1.00  0.00    -0.351 OA
HETATM   19  C14 UNK     1      18.631   2.343  34.839  1.00  0.00     0.210 C 
ENDBRANCH   9  18
TORSDOF 2
ENDMDL
