MODEL 1
REMARK VINA RESULT:      -8.9      0.000      0.000
REMARK  8 active torsions:
REMARK  status: ('A' for Active; 'I' for Inactive)
REMARK    1  A    between atoms: C2_8  and  S1_1 
REMARK    2  A    between atoms: C8_14  and  S1_1 
REMARK    3  A    between atoms: C3_9  and  O1_2 
REMARK    4  A    between atoms: C24_30  and  O3_4 
REMARK    5  A    between atoms: C1_7  and  C2_8 
REMARK    6  A    between atoms: C13_19  and  C6_12 
REMARK    7  A    between atoms: C16_22  and  C18_24 
REMARK    8  A    between atoms: C17_23  and  C18_24 
ROOT
HETATM    1  C1  UNK     1      18.524   4.802  32.657  1.00  0.00    -0.014 A 
HETATM    2  C3  UNK     1      19.447   5.080  31.650  1.00  0.00     0.075 A 
HETATM    3  C4  UNK     1      18.464   5.611  33.792  1.00  0.00     0.022 A 
HETATM    4  C6  UNK     1      19.328   6.699  33.918  1.00  0.00    -0.035 A 
HETATM    5  C9  UNK     1      20.311   6.167  31.776  1.00  0.00     0.038 A 
HETATM    6  C10 UNK     1      20.251   6.977  32.911  1.00  0.00     0.014 A 
ENDROOT
BRANCH   1   7
HETATM    7  C2  UNK     1      17.585   3.632  32.538  1.00  0.00     0.123 C 
BRANCH   7   8
HETATM    8  S1  UNK     1      18.108   2.220  33.574  1.00  0.00    -0.087 SA
BRANCH   8   9
HETATM    9  C8  UNK     1      18.763   1.105  32.436  1.00  0.00     0.167 A 
HETATM   10  N1  UNK     1      18.919   1.461  31.125  1.00  0.00    -0.333 N 
HETATM   11  C5  UNK     1      19.455   0.387  30.461  1.00  0.00     0.063 A 
HETATM   12  H4  UNK     1      18.681   2.355  30.718  1.00  0.00     0.168 HD
HETATM   13  C11 UNK     1      19.816   0.193  29.127  1.00  0.00     0.032 A 
HETATM   14  C7  UNK     1      19.596  -0.591  31.442  1.00  0.00     0.086 A 
HETATM   15  C14 UNK     1      20.345  -1.058  28.794  1.00  0.00     0.002 A 
HETATM   16  C15 UNK     1      20.500  -2.059  29.756  1.00  0.00     0.002 A 
HETATM   17  C12 UNK     1      20.130  -1.842  31.089  1.00  0.00     0.034 A 
HETATM   18  N2  UNK     1      19.162  -0.127  32.662  1.00  0.00    -0.223 NA
ENDBRANCH   8   9
ENDBRANCH   7   8
ENDBRANCH   1   7
BRANCH   2  19
HETATM   19  O1  UNK     1      19.520   4.298  30.535  1.00  0.00    -0.355 OA
HETATM   20  C19 UNK     1      18.860   4.777  29.365  1.00  0.00     0.210 C 
ENDBRANCH   2  19
BRANCH   4  21
HETATM   21  C13 UNK     1      19.266   7.544  35.101  1.00  0.00     0.015 C 
HETATM   22  C16 UNK     1      18.671   8.756  35.162  1.00  0.00     0.056 C 
BRANCH  22  23
HETATM   23  C18 UNK     1      18.007   9.330  33.959  1.00  0.00     0.182 C 
HETATM   24  O2  UNK     1      18.445  10.310  33.366  1.00  0.00    -0.288 OA
BRANCH  23  25
HETATM   25  C17 UNK     1      16.784   8.655  33.460  1.00  0.00     0.014 A 
HETATM   26  C20 UNK     1      16.694   8.275  32.121  1.00  0.00     0.018 A 
HETATM   27  C22 UNK     1      15.544   7.641  31.652  1.00  0.00     0.037 A 
HETATM   28  C24 UNK     1      14.484   7.386  32.522  1.00  0.00     0.065 A 
HETATM   29  C23 UNK     1      14.574   7.766  33.861  1.00  0.00     0.037 A 
HETATM   30  C21 UNK     1      15.725   8.400  34.331  1.00  0.00     0.018 A 
BRANCH  28  31
HETATM   31  O3  UNK     1      13.361   6.767  32.064  1.00  0.00    -0.361 OA
HETATM   32  H20 UNK     1      13.577   6.289  31.245  1.00  0.00     0.217 HD
ENDBRANCH  28  31
ENDBRANCH  23  25
ENDBRANCH  22  23
ENDBRANCH   4  21
TORSDOF 8
ENDMDL
MODEL 2
REMARK VINA RESULT:      -8.5      1.907      3.313
REMARK  8 active torsions:
REMARK  status: ('A' for Active; 'I' for Inactive)
REMARK    1  A    between atoms: C2_8  and  S1_1 
REMARK    2  A    between atoms: C8_14  and  S1_1 
REMARK    3  A    between atoms: C3_9  and  O1_2 
REMARK    4  A    between atoms: C24_30  and  O3_4 
REMARK    5  A    between atoms: C1_7  and  C2_8 
REMARK    6  A    between atoms: C13_19  and  C6_12 
REMARK    7  A    between atoms: C16_22  and  C18_24 
REMARK    8  A    between atoms: C17_23  and  C18_24 
ROOT
HETATM    1  C1  UNK     1      19.205   5.575  31.875  1.00  0.00    -0.014 A 
HETATM    2  C3  UNK     1      20.362   6.210  32.327  1.00  0.00     0.075 A 
HETATM    3  C4  UNK     1      17.998   5.761  32.550  1.00  0.00     0.022 A 
HETATM    4  C6  UNK     1      17.949   6.583  33.676  1.00  0.00    -0.035 A 
HETATM    5  C9  UNK     1      20.313   7.031  33.452  1.00  0.00     0.038 A 
HETATM    6  C10 UNK     1      19.106   7.218  34.128  1.00  0.00     0.014 A 
ENDROOT
BRANCH   1   7
HETATM    7  C2  UNK     1      19.239   4.685  30.663  1.00  0.00     0.123 C 
BRANCH   7   8
HETATM    8  S1  UNK     1      17.837   3.512  30.628  1.00  0.00    -0.087 SA
BRANCH   8   9
HETATM    9  C8  UNK     1      18.601   1.969  30.610  1.00  0.00     0.167 A 
HETATM   10  N1  UNK     1      19.283   1.544  29.504  1.00  0.00    -0.333 N 
HETATM   11  C5  UNK     1      19.780   0.294  29.773  1.00  0.00     0.063 A 
HETATM   12  H4  UNK     1      19.399   2.058  28.641  1.00  0.00     0.168 HD
HETATM   13  C11 UNK     1      20.541  -0.597  29.016  1.00  0.00     0.032 A 
HETATM   14  C7  UNK     1      19.356   0.025  31.072  1.00  0.00     0.086 A 
HETATM   15  C14 UNK     1      20.877  -1.812  29.623  1.00  0.00     0.002 A 
HETATM   16  C15 UNK     1      20.467  -2.109  30.925  1.00  0.00     0.002 A 
HETATM   17  C12 UNK     1      19.703  -1.199  31.666  1.00  0.00     0.034 A 
HETATM   18  N2  UNK     1      18.625   1.077  31.575  1.00  0.00    -0.223 NA
ENDBRANCH   8   9
ENDBRANCH   7   8
ENDBRANCH   1   7
BRANCH   2  19
HETATM   19  O1  UNK     1      21.549   6.037  31.680  1.00  0.00    -0.355 OA
HETATM   20  C19 UNK     1      22.676   5.682  32.479  1.00  0.00     0.210 C 
ENDBRANCH   2  19
BRANCH   4  21
HETATM   21  C13 UNK     1      16.691   6.778  34.380  1.00  0.00     0.015 C 
HETATM   22  C16 UNK     1      15.860   7.831  34.214  1.00  0.00     0.056 C 
BRANCH  22  23
HETATM   23  C18 UNK     1      16.200   8.913  33.246  1.00  0.00     0.182 C 
HETATM   24  O2  UNK     1      16.029   8.795  32.037  1.00  0.00    -0.288 OA
BRANCH  23  25
HETATM   25  C17 UNK     1      16.736  10.182  33.793  1.00  0.00     0.014 A 
HETATM   26  C20 UNK     1      15.869  11.126  34.343  1.00  0.00     0.018 A 
HETATM   27  C22 UNK     1      16.374  12.321  34.857  1.00  0.00     0.037 A 
HETATM   28  C24 UNK     1      17.746  12.571  34.822  1.00  0.00     0.065 A 
HETATM   29  C23 UNK     1      18.613  11.626  34.271  1.00  0.00     0.037 A 
HETATM   30  C21 UNK     1      18.108  10.432  33.758  1.00  0.00     0.018 A 
BRANCH  28  31
HETATM   31  O3  UNK     1      18.238  13.737  35.322  1.00  0.00    -0.361 OA
HETATM   32  H20 UNK     1      17.520  14.392  35.357  1.00  0.00     0.217 HD
ENDBRANCH  28  31
ENDBRANCH  23  25
ENDBRANCH  22  23
ENDBRANCH   4  21
TORSDOF 8
ENDMDL
MODEL 3
REMARK VINA RESULT:      -8.4      5.544     10.773
REMARK  8 active torsions:
REMARK  status: ('A' for Active; 'I' for Inactive)
REMARK    1  A    between atoms: C2_8  and  S1_1 
REMARK    2  A    between atoms: C8_14  and  S1_1 
REMARK    3  A    between atoms: C3_9  and  O1_2 
REMARK    4  A    between atoms: C24_30  and  O3_4 
REMARK    5  A    between atoms: C1_7  and  C2_8 
REMARK    6  A    between atoms: C13_19  and  C6_12 
REMARK    7  A    between atoms: C16_22  and  C18_24 
REMARK    8  A    between atoms: C17_23  and  C18_24 
ROOT
HETATM    1  C1  UNK     1      18.515  -0.955  34.522  1.00  0.00    -0.014 A 
HETATM    2  C3  UNK     1      19.044  -1.345  33.292  1.00  0.00     0.075 A 
HETATM    3  C4  UNK     1      19.061  -1.451  35.705  1.00  0.00     0.022 A 
HETATM    4  C6  UNK     1      20.138  -2.337  35.659  1.00  0.00    -0.035 A 
HETATM    5  C9  UNK     1      20.119  -2.231  33.245  1.00  0.00     0.038 A 
HETATM    6  C10 UNK     1      20.667  -2.727  34.429  1.00  0.00     0.014 A 
ENDROOT
BRANCH   1   7
HETATM    7  C2  UNK     1      17.354  -0.001  34.592  1.00  0.00     0.123 C 
BRANCH   7   8
HETATM    8  S1  UNK     1      17.757   1.508  35.543  1.00  0.00    -0.087 SA
BRANCH   8   9
HETATM    9  C8  UNK     1      18.073   2.682  34.322  1.00  0.00     0.167 A 
HETATM   10  N1  UNK     1      18.525   3.928  34.657  1.00  0.00    -0.333 N 
HETATM   11  C5  UNK     1      18.686   4.640  33.496  1.00  0.00     0.063 A 
HETATM   12  H4  UNK     1      18.708   4.264  35.593  1.00  0.00     0.168 HD
HETATM   13  C11 UNK     1      19.116   5.944  33.247  1.00  0.00     0.032 A 
HETATM   14  C7  UNK     1      18.308   3.754  32.491  1.00  0.00     0.086 A 
HETATM   15  C14 UNK     1      19.159   6.348  31.908  1.00  0.00     0.002 A 
HETATM   16  C15 UNK     1      18.787   5.481  30.878  1.00  0.00     0.002 A 
HETATM   17  C12 UNK     1      18.357   4.176  31.152  1.00  0.00     0.034 A 
HETATM   18  N2  UNK     1      17.930   2.543  33.023  1.00  0.00    -0.223 NA
ENDBRANCH   8   9
ENDBRANCH   7   8
ENDBRANCH   1   7
BRANCH   2  19
HETATM   19  O1  UNK     1      18.521  -0.871  32.126  1.00  0.00    -0.355 OA
HETATM   20  C19 UNK     1      19.409  -0.174  31.255  1.00  0.00     0.210 C 
ENDBRANCH   2  19
BRANCH   4  21
HETATM   21  C13 UNK     1      20.708  -2.855  36.893  1.00  0.00     0.015 C 
HETATM   22  C16 UNK     1      20.450  -4.072  37.420  1.00  0.00     0.056 C 
BRANCH  22  23
HETATM   23  C18 UNK     1      19.516  -5.008  36.732  1.00  0.00     0.182 C 
HETATM   24  O2  UNK     1      18.313  -4.788  36.635  1.00  0.00    -0.288 OA
BRANCH  23  25
HETATM   25  C17 UNK     1      20.092  -6.231  36.123  1.00  0.00     0.014 A 
HETATM   26  C20 UNK     1      20.010  -6.429  34.745  1.00  0.00     0.018 A 
HETATM   27  C22 UNK     1      20.551  -7.580  34.172  1.00  0.00     0.037 A 
HETATM   28  C24 UNK     1      21.175  -8.533  34.978  1.00  0.00     0.065 A 
HETATM   29  C23 UNK     1      21.256  -8.335  36.357  1.00  0.00     0.037 A 
HETATM   30  C21 UNK     1      20.715  -7.183  36.929  1.00  0.00     0.018 A 
BRANCH  28  31
HETATM   31  O3  UNK     1      21.702  -9.657  34.420  1.00  0.00    -0.361 OA
HETATM   32  H20 UNK     1      22.665  -9.654  34.557  1.00  0.00     0.217 HD
ENDBRANCH  28  31
ENDBRANCH  23  25
ENDBRANCH  22  23
ENDBRANCH   4  21
TORSDOF 8
ENDMDL
MODEL 4
REMARK VINA RESULT:      -8.3      9.233     14.571
REMARK  8 active torsions:
REMARK  status: ('A' for Active; 'I' for Inactive)
REMARK    1  A    between atoms: C2_8  and  S1_1 
REMARK    2  A    between atoms: C8_14  and  S1_1 
REMARK    3  A    between atoms: C3_9  and  O1_2 
REMARK    4  A    between atoms: C24_30  and  O3_4 
REMARK    5  A    between atoms: C1_7  and  C2_8 
REMARK    6  A    between atoms: C13_19  and  C6_12 
REMARK    7  A    between atoms: C16_22  and  C18_24 
REMARK    8  A    between atoms: C17_23  and  C18_24 
ROOT
HETATM    1  C1  UNK     1      21.517  -5.684  38.366  1.00  0.00    -0.014 A 
HETATM    2  C3  UNK     1      22.789  -6.073  38.785  1.00  0.00     0.075 A 
HETATM    3  C4  UNK     1      20.423  -6.519  38.593  1.00  0.00     0.022 A 
HETATM    4  C6  UNK     1      20.602  -7.742  39.239  1.00  0.00    -0.035 A 
HETATM    5  C9  UNK     1      22.968  -7.295  39.430  1.00  0.00     0.038 A 
HETATM    6  C10 UNK     1      21.874  -8.131  39.658  1.00  0.00     0.014 A 
ENDROOT
BRANCH   1   7
HETATM    7  C2  UNK     1      21.306  -4.369  37.667  1.00  0.00     0.123 C 
BRANCH   7   8
HETATM    8  S1  UNK     1      19.843  -4.398  36.570  1.00  0.00    -0.087 SA
BRANCH   8   9
HETATM    9  C8  UNK     1      19.308  -2.761  36.568  1.00  0.00     0.167 A 
HETATM   10  N1  UNK     1      18.614  -2.254  37.632  1.00  0.00    -0.333 N 
HETATM   11  C5  UNK     1      18.321  -0.943  37.355  1.00  0.00     0.063 A 
HETATM   12  H4  UNK     1      18.362  -2.757  38.472  1.00  0.00     0.168 HD
HETATM   13  C11 UNK     1      17.642   0.039  38.076  1.00  0.00     0.032 A 
HETATM   14  C7  UNK     1      18.873  -0.724  36.096  1.00  0.00     0.086 A 
HETATM   15  C14 UNK     1      17.528   1.297  37.474  1.00  0.00     0.002 A 
HETATM   16  C15 UNK     1      18.073   1.547  36.212  1.00  0.00     0.002 A 
HETATM   17  C12 UNK     1      18.750   0.545  35.506  1.00  0.00     0.034 A 
HETATM   18  N2  UNK     1      19.481  -1.864  35.623  1.00  0.00    -0.223 NA
ENDBRANCH   8   9
ENDBRANCH   7   8
ENDBRANCH   1   7
BRANCH   2  19
HETATM   19  O1  UNK     1      23.869  -5.269  38.570  1.00  0.00    -0.355 OA
HETATM   20  C19 UNK     1      25.138  -5.763  38.994  1.00  0.00     0.210 C 
ENDBRANCH   2  19
BRANCH   4  21
HETATM   21  C13 UNK     1      19.461  -8.614  39.476  1.00  0.00     0.015 C 
HETATM   22  C16 UNK     1      18.736  -9.227  38.514  1.00  0.00     0.056 C 
BRANCH  22  23
HETATM   23  C18 UNK     1      19.080  -9.038  37.076  1.00  0.00     0.182 C 
HETATM   24  O2  UNK     1      18.422  -8.323  36.328  1.00  0.00    -0.288 OA
BRANCH  23  25
HETATM   25  C17 UNK     1      20.286  -9.729  36.561  1.00  0.00     0.014 A 
HETATM   26  C20 UNK     1      20.968  -9.213  35.458  1.00  0.00     0.018 A 
HETATM   27  C22 UNK     1      22.103  -9.864  34.973  1.00  0.00     0.037 A 
HETATM   28  C24 UNK     1      22.556 -11.029  35.592  1.00  0.00     0.065 A 
HETATM   29  C23 UNK     1      21.875 -11.545  36.695  1.00  0.00     0.037 A 
HETATM   30  C21 UNK     1      20.740 -10.894  37.180  1.00  0.00     0.018 A 
BRANCH  28  31
HETATM   31  O3  UNK     1      23.663 -11.665  35.118  1.00  0.00    -0.361 OA
HETATM   32  H20 UNK     1      23.927 -11.252  34.277  1.00  0.00     0.217 HD
ENDBRANCH  28  31
ENDBRANCH  23  25
ENDBRANCH  22  23
ENDBRANCH   4  21
TORSDOF 8
ENDMDL
MODEL 5
REMARK VINA RESULT:      -8.3      8.864     14.040
REMARK  8 active torsions:
REMARK  status: ('A' for Active; 'I' for Inactive)
REMARK    1  A    between atoms: C2_8  and  S1_1 
REMARK    2  A    between atoms: C8_14  and  S1_1 
REMARK    3  A    between atoms: C3_9  and  O1_2 
REMARK    4  A    between atoms: C24_30  and  O3_4 
REMARK    5  A    between atoms: C1_7  and  C2_8 
REMARK    6  A    between atoms: C13_19  and  C6_12 
REMARK    7  A    between atoms: C16_22  and  C18_24 
REMARK    8  A    between atoms: C17_23  and  C18_24 
ROOT
HETATM    1  C1  UNK     1      21.540  -5.821  38.488  1.00  0.00    -0.014 A 
HETATM    2  C3  UNK     1      22.827  -6.217  38.850  1.00  0.00     0.075 A 
HETATM    3  C4  UNK     1      20.454  -6.657  38.748  1.00  0.00     0.022 A 
HETATM    4  C6  UNK     1      20.656  -7.889  39.370  1.00  0.00    -0.035 A 
HETATM    5  C9  UNK     1      23.029  -7.448  39.472  1.00  0.00     0.038 A 
HETATM    6  C10 UNK     1      21.944  -8.285  39.732  1.00  0.00     0.014 A 
ENDROOT
BRANCH   1   7
HETATM    7  C2  UNK     1      21.303  -4.496  37.815  1.00  0.00     0.123 C 
BRANCH   7   8
HETATM    8  S1  UNK     1      19.825  -4.524  36.739  1.00  0.00    -0.087 SA
BRANCH   8   9
HETATM    9  C8  UNK     1      19.319  -2.878  36.705  1.00  0.00     0.167 A 
HETATM   10  N1  UNK     1      18.633  -2.340  37.759  1.00  0.00    -0.333 N 
HETATM   11  C5  UNK     1      18.364  -1.029  37.457  1.00  0.00     0.063 A 
HETATM   12  H4  UNK     1      18.370  -2.823  38.607  1.00  0.00     0.168 HD
HETATM   13  C11 UNK     1      17.701  -0.022  38.159  1.00  0.00     0.032 A 
HETATM   14  C7  UNK     1      18.921  -0.843  36.195  1.00  0.00     0.086 A 
HETATM   15  C14 UNK     1      17.611   1.227  37.534  1.00  0.00     0.002 A 
HETATM   16  C15 UNK     1      18.161   1.444  36.268  1.00  0.00     0.002 A 
HETATM   17  C12 UNK     1      18.822   0.417  35.583  1.00  0.00     0.034 A 
HETATM   18  N2  UNK     1      19.510  -2.002  35.744  1.00  0.00    -0.223 NA
ENDBRANCH   8   9
ENDBRANCH   7   8
ENDBRANCH   1   7
BRANCH   2  19
HETATM   19  O1  UNK     1      23.899  -5.412  38.602  1.00  0.00    -0.355 OA
HETATM   20  C19 UNK     1      25.181  -5.906  38.985  1.00  0.00     0.210 C 
ENDBRANCH   2  19
BRANCH   4  21
HETATM   21  C13 UNK     1      19.525  -8.762  39.642  1.00  0.00     0.015 C 
HETATM   22  C16 UNK     1      19.187  -9.850  38.914  1.00  0.00     0.056 C 
BRANCH  22  23
HETATM   23  C18 UNK     1      19.999 -10.243  37.727  1.00  0.00     0.182 C 
HETATM   24  O2  UNK     1      20.570 -11.324  37.646  1.00  0.00    -0.288 OA
BRANCH  23  25
HETATM   25  C17 UNK     1      20.079  -9.282  36.600  1.00  0.00     0.014 A 
HETATM   26  C20 UNK     1      18.971  -8.502  36.269  1.00  0.00     0.018 A 
HETATM   27  C22 UNK     1      19.046  -7.599  35.207  1.00  0.00     0.037 A 
HETATM   28  C24 UNK     1      20.230  -7.476  34.479  1.00  0.00     0.065 A 
HETATM   29  C23 UNK     1      21.337  -8.256  34.811  1.00  0.00     0.037 A 
HETATM   30  C21 UNK     1      21.262  -9.159  35.872  1.00  0.00     0.018 A 
BRANCH  28  31
HETATM   31  O3  UNK     1      20.303  -6.596  33.444  1.00  0.00    -0.361 OA
HETATM   32  H20 UNK     1      20.130  -5.700  33.780  1.00  0.00     0.217 HD
ENDBRANCH  28  31
ENDBRANCH  23  25
ENDBRANCH  22  23
ENDBRANCH   4  21
TORSDOF 8
ENDMDL
MODEL 6
REMARK VINA RESULT:      -8.3     15.297     17.353
REMARK  8 active torsions:
REMARK  status: ('A' for Active; 'I' for Inactive)
REMARK    1  A    between atoms: C2_8  and  S1_1 
REMARK    2  A    between atoms: C8_14  and  S1_1 
REMARK    3  A    between atoms: C3_9  and  O1_2 
REMARK    4  A    between atoms: C24_30  and  O3_4 
REMARK    5  A    between atoms: C1_7  and  C2_8 
REMARK    6  A    between atoms: C13_19  and  C6_12 
REMARK    7  A    between atoms: C16_22  and  C18_24 
REMARK    8  A    between atoms: C17_23  and  C18_24 
ROOT
HETATM    1  C1  UNK     1      29.900  -6.652  33.826  1.00  0.00    -0.014 A 
HETATM    2  C3  UNK     1      29.853  -8.044  33.765  1.00  0.00     0.075 A 
HETATM    3  C4  UNK     1      30.924  -6.019  34.531  1.00  0.00     0.022 A 
HETATM    4  C6  UNK     1      31.901  -6.779  35.173  1.00  0.00    -0.035 A 
HETATM    5  C9  UNK     1      30.829  -8.804  34.407  1.00  0.00     0.038 A 
HETATM    6  C10 UNK     1      31.854  -8.172  35.112  1.00  0.00     0.014 A 
ENDROOT
BRANCH   1   7
HETATM    7  C2  UNK     1      28.855  -5.816  33.139  1.00  0.00     0.123 C 
BRANCH   7   8
HETATM    8  S1  UNK     1      29.449  -5.138  31.548  1.00  0.00    -0.087 SA
BRANCH   8   9
HETATM    9  C8  UNK     1      29.497  -6.516  30.516  1.00  0.00     0.167 A 
HETATM   10  N1  UNK     1      28.403  -7.326  30.385  1.00  0.00    -0.333 N 
HETATM   11  C5  UNK     1      28.728  -8.331  29.510  1.00  0.00     0.063 A 
HETATM   12  H4  UNK     1      27.514  -7.205  30.851  1.00  0.00     0.168 HD
HETATM   13  C11 UNK     1      28.005  -9.418  29.018  1.00  0.00     0.032 A 
HETATM   14  C7  UNK     1      30.046  -8.063  29.149  1.00  0.00     0.086 A 
HETATM   15  C14 UNK     1      28.667 -10.260  28.118  1.00  0.00     0.002 A 
HETATM   16  C15 UNK     1      29.989 -10.016  27.737  1.00  0.00     0.002 A 
HETATM   17  C12 UNK     1      30.696  -8.919  28.244  1.00  0.00     0.034 A 
HETATM   18  N2  UNK     1      30.507  -6.932  29.784  1.00  0.00    -0.223 NA
ENDBRANCH   8   9
ENDBRANCH   7   8
ENDBRANCH   1   7
BRANCH   2  19
HETATM   19  O1  UNK     1      28.858  -8.678  33.081  1.00  0.00    -0.355 OA
HETATM   20  C19 UNK     1      29.063 -10.055  32.770  1.00  0.00     0.210 C 
ENDBRANCH   2  19
BRANCH   4  21
HETATM   21  C13 UNK     1      32.970  -6.120  35.908  1.00  0.00     0.015 C 
HETATM   22  C16 UNK     1      33.090  -6.096  37.255  1.00  0.00     0.056 C 
BRANCH  22  23
HETATM   23  C18 UNK     1      32.082  -6.780  38.113  1.00  0.00     0.182 C 
HETATM   24  O2  UNK     1      32.312  -7.838  38.688  1.00  0.00    -0.288 OA
BRANCH  23  25
HETATM   25  C17 UNK     1      30.765  -6.121  38.285  1.00  0.00     0.014 A 
HETATM   26  C20 UNK     1      30.700  -4.768  38.619  1.00  0.00     0.018 A 
HETATM   27  C22 UNK     1      29.461  -4.149  38.783  1.00  0.00     0.037 A 
HETATM   28  C24 UNK     1      28.286  -4.882  38.612  1.00  0.00     0.065 A 
HETATM   29  C23 UNK     1      28.351  -6.235  38.279  1.00  0.00     0.037 A 
HETATM   30  C21 UNK     1      29.590  -6.855  38.115  1.00  0.00     0.018 A 
BRANCH  28  31
HETATM   31  O3  UNK     1      27.077  -4.277  38.773  1.00  0.00    -0.361 OA
HETATM   32  H20 UNK     1      27.106  -3.724  39.572  1.00  0.00     0.217 HD
ENDBRANCH  28  31
ENDBRANCH  23  25
ENDBRANCH  22  23
ENDBRANCH   4  21
TORSDOF 8
ENDMDL
MODEL 7
REMARK VINA RESULT:      -8.2      8.501     13.568
REMARK  8 active torsions:
REMARK  status: ('A' for Active; 'I' for Inactive)
REMARK    1  A    between atoms: C2_8  and  S1_1 
REMARK    2  A    between atoms: C8_14  and  S1_1 
REMARK    3  A    between atoms: C3_9  and  O1_2 
REMARK    4  A    between atoms: C24_30  and  O3_4 
REMARK    5  A    between atoms: C1_7  and  C2_8 
REMARK    6  A    between atoms: C13_19  and  C6_12 
REMARK    7  A    between atoms: C16_22  and  C18_24 
REMARK    8  A    between atoms: C17_23  and  C18_24 
ROOT
HETATM    1  C1  UNK     1      21.698  -5.825  38.352  1.00  0.00    -0.014 A 
HETATM    2  C3  UNK     1      22.921  -6.271  38.851  1.00  0.00     0.075 A 
HETATM    3  C4  UNK     1      20.542  -6.577  38.565  1.00  0.00     0.022 A 
HETATM    4  C6  UNK     1      20.610  -7.774  39.276  1.00  0.00    -0.035 A 
HETATM    5  C9  UNK     1      22.990  -7.469  39.562  1.00  0.00     0.038 A 
HETATM    6  C10 UNK     1      21.834  -8.221  39.775  1.00  0.00     0.014 A 
ENDROOT
BRANCH   1   7
HETATM    7  C2  UNK     1      21.605  -4.536  37.582  1.00  0.00     0.123 C 
BRANCH   7   8
HETATM    8  S1  UNK     1      19.877  -3.970  37.390  1.00  0.00    -0.087 SA
BRANCH   8   9
HETATM    9  C8  UNK     1      19.871  -3.210  35.844  1.00  0.00     0.167 A 
HETATM   10  N1  UNK     1      18.992  -2.199  35.570  1.00  0.00    -0.333 N 
HETATM   11  C5  UNK     1      19.213  -1.791  34.279  1.00  0.00     0.063 A 
HETATM   12  H4  UNK     1      18.303  -1.820  36.206  1.00  0.00     0.168 HD
HETATM   13  C11 UNK     1      18.614  -0.809  33.490  1.00  0.00     0.032 A 
HETATM   14  C7  UNK     1      20.247  -2.608  33.831  1.00  0.00     0.086 A 
HETATM   15  C14 UNK     1      19.104  -0.663  32.187  1.00  0.00     0.002 A 
HETATM   16  C15 UNK     1      20.142  -1.467  31.709  1.00  0.00     0.002 A 
HETATM   17  C12 UNK     1      20.727  -2.448  32.520  1.00  0.00     0.034 A 
HETATM   18  N2  UNK     1      20.643  -3.483  34.816  1.00  0.00    -0.223 NA
ENDBRANCH   8   9
ENDBRANCH   7   8
ENDBRANCH   1   7
BRANCH   2  19
HETATM   19  O1  UNK     1      24.060  -5.550  38.651  1.00  0.00    -0.355 OA
HETATM   20  C19 UNK     1      25.296  -6.192  38.961  1.00  0.00     0.210 C 
ENDBRANCH   2  19
BRANCH   4  21
HETATM   21  C13 UNK     1      19.405  -8.559  39.498  1.00  0.00     0.015 C 
HETATM   22  C16 UNK     1      19.002  -9.600  38.736  1.00  0.00     0.056 C 
BRANCH  22  23
HETATM   23  C18 UNK     1      19.810 -10.030  37.561  1.00  0.00     0.182 C 
HETATM   24  O2  UNK     1      20.291 -11.154  37.465  1.00  0.00    -0.288 OA
BRANCH  23  25
HETATM   25  C17 UNK     1      20.003  -9.052  36.463  1.00  0.00     0.014 A 
HETATM   26  C20 UNK     1      21.201  -9.031  35.749  1.00  0.00     0.018 A 
HETATM   27  C22 UNK     1      21.383  -8.110  34.718  1.00  0.00     0.037 A 
HETATM   28  C24 UNK     1      20.365  -7.211  34.399  1.00  0.00     0.065 A 
HETATM   29  C23 UNK     1      19.166  -7.232  35.112  1.00  0.00     0.037 A 
HETATM   30  C21 UNK     1      18.985  -8.153  36.144  1.00  0.00     0.018 A 
BRANCH  28  31
HETATM   31  O3  UNK     1      20.542  -6.312  33.392  1.00  0.00    -0.361 OA
HETATM   32  H20 UNK     1      19.810  -6.401  32.758  1.00  0.00     0.217 HD
ENDBRANCH  28  31
ENDBRANCH  23  25
ENDBRANCH  22  23
ENDBRANCH   4  21
TORSDOF 8
ENDMDL
MODEL 8
REMARK VINA RESULT:      -8.0     15.396     18.299
REMARK  8 active torsions:
REMARK  status: ('A' for Active; 'I' for Inactive)
REMARK    1  A    between atoms: C2_8  and  S1_1 
REMARK    2  A    between atoms: C8_14  and  S1_1 
REMARK    3  A    between atoms: C3_9  and  O1_2 
REMARK    4  A    between atoms: C24_30  and  O3_4 
REMARK    5  A    between atoms: C1_7  and  C2_8 
REMARK    6  A    between atoms: C13_19  and  C6_12 
REMARK    7  A    between atoms: C16_22  and  C18_24 
REMARK    8  A    between atoms: C17_23  and  C18_24 
ROOT
HETATM    1  C1  UNK     1      32.304  -9.568  35.353  1.00  0.00    -0.014 A 
HETATM    2  C3  UNK     1      33.162  -8.504  35.628  1.00  0.00     0.075 A 
HETATM    3  C4  UNK     1      31.452 -10.052  36.346  1.00  0.00     0.022 A 
HETATM    4  C6  UNK     1      31.457  -9.469  37.613  1.00  0.00    -0.035 A 
HETATM    5  C9  UNK     1      33.168  -7.922  36.895  1.00  0.00     0.038 A 
HETATM    6  C10 UNK     1      32.315  -8.404  37.888  1.00  0.00     0.014 A 
ENDROOT
BRANCH   1   7
HETATM    7  C2  UNK     1      32.285 -10.209  33.992  1.00  0.00     0.123 C 
BRANCH   7   8
HETATM    8  S1  UNK     1      30.718 -11.093  33.667  1.00  0.00    -0.087 SA
BRANCH   8   9
HETATM    9  C8  UNK     1      29.714  -9.887  32.957  1.00  0.00     0.167 A 
HETATM   10  N1  UNK     1      29.132 -10.096  31.737  1.00  0.00    -0.333 N 
HETATM   11  C5  UNK     1      28.399  -8.979  31.427  1.00  0.00     0.063 A 
HETATM   12  H4  UNK     1      29.227 -10.925  31.167  1.00  0.00     0.168 HD
HETATM   13  C11 UNK     1      27.613  -8.650  30.322  1.00  0.00     0.032 A 
HETATM   14  C7  UNK     1      28.586  -8.129  32.513  1.00  0.00     0.086 A 
HETATM   15  C14 UNK     1      26.995  -7.395  30.340  1.00  0.00     0.002 A 
HETATM   16  C15 UNK     1      27.163  -6.521  31.417  1.00  0.00     0.002 A 
HETATM   17  C12 UNK     1      27.958  -6.872  32.515  1.00  0.00     0.034 A 
HETATM   18  N2  UNK     1      29.406  -8.709  33.453  1.00  0.00    -0.223 NA
ENDBRANCH   8   9
ENDBRANCH   7   8
ENDBRANCH   1   7
BRANCH   2  19
HETATM   19  O1  UNK     1      34.002  -8.020  34.670  1.00  0.00    -0.355 OA
HETATM   20  C19 UNK     1      33.929  -6.624  34.389  1.00  0.00     0.210 C 
ENDBRANCH   2  19
BRANCH   4  21
HETATM   21  C13 UNK     1      30.568  -9.972  38.649  1.00  0.00     0.015 C 
HETATM   22  C16 UNK     1      29.250  -9.692  38.749  1.00  0.00     0.056 C 
BRANCH  22  23
HETATM   23  C18 UNK     1      28.592  -8.804  37.749  1.00  0.00     0.182 C 
HETATM   24  O2  UNK     1      27.682  -9.188  37.021  1.00  0.00    -0.288 OA
BRANCH  23  25
HETATM   25  C17 UNK     1      29.052  -7.397  37.670  1.00  0.00     0.014 A 
HETATM   26  C20 UNK     1      29.461  -6.864  36.447  1.00  0.00     0.018 A 
HETATM   27  C22 UNK     1      29.896  -5.540  36.374  1.00  0.00     0.037 A 
HETATM   28  C24 UNK     1      29.920  -4.750  37.523  1.00  0.00     0.065 A 
HETATM   29  C23 UNK     1      29.511  -5.283  38.746  1.00  0.00     0.037 A 
HETATM   30  C21 UNK     1      29.077  -6.606  38.819  1.00  0.00     0.018 A 
BRANCH  28  31
HETATM   31  O3  UNK     1      30.345  -3.458  37.451  1.00  0.00    -0.361 OA
HETATM   32  H20 UNK     1      30.874  -3.257  38.242  1.00  0.00     0.217 HD
ENDBRANCH  28  31
ENDBRANCH  23  25
ENDBRANCH  22  23
ENDBRANCH   4  21
TORSDOF 8
ENDMDL
MODEL 9
REMARK VINA RESULT:      -8.0     15.788     17.836
REMARK  8 active torsions:
REMARK  status: ('A' for Active; 'I' for Inactive)
REMARK    1  A    between atoms: C2_8  and  S1_1 
REMARK    2  A    between atoms: C8_14  and  S1_1 
REMARK    3  A    between atoms: C3_9  and  O1_2 
REMARK    4  A    between atoms: C24_30  and  O3_4 
REMARK    5  A    between atoms: C1_7  and  C2_8 
REMARK    6  A    between atoms: C13_19  and  C6_12 
REMARK    7  A    between atoms: C16_22  and  C18_24 
REMARK    8  A    between atoms: C17_23  and  C18_24 
ROOT
HETATM    1  C1  UNK     1      32.825  -7.127  33.707  1.00  0.00    -0.014 A 
HETATM    2  C3  UNK     1      31.848  -6.260  33.218  1.00  0.00     0.075 A 
HETATM    3  C4  UNK     1      33.436  -6.868  34.934  1.00  0.00     0.022 A 
HETATM    4  C6  UNK     1      33.069  -5.743  35.672  1.00  0.00    -0.035 A 
HETATM    5  C9  UNK     1      31.481  -5.135  33.955  1.00  0.00     0.038 A 
HETATM    6  C10 UNK     1      32.092  -4.876  35.183  1.00  0.00     0.014 A 
ENDROOT
BRANCH   1   7
HETATM    7  C2  UNK     1      33.234  -8.345  32.925  1.00  0.00     0.123 C 
BRANCH   7   8
HETATM    8  S1  UNK     1      32.178  -9.791  33.298  1.00  0.00    -0.087 SA
BRANCH   8   9
HETATM    9  C8  UNK     1      31.103  -9.863  31.954  1.00  0.00     0.167 A 
HETATM   10  N1  UNK     1      29.942  -9.139  31.953  1.00  0.00    -0.333 N 
HETATM   11  C5  UNK     1      29.295  -9.390  30.770  1.00  0.00     0.063 A 
HETATM   12  H4  UNK     1      29.619  -8.530  32.692  1.00  0.00     0.168 HD
HETATM   13  C11 UNK     1      28.088  -8.927  30.244  1.00  0.00     0.032 A 
HETATM   14  C7  UNK     1      30.129 -10.281  30.100  1.00  0.00     0.086 A 
HETATM   15  C14 UNK     1      27.729  -9.403  28.978  1.00  0.00     0.002 A 
HETATM   16  C15 UNK     1      28.546 -10.297  28.282  1.00  0.00     0.002 A 
HETATM   17  C12 UNK     1      29.753 -10.748  28.830  1.00  0.00     0.034 A 
HETATM   18  N2  UNK     1      31.247 -10.563  30.851  1.00  0.00    -0.223 NA
ENDBRANCH   8   9
ENDBRANCH   7   8
ENDBRANCH   1   7
BRANCH   2  19
HETATM   19  O1  UNK     1      31.242  -6.498  32.021  1.00  0.00    -0.355 OA
HETATM   20  C19 UNK     1      30.203  -5.601  31.631  1.00  0.00     0.210 C 
ENDBRANCH   2  19
BRANCH   4  21
HETATM   21  C13 UNK     1      33.706  -5.472  36.951  1.00  0.00     0.015 C 
HETATM   22  C16 UNK     1      33.287  -5.945  38.146  1.00  0.00     0.056 C 
BRANCH  22  23
HETATM   23  C18 UNK     1      32.083  -6.820  38.229  1.00  0.00     0.182 C 
HETATM   24  O2  UNK     1      32.154  -8.044  38.219  1.00  0.00    -0.288 OA
BRANCH  23  25
HETATM   25  C17 UNK     1      30.761  -6.161  38.357  1.00  0.00     0.014 A 
HETATM   26  C20 UNK     1      29.593  -6.897  38.158  1.00  0.00     0.018 A 
HETATM   27  C22 UNK     1      28.349  -6.277  38.277  1.00  0.00     0.037 A 
HETATM   28  C24 UNK     1      28.274  -4.921  38.596  1.00  0.00     0.065 A 
HETATM   29  C23 UNK     1      29.442  -4.185  38.794  1.00  0.00     0.037 A 
HETATM   30  C21 UNK     1      30.686  -4.805  38.676  1.00  0.00     0.018 A 
BRANCH  28  31
HETATM   31  O3  UNK     1      27.060  -4.315  38.712  1.00  0.00    -0.361 OA
HETATM   32  H20 UNK     1      26.709  -4.482  39.603  1.00  0.00     0.217 HD
ENDBRANCH  28  31
ENDBRANCH  23  25
ENDBRANCH  22  23
ENDBRANCH   4  21
TORSDOF 8
ENDMDL
MODEL 10
REMARK VINA RESULT:      -7.9     15.339     17.218
REMARK  8 active torsions:
REMARK  status: ('A' for Active; 'I' for Inactive)
REMARK    1  A    between atoms: C2_8  and  S1_1 
REMARK    2  A    between atoms: C8_14  and  S1_1 
REMARK    3  A    between atoms: C3_9  and  O1_2 
REMARK    4  A    between atoms: C24_30  and  O3_4 
REMARK    5  A    between atoms: C1_7  and  C2_8 
REMARK    6  A    between atoms: C13_19  and  C6_12 
REMARK    7  A    between atoms: C16_22  and  C18_24 
REMARK    8  A    between atoms: C17_23  and  C18_24 
ROOT
HETATM    1  C1  UNK     1      28.723  -6.960  34.507  1.00  0.00    -0.014 A 
HETATM    2  C3  UNK     1      28.993  -8.324  34.409  1.00  0.00     0.075 A 
HETATM    3  C4  UNK     1      29.122  -6.250  35.640  1.00  0.00     0.022 A 
HETATM    4  C6  UNK     1      29.792  -6.905  36.674  1.00  0.00    -0.035 A 
HETATM    5  C9  UNK     1      29.662  -8.980  35.442  1.00  0.00     0.038 A 
HETATM    6  C10 UNK     1      30.061  -8.270  36.575  1.00  0.00     0.014 A 
ENDROOT
BRANCH   1   7
HETATM    7  C2  UNK     1      28.002  -6.236  33.403  1.00  0.00     0.123 C 
BRANCH   7   8
HETATM    8  S1  UNK     1      29.156  -5.520  32.179  1.00  0.00    -0.087 SA
BRANCH   8   9
HETATM    9  C8  UNK     1      29.285  -6.748  30.978  1.00  0.00     0.167 A 
HETATM   10  N1  UNK     1      28.229  -7.576  30.716  1.00  0.00    -0.333 N 
HETATM   11  C5  UNK     1      28.615  -8.444  29.726  1.00  0.00     0.063 A 
HETATM   12  H4  UNK     1      27.326  -7.553  31.170  1.00  0.00     0.168 HD
HETATM   13  C11 UNK     1      27.949  -9.486  29.079  1.00  0.00     0.032 A 
HETATM   14  C7  UNK     1      29.927  -8.079  29.437  1.00  0.00     0.086 A 
HETATM   15  C14 UNK     1      28.666 -10.176  28.095  1.00  0.00     0.002 A 
HETATM   16  C15 UNK     1      29.983  -9.832  27.783  1.00  0.00     0.002 A 
HETATM   17  C12 UNK     1      30.631  -8.783  28.446  1.00  0.00     0.034 A 
HETATM   18  N2  UNK     1      30.326  -7.024  30.225  1.00  0.00    -0.223 NA
ENDBRANCH   8   9
ENDBRANCH   7   8
ENDBRANCH   1   7
BRANCH   2  19
HETATM   19  O1  UNK     1      28.609  -9.033  33.310  1.00  0.00    -0.355 OA
HETATM   20  C19 UNK     1      29.365 -10.201  32.996  1.00  0.00     0.210 C 
ENDBRANCH   2  19
BRANCH   4  21
HETATM   21  C13 UNK     1      30.208  -6.166  37.855  1.00  0.00     0.015 C 
HETATM   22  C16 UNK     1      29.391  -5.780  38.861  1.00  0.00     0.056 C 
BRANCH  22  23
HETATM   23  C18 UNK     1      27.938  -6.108  38.819  1.00  0.00     0.182 C 
HETATM   24  O2  UNK     1      27.067  -5.246  38.803  1.00  0.00    -0.288 OA
BRANCH  23  25
HETATM   25  C17 UNK     1      27.557  -7.540  38.764  1.00  0.00     0.014 A 
HETATM   26  C20 UNK     1      28.060  -8.432  39.711  1.00  0.00     0.018 A 
HETATM   27  C22 UNK     1      27.703  -9.780  39.659  1.00  0.00     0.037 A 
HETATM   28  C24 UNK     1      26.842 -10.235  38.660  1.00  0.00     0.065 A 
HETATM   29  C23 UNK     1      26.339  -9.342  37.713  1.00  0.00     0.037 A 
HETATM   30  C21 UNK     1      26.696  -7.995  37.766  1.00  0.00     0.018 A 
BRANCH  28  31
HETATM   31  O3  UNK     1      26.493 -11.550  38.609  1.00  0.00    -0.361 OA
HETATM   32  H20 UNK     1      26.199 -11.762  37.706  1.00  0.00     0.217 HD
ENDBRANCH  28  31
ENDBRANCH  23  25
ENDBRANCH  22  23
ENDBRANCH   4  21
TORSDOF 8
ENDMDL
