MODEL 1
REMARK VINA RESULT:     -10.0      0.000      0.000
REMARK  8 active torsions:
REMARK  status: ('A' for Active; 'I' for Inactive)
REMARK    1  A    between atoms: C2_8  and  O1_1 
REMARK    2  A    between atoms: C3_9  and  O1_1 
REMARK    3  A    between atoms: C17_23  and  O2_2 
REMARK    4  A    between atoms: C7_13  and  O2_2 
REMARK    5  A    between atoms: C14_20  and  N1_5 
REMARK    6  A    between atoms: C1_7  and  C4_10 
REMARK    7  A    between atoms: C3_9  and  C7_13 
REMARK    8  A    between atoms: C5_11  and  C6_12 
ROOT
HETATM    1  N2  UNK     1      17.813   2.153  28.170  1.00  0.00    -0.191 NA
HETATM    2  C4  UNK     1      19.530   1.821  31.142  1.00  0.00     0.037 C 
HETATM    3  C6  UNK     1      18.802   2.769  30.494  1.00  0.00     0.055 C 
HETATM    4  C20 UNK     1      18.258   2.419  29.207  1.00  0.00     0.100 C 
ENDROOT
BRANCH   3   5
HETATM    5  C5  UNK     1      18.544   4.097  31.029  1.00  0.00    -0.015 A 
HETATM    6  C12 UNK     1      17.887   4.241  32.251  1.00  0.00     0.015 A 
HETATM    7  C15 UNK     1      17.642   5.515  32.765  1.00  0.00     0.037 A 
HETATM    8  C14 UNK     1      18.053   6.644  32.057  1.00  0.00     0.102 A 
HETATM    9  C16 UNK     1      18.710   6.499  30.834  1.00  0.00     0.037 A 
HETATM   10  C13 UNK     1      18.956   5.226  30.321  1.00  0.00     0.015 A 
BRANCH   8  11
HETATM   11  N1  UNK     1      17.801   7.941  32.579  1.00  0.00    -0.116 N 
HETATM   12  O3  UNK     1      18.580   8.408  33.444  1.00  0.00    -0.532 OA
HETATM   13  O4  UNK     1      16.807   8.582  32.161  1.00  0.00    -0.532 OA
ENDBRANCH   8  11
ENDBRANCH   3   5
BRANCH   2  14
HETATM   14  C1  UNK     1      19.809   0.467  30.642  1.00  0.00    -0.001 A 
HETATM   15  C2  UNK     1      19.739  -0.628  31.491  1.00  0.00     0.079 A 
HETATM   16  C9  UNK     1      20.009  -1.903  30.994  1.00  0.00     0.037 A 
HETATM   17  C11 UNK     1      20.347  -2.070  29.650  1.00  0.00     0.003 A 
HETATM   18  C10 UNK     1      20.416  -0.963  28.806  1.00  0.00     0.001 A 
HETATM   19  C8  UNK     1      20.145   0.312  29.304  1.00  0.00     0.014 A 
BRANCH  15  20
HETATM   20  O1  UNK     1      19.411  -0.493  32.808  1.00  0.00    -0.348 OA
BRANCH  20  21
HETATM   21  C3  UNK     1      18.751  -1.594  33.427  1.00  0.00     0.202 C 
BRANCH  21  22
HETATM   22  C7  UNK     1      19.440  -1.909  34.741  1.00  0.00     0.202 C 
BRANCH  22  23
HETATM   23  O2  UNK     1      19.847  -0.692  35.356  1.00  0.00    -0.349 OA
BRANCH  23  24
HETATM   24  C17 UNK     1      18.877   0.026  36.004  1.00  0.00     0.068 A 
HETATM   25  C18 UNK     1      18.032  -0.614  36.905  1.00  0.00     0.037 A 
HETATM   26  C21 UNK     1      17.045   0.117  37.564  1.00  0.00     0.003 A 
HETATM   27  C23 UNK     1      16.907   1.483  37.320  1.00  0.00     0.000 A 
HETATM   28  C22 UNK     1      17.757   2.119  36.414  1.00  0.00     0.003 A 
HETATM   29  C19 UNK     1      18.745   1.387  35.753  1.00  0.00     0.037 A 
ENDBRANCH  23  24
ENDBRANCH  22  23
ENDBRANCH  21  22
ENDBRANCH  20  21
ENDBRANCH  15  20
ENDBRANCH   2  14
TORSDOF 8
ENDMDL
MODEL 2
REMARK VINA RESULT:      -9.8      1.928      5.483
REMARK  8 active torsions:
REMARK  status: ('A' for Active; 'I' for Inactive)
REMARK    1  A    between atoms: C2_8  and  O1_1 
REMARK    2  A    between atoms: C3_9  and  O1_1 
REMARK    3  A    between atoms: C17_23  and  O2_2 
REMARK    4  A    between atoms: C7_13  and  O2_2 
REMARK    5  A    between atoms: C14_20  and  N1_5 
REMARK    6  A    between atoms: C1_7  and  C4_10 
REMARK    7  A    between atoms: C3_9  and  C7_13 
REMARK    8  A    between atoms: C5_11  and  C6_12 
ROOT
HETATM    1  N2  UNK     1      20.281   2.938  36.656  1.00  0.00    -0.191 NA
HETATM    2  C4  UNK     1      17.938   1.337  34.696  1.00  0.00     0.037 C 
HETATM    3  C6  UNK     1      18.608   2.520  34.709  1.00  0.00     0.055 C 
HETATM    4  C20 UNK     1      19.533   2.743  35.791  1.00  0.00     0.100 C 
ENDROOT
BRANCH   3   5
HETATM    5  C5  UNK     1      18.445   3.554  33.700  1.00  0.00    -0.015 A 
HETATM    6  C12 UNK     1      18.603   4.897  34.044  1.00  0.00     0.015 A 
HETATM    7  C15 UNK     1      18.449   5.889  33.075  1.00  0.00     0.037 A 
HETATM    8  C14 UNK     1      18.137   5.538  31.762  1.00  0.00     0.102 A 
HETATM    9  C16 UNK     1      17.979   4.195  31.417  1.00  0.00     0.037 A 
HETATM   10  C13 UNK     1      18.134   3.204  32.386  1.00  0.00     0.015 A 
BRANCH   8  11
HETATM   11  N1  UNK     1      17.979   6.548  30.776  1.00  0.00    -0.116 N 
HETATM   12  O3  UNK     1      17.069   7.400  30.919  1.00  0.00    -0.532 OA
HETATM   13  O4  UNK     1      18.753   6.560  29.788  1.00  0.00    -0.532 OA
ENDBRANCH   8  11
ENDBRANCH   3   5
BRANCH   2  14
HETATM   14  C1  UNK     1      18.077   0.263  35.690  1.00  0.00    -0.001 A 
HETATM   15  C2  UNK     1      18.817  -0.874  35.403  1.00  0.00     0.079 A 
HETATM   16  C9  UNK     1      18.934  -1.880  36.362  1.00  0.00     0.037 A 
HETATM   17  C11 UNK     1      18.308  -1.737  37.602  1.00  0.00     0.003 A 
HETATM   18  C10 UNK     1      17.567  -0.589  37.880  1.00  0.00     0.001 A 
HETATM   19  C8  UNK     1      17.451   0.416  36.920  1.00  0.00     0.014 A 
BRANCH  15  20
HETATM   20  O1  UNK     1      19.438  -1.039  34.200  1.00  0.00    -0.348 OA
BRANCH  20  21
HETATM   21  C3  UNK     1      20.194  -2.234  34.020  1.00  0.00     0.202 C 
BRANCH  21  22
HETATM   22  C7  UNK     1      20.439  -2.446  32.538  1.00  0.00     0.202 C 
BRANCH  22  23
HETATM   23  O2  UNK     1      21.031  -1.273  31.993  1.00  0.00    -0.349 OA
BRANCH  23  24
HETATM   24  C17 UNK     1      20.445  -0.752  30.870  1.00  0.00     0.068 A 
HETATM   25  C18 UNK     1      20.541  -1.434  29.662  1.00  0.00     0.037 A 
HETATM   26  C21 UNK     1      19.945  -0.903  28.519  1.00  0.00     0.003 A 
HETATM   27  C23 UNK     1      19.256   0.308  28.590  1.00  0.00     0.000 A 
HETATM   28  C22 UNK     1      19.164   0.988  29.805  1.00  0.00     0.003 A 
HETATM   29  C19 UNK     1      19.761   0.457  30.949  1.00  0.00     0.037 A 
ENDBRANCH  23  24
ENDBRANCH  22  23
ENDBRANCH  21  22
ENDBRANCH  20  21
ENDBRANCH  15  20
ENDBRANCH   2  14
TORSDOF 8
ENDMDL
MODEL 3
REMARK VINA RESULT:      -9.4      1.956      5.381
REMARK  8 active torsions:
REMARK  status: ('A' for Active; 'I' for Inactive)
REMARK    1  A    between atoms: C2_8  and  O1_1 
REMARK    2  A    between atoms: C3_9  and  O1_1 
REMARK    3  A    between atoms: C17_23  and  O2_2 
REMARK    4  A    between atoms: C7_13  and  O2_2 
REMARK    5  A    between atoms: C14_20  and  N1_5 
REMARK    6  A    between atoms: C1_7  and  C4_10 
REMARK    7  A    between atoms: C3_9  and  C7_13 
REMARK    8  A    between atoms: C5_11  and  C6_12 
ROOT
HETATM    1  N2  UNK     1      15.758   0.461  34.291  1.00  0.00    -0.191 NA
HETATM    2  C4  UNK     1      19.002   1.137  35.247  1.00  0.00     0.037 C 
HETATM    3  C6  UNK     1      18.035   1.702  34.475  1.00  0.00     0.055 C 
HETATM    4  C20 UNK     1      16.777   1.008  34.379  1.00  0.00     0.100 C 
ENDROOT
BRANCH   3   5
HETATM    5  C5  UNK     1      18.203   2.956  33.758  1.00  0.00    -0.015 A 
HETATM    6  C12 UNK     1      17.926   3.020  32.392  1.00  0.00     0.015 A 
HETATM    7  C15 UNK     1      18.085   4.223  31.704  1.00  0.00     0.037 A 
HETATM    8  C14 UNK     1      18.521   5.362  32.381  1.00  0.00     0.102 A 
HETATM    9  C16 UNK     1      18.798   5.298  33.747  1.00  0.00     0.037 A 
HETATM   10  C13 UNK     1      18.638   4.095  34.435  1.00  0.00     0.015 A 
BRANCH   8  11
HETATM   11  N1  UNK     1      18.684   6.587  31.680  1.00  0.00    -0.116 N 
HETATM   12  O3  UNK     1      19.213   6.570  30.543  1.00  0.00    -0.532 OA
HETATM   13  O4  UNK     1      18.294   7.651  32.218  1.00  0.00    -0.532 OA
ENDBRANCH   8  11
ENDBRANCH   3   5
BRANCH   2  14
HETATM   14  C1  UNK     1      18.873  -0.123  35.994  1.00  0.00    -0.001 A 
HETATM   15  C2  UNK     1      19.273  -1.324  35.427  1.00  0.00     0.079 A 
HETATM   16  C9  UNK     1      19.139  -2.507  36.154  1.00  0.00     0.037 A 
HETATM   17  C11 UNK     1      18.606  -2.475  37.444  1.00  0.00     0.003 A 
HETATM   18  C10 UNK     1      18.208  -1.262  38.004  1.00  0.00     0.001 A 
HETATM   19  C8  UNK     1      18.342  -0.080  37.276  1.00  0.00     0.014 A 
BRANCH  15  20
HETATM   20  O1  UNK     1      19.795  -1.383  34.169  1.00  0.00    -0.348 OA
BRANCH  20  21
HETATM   21  C3  UNK     1      20.520  -2.560  33.823  1.00  0.00     0.202 C 
BRANCH  21  22
HETATM   22  C7  UNK     1      20.843  -2.525  32.341  1.00  0.00     0.202 C 
BRANCH  22  23
HETATM   23  O2  UNK     1      21.154  -1.189  31.966  1.00  0.00    -0.349 OA
BRANCH  23  24
HETATM   24  C17 UNK     1      20.525  -0.699  30.851  1.00  0.00     0.068 A 
HETATM   25  C18 UNK     1      19.853   0.516  30.917  1.00  0.00     0.037 A 
HETATM   26  C21 UNK     1      19.213   1.013  29.782  1.00  0.00     0.003 A 
HETATM   27  C23 UNK     1      19.249   0.293  28.589  1.00  0.00     0.000 A 
HETATM   28  C22 UNK     1      19.924  -0.926  28.530  1.00  0.00     0.003 A 
HETATM   29  C19 UNK     1      20.564  -1.425  29.665  1.00  0.00     0.037 A 
ENDBRANCH  23  24
ENDBRANCH  22  23
ENDBRANCH  21  22
ENDBRANCH  20  21
ENDBRANCH  15  20
ENDBRANCH   2  14
TORSDOF 8
ENDMDL
MODEL 4
REMARK VINA RESULT:      -9.2     22.988     25.247
REMARK  8 active torsions:
REMARK  status: ('A' for Active; 'I' for Inactive)
REMARK    1  A    between atoms: C2_8  and  O1_1 
REMARK    2  A    between atoms: C3_9  and  O1_1 
REMARK    3  A    between atoms: C17_23  and  O2_2 
REMARK    4  A    between atoms: C7_13  and  O2_2 
REMARK    5  A    between atoms: C14_20  and  N1_5 
REMARK    6  A    between atoms: C1_7  and  C4_10 
REMARK    7  A    between atoms: C3_9  and  C7_13 
REMARK    8  A    between atoms: C5_11  and  C6_12 
ROOT
HETATM    1  N2  UNK     1      13.598   5.105   8.613  1.00  0.00    -0.191 NA
HETATM    2  C4  UNK     1      12.216   8.200   7.978  1.00  0.00     0.037 C 
HETATM    3  C6  UNK     1      13.378   7.692   8.469  1.00  0.00     0.055 C 
HETATM    4  C20 UNK     1      13.491   6.258   8.545  1.00  0.00     0.100 C 
ENDROOT
BRANCH   3   5
HETATM    5  C5  UNK     1      14.497   8.510   8.909  1.00  0.00    -0.015 A 
HETATM    6  C12 UNK     1      14.709   9.766   8.341  1.00  0.00     0.015 A 
HETATM    7  C15 UNK     1      15.782  10.551   8.766  1.00  0.00     0.037 A 
HETATM    8  C14 UNK     1      16.642  10.080   9.757  1.00  0.00     0.102 A 
HETATM    9  C16 UNK     1      16.430   8.823  10.325  1.00  0.00     0.037 A 
HETATM   10  C13 UNK     1      15.357   8.039   9.902  1.00  0.00     0.015 A 
BRANCH   8  11
HETATM   11  N1  UNK     1      17.735  10.879  10.188  1.00  0.00    -0.116 N 
HETATM   12  O3  UNK     1      17.525  11.799  11.014  1.00  0.00    -0.532 OA
HETATM   13  O4  UNK     1      18.879  10.642   9.731  1.00  0.00    -0.532 OA
ENDBRANCH   8  11
ENDBRANCH   3   5
BRANCH   2  14
HETATM   14  C1  UNK     1      11.065   7.411   7.516  1.00  0.00    -0.001 A 
HETATM   15  C2  UNK     1       9.976   7.198   8.348  1.00  0.00     0.079 A 
HETATM   16  C9  UNK     1       8.895   6.445   7.889  1.00  0.00     0.037 A 
HETATM   17  C11 UNK     1       8.915   5.913   6.598  1.00  0.00     0.003 A 
HETATM   18  C10 UNK     1      10.015   6.134   5.770  1.00  0.00     0.001 A 
HETATM   19  C8  UNK     1      11.095   6.887   6.231  1.00  0.00     0.014 A 
BRANCH  15  20
HETATM   20  O1  UNK     1       9.931   7.705   9.613  1.00  0.00    -0.348 OA
BRANCH  20  21
HETATM   21  C3  UNK     1       9.102   8.845   9.825  1.00  0.00     0.202 C 
BRANCH  21  22
HETATM   22  C7  UNK     1       9.933   9.954  10.441  1.00  0.00     0.202 C 
BRANCH  22  23
HETATM   23  O2  UNK     1      11.088   9.387  11.047  1.00  0.00    -0.349 OA
BRANCH  23  24
HETATM   24  C17 UNK     1      12.129  10.238  11.307  1.00  0.00     0.068 A 
HETATM   25  C18 UNK     1      12.228  11.439  10.614  1.00  0.00     0.037 A 
HETATM   26  C21 UNK     1      13.288  12.305  10.879  1.00  0.00     0.003 A 
HETATM   27  C23 UNK     1      14.243  11.965  11.837  1.00  0.00     0.000 A 
HETATM   28  C22 UNK     1      14.139  10.758  12.528  1.00  0.00     0.003 A 
HETATM   29  C19 UNK     1      13.079   9.891  12.262  1.00  0.00     0.037 A 
ENDBRANCH  23  24
ENDBRANCH  22  23
ENDBRANCH  21  22
ENDBRANCH  20  21
ENDBRANCH  15  20
ENDBRANCH   2  14
TORSDOF 8
ENDMDL
MODEL 5
REMARK VINA RESULT:      -8.9     14.036     15.739
REMARK  8 active torsions:
REMARK  status: ('A' for Active; 'I' for Inactive)
REMARK    1  A    between atoms: C2_8  and  O1_1 
REMARK    2  A    between atoms: C3_9  and  O1_1 
REMARK    3  A    between atoms: C17_23  and  O2_2 
REMARK    4  A    between atoms: C7_13  and  O2_2 
REMARK    5  A    between atoms: C14_20  and  N1_5 
REMARK    6  A    between atoms: C1_7  and  C4_10 
REMARK    7  A    between atoms: C3_9  and  C7_13 
REMARK    8  A    between atoms: C5_11  and  C6_12 
ROOT
HETATM    1  N2  UNK     1      30.506  -5.659  31.883  1.00  0.00    -0.191 NA
HETATM    2  C4  UNK     1      28.728  -8.305  33.199  1.00  0.00     0.037 C 
HETATM    3  C6  UNK     1      29.290  -7.146  33.635  1.00  0.00     0.055 C 
HETATM    4  C20 UNK     1      29.961  -6.329  32.658  1.00  0.00     0.100 C 
ENDROOT
BRANCH   3   5
HETATM    5  C5  UNK     1      29.243  -6.695  35.017  1.00  0.00    -0.015 A 
HETATM    6  C12 UNK     1      28.200  -7.102  35.850  1.00  0.00     0.015 A 
HETATM    7  C15 UNK     1      28.157  -6.670  37.175  1.00  0.00     0.037 A 
HETATM    8  C14 UNK     1      29.156  -5.831  37.669  1.00  0.00     0.102 A 
HETATM    9  C16 UNK     1      30.199  -5.423  36.836  1.00  0.00     0.037 A 
HETATM   10  C13 UNK     1      30.243  -5.856  35.511  1.00  0.00     0.015 A 
BRANCH   8  11
HETATM   11  N1  UNK     1      29.111  -5.390  39.018  1.00  0.00    -0.116 N 
HETATM   12  O3  UNK     1      28.314  -5.945  39.812  1.00  0.00    -0.532 OA
HETATM   13  O4  UNK     1      29.870  -4.458  39.379  1.00  0.00    -0.532 OA
ENDBRANCH   8  11
ENDBRANCH   3   5
BRANCH   2  14
HETATM   14  C1  UNK     1      28.745  -8.795  31.813  1.00  0.00    -0.001 A 
HETATM   15  C2  UNK     1      29.757  -9.637  31.374  1.00  0.00     0.079 A 
HETATM   16  C9  UNK     1      29.754 -10.088  30.055  1.00  0.00     0.037 A 
HETATM   17  C11 UNK     1      28.735  -9.693  29.186  1.00  0.00     0.003 A 
HETATM   18  C10 UNK     1      27.723  -8.847  29.637  1.00  0.00     0.001 A 
HETATM   19  C8  UNK     1      27.728  -8.397  30.957  1.00  0.00     0.014 A 
BRANCH  15  20
HETATM   20  O1  UNK     1      30.764 -10.037  32.202  1.00  0.00    -0.348 OA
BRANCH  20  21
HETATM   21  C3  UNK     1      32.030  -9.404  32.036  1.00  0.00     0.202 C 
BRANCH  21  22
HETATM   22  C7  UNK     1      32.545  -8.962  33.392  1.00  0.00     0.202 C 
BRANCH  22  23
HETATM   23  O2  UNK     1      31.998  -9.811  34.395  1.00  0.00    -0.349 OA
BRANCH  23  24
HETATM   24  C17 UNK     1      31.959  -9.313  35.670  1.00  0.00     0.068 A 
HETATM   25  C18 UNK     1      32.944  -8.428  36.096  1.00  0.00     0.037 A 
HETATM   26  C21 UNK     1      32.903  -7.922  37.394  1.00  0.00     0.003 A 
HETATM   27  C23 UNK     1      31.879  -8.303  38.260  1.00  0.00     0.000 A 
HETATM   28  C22 UNK     1      30.895  -9.193  37.827  1.00  0.00     0.003 A 
HETATM   29  C19 UNK     1      30.935  -9.699  36.528  1.00  0.00     0.037 A 
ENDBRANCH  23  24
ENDBRANCH  22  23
ENDBRANCH  21  22
ENDBRANCH  20  21
ENDBRANCH  15  20
ENDBRANCH   2  14
TORSDOF 8
ENDMDL
MODEL 6
REMARK VINA RESULT:      -8.9     14.705     17.571
REMARK  8 active torsions:
REMARK  status: ('A' for Active; 'I' for Inactive)
REMARK    1  A    between atoms: C2_8  and  O1_1 
REMARK    2  A    between atoms: C3_9  and  O1_1 
REMARK    3  A    between atoms: C17_23  and  O2_2 
REMARK    4  A    between atoms: C7_13  and  O2_2 
REMARK    5  A    between atoms: C14_20  and  N1_5 
REMARK    6  A    between atoms: C1_7  and  C4_10 
REMARK    7  A    between atoms: C3_9  and  C7_13 
REMARK    8  A    between atoms: C5_11  and  C6_12 
ROOT
HETATM    1  N2  UNK     1      28.787  -8.576  34.292  1.00  0.00    -0.191 NA
HETATM    2  C4  UNK     1      31.093  -8.101  36.813  1.00  0.00     0.037 C 
HETATM    3  C6  UNK     1      31.073  -8.144  35.454  1.00  0.00     0.055 C 
HETATM    4  C20 UNK     1      29.803  -8.384  34.819  1.00  0.00     0.100 C 
ENDROOT
BRANCH   3   5
HETATM    5  C5  UNK     1      32.251  -7.958  34.621  1.00  0.00    -0.015 A 
HETATM    6  C12 UNK     1      32.211  -7.072  33.544  1.00  0.00     0.015 A 
HETATM    7  C15 UNK     1      33.341  -6.892  32.747  1.00  0.00     0.037 A 
HETATM    8  C14 UNK     1      34.511  -7.597  33.026  1.00  0.00     0.102 A 
HETATM    9  C16 UNK     1      34.551  -8.483  34.103  1.00  0.00     0.037 A 
HETATM   10  C13 UNK     1      33.422  -8.663  34.900  1.00  0.00     0.015 A 
BRANCH   8  11
HETATM   11  N1  UNK     1      35.662  -7.415  32.213  1.00  0.00    -0.116 N 
HETATM   12  O3  UNK     1      35.919  -6.268  31.774  1.00  0.00    -0.532 OA
HETATM   13  O4  UNK     1      36.389  -8.405  31.957  1.00  0.00    -0.532 OA
ENDBRANCH   8  11
ENDBRANCH   3   5
BRANCH   2  14
HETATM   14  C1  UNK     1      29.927  -8.278  37.691  1.00  0.00    -0.001 A 
HETATM   15  C2  UNK     1      29.049  -7.228  37.918  1.00  0.00     0.079 A 
HETATM   16  C9  UNK     1      27.950  -7.419  38.756  1.00  0.00     0.037 A 
HETATM   17  C11 UNK     1      27.742  -8.660  39.360  1.00  0.00     0.003 A 
HETATM   18  C10 UNK     1      28.631  -9.708  39.125  1.00  0.00     0.001 A 
HETATM   19  C8  UNK     1      29.729  -9.516  38.286  1.00  0.00     0.014 A 
BRANCH  15  20
HETATM   20  O1  UNK     1      29.230  -6.006  37.341  1.00  0.00    -0.348 OA
BRANCH  20  21
HETATM   21  C3  UNK     1      29.360  -4.889  38.218  1.00  0.00     0.202 C 
BRANCH  21  22
HETATM   22  C7  UNK     1      30.830  -4.551  38.374  1.00  0.00     0.202 C 
BRANCH  22  23
HETATM   23  O2  UNK     1      31.370  -4.228  37.098  1.00  0.00    -0.349 OA
BRANCH  23  24
HETATM   24  C17 UNK     1      32.630  -4.691  36.826  1.00  0.00     0.068 A 
HETATM   25  C18 UNK     1      33.219  -5.624  37.672  1.00  0.00     0.037 A 
HETATM   26  C21 UNK     1      34.501  -6.095  37.395  1.00  0.00     0.003 A 
HETATM   27  C23 UNK     1      35.188  -5.631  36.273  1.00  0.00     0.000 A 
HETATM   28  C22 UNK     1      34.591  -4.694  35.429  1.00  0.00     0.003 A 
HETATM   29  C19 UNK     1      33.308  -4.222  35.706  1.00  0.00     0.037 A 
ENDBRANCH  23  24
ENDBRANCH  22  23
ENDBRANCH  21  22
ENDBRANCH  20  21
ENDBRANCH  15  20
ENDBRANCH   2  14
TORSDOF 8
ENDMDL
MODEL 7
REMARK VINA RESULT:      -8.8     14.000     15.740
REMARK  8 active torsions:
REMARK  status: ('A' for Active; 'I' for Inactive)
REMARK    1  A    between atoms: C2_8  and  O1_1 
REMARK    2  A    between atoms: C3_9  and  O1_1 
REMARK    3  A    between atoms: C17_23  and  O2_2 
REMARK    4  A    between atoms: C7_13  and  O2_2 
REMARK    5  A    between atoms: C14_20  and  N1_5 
REMARK    6  A    between atoms: C1_7  and  C4_10 
REMARK    7  A    between atoms: C3_9  and  C7_13 
REMARK    8  A    between atoms: C5_11  and  C6_12 
ROOT
HETATM    1  N2  UNK     1      30.419  -5.544  31.880  1.00  0.00    -0.191 NA
HETATM    2  C4  UNK     1      28.804  -8.276  33.229  1.00  0.00     0.037 C 
HETATM    3  C6  UNK     1      29.308  -7.087  33.654  1.00  0.00     0.055 C 
HETATM    4  C20 UNK     1      29.922  -6.238  32.665  1.00  0.00     0.100 C 
ENDROOT
BRANCH   3   5
HETATM    5  C5  UNK     1      29.256  -6.633  35.034  1.00  0.00    -0.015 A 
HETATM    6  C12 UNK     1      30.267  -5.813  35.538  1.00  0.00     0.015 A 
HETATM    7  C15 UNK     1      30.215  -5.376  36.862  1.00  0.00     0.037 A 
HETATM    8  C14 UNK     1      29.154  -5.758  37.682  1.00  0.00     0.102 A 
HETATM    9  C16 UNK     1      28.144  -6.578  37.179  1.00  0.00     0.037 A 
HETATM   10  C13 UNK     1      28.195  -7.014  35.855  1.00  0.00     0.015 A 
BRANCH   8  11
HETATM   11  N1  UNK     1      29.103  -5.314  39.030  1.00  0.00    -0.116 N 
HETATM   12  O3  UNK     1      28.310  -5.874  39.824  1.00  0.00    -0.532 OA
HETATM   13  O4  UNK     1      29.852  -4.373  39.389  1.00  0.00    -0.532 OA
ENDBRANCH   8  11
ENDBRANCH   3   5
BRANCH   2  14
HETATM   14  C1  UNK     1      28.829  -8.770  31.844  1.00  0.00    -0.001 A 
HETATM   15  C2  UNK     1      29.880  -9.555  31.394  1.00  0.00     0.079 A 
HETATM   16  C9  UNK     1      29.883 -10.012  30.076  1.00  0.00     0.037 A 
HETATM   17  C11 UNK     1      28.831  -9.678  29.221  1.00  0.00     0.003 A 
HETATM   18  C10 UNK     1      27.779  -8.889  29.684  1.00  0.00     0.001 A 
HETATM   19  C8  UNK     1      27.778  -8.433  31.002  1.00  0.00     0.014 A 
BRANCH  15  20
HETATM   20  O1  UNK     1      30.920  -9.894  32.208  1.00  0.00    -0.348 OA
BRANCH  20  21
HETATM   21  C3  UNK     1      32.172  -9.261  31.958  1.00  0.00     0.202 C 
BRANCH  21  22
HETATM   22  C7  UNK     1      32.648  -8.585  33.229  1.00  0.00     0.202 C 
BRANCH  22  23
HETATM   23  O2  UNK     1      32.834  -9.571  34.238  1.00  0.00    -0.349 OA
BRANCH  23  24
HETATM   24  C17 UNK     1      32.298  -9.301  35.470  1.00  0.00     0.068 A 
HETATM   25  C18 UNK     1      31.082  -9.869  35.832  1.00  0.00     0.037 A 
HETATM   26  C21 UNK     1      30.538  -9.594  37.086  1.00  0.00     0.003 A 
HETATM   27  C23 UNK     1      31.213  -8.753  37.970  1.00  0.00     0.000 A 
HETATM   28  C22 UNK     1      32.432  -8.185  37.600  1.00  0.00     0.003 A 
HETATM   29  C19 UNK     1      32.977  -8.460  36.345  1.00  0.00     0.037 A 
ENDBRANCH  23  24
ENDBRANCH  22  23
ENDBRANCH  21  22
ENDBRANCH  20  21
ENDBRANCH  15  20
ENDBRANCH   2  14
TORSDOF 8
ENDMDL
MODEL 8
REMARK VINA RESULT:      -8.8     14.925     17.557
REMARK  8 active torsions:
REMARK  status: ('A' for Active; 'I' for Inactive)
REMARK    1  A    between atoms: C2_8  and  O1_1 
REMARK    2  A    between atoms: C3_9  and  O1_1 
REMARK    3  A    between atoms: C17_23  and  O2_2 
REMARK    4  A    between atoms: C7_13  and  O2_2 
REMARK    5  A    between atoms: C14_20  and  N1_5 
REMARK    6  A    between atoms: C1_7  and  C4_10 
REMARK    7  A    between atoms: C3_9  and  C7_13 
REMARK    8  A    between atoms: C5_11  and  C6_12 
ROOT
HETATM    1  N2  UNK     1      31.685  -9.258  37.803  1.00  0.00    -0.191 NA
HETATM    2  C4  UNK     1      30.014  -8.013  35.056  1.00  0.00     0.037 C 
HETATM    3  C6  UNK     1      31.295  -8.271  35.429  1.00  0.00     0.055 C 
HETATM    4  C20 UNK     1      31.502  -8.818  36.746  1.00  0.00     0.100 C 
ENDROOT
BRANCH   3   5
HETATM    5  C5  UNK     1      32.451  -8.033  34.578  1.00  0.00    -0.015 A 
HETATM    6  C12 UNK     1      32.358  -7.140  33.511  1.00  0.00     0.015 A 
HETATM    7  C15 UNK     1      33.467  -6.910  32.696  1.00  0.00     0.037 A 
HETATM    8  C14 UNK     1      34.668  -7.574  32.948  1.00  0.00     0.102 A 
HETATM    9  C16 UNK     1      34.760  -8.467  34.016  1.00  0.00     0.037 A 
HETATM   10  C13 UNK     1      33.652  -8.696  34.831  1.00  0.00     0.015 A 
BRANCH   8  11
HETATM   11  N1  UNK     1      35.796  -7.340  32.118  1.00  0.00    -0.116 N 
HETATM   12  O3  UNK     1      35.926  -6.219  31.571  1.00  0.00    -0.532 OA
HETATM   13  O4  UNK     1      36.632  -8.262  31.955  1.00  0.00    -0.532 OA
ENDBRANCH   8  11
ENDBRANCH   3   5
BRANCH   2  14
HETATM   14  C1  UNK     1      28.819  -8.245  35.880  1.00  0.00    -0.001 A 
HETATM   15  C2  UNK     1      28.445  -7.331  36.854  1.00  0.00     0.079 A 
HETATM   16  C9  UNK     1      27.308  -7.572  37.625  1.00  0.00     0.037 A 
HETATM   17  C11 UNK     1      26.555  -8.728  37.412  1.00  0.00     0.003 A 
HETATM   18  C10 UNK     1      26.939  -9.640  36.430  1.00  0.00     0.001 A 
HETATM   19  C8  UNK     1      28.077  -9.397  35.660  1.00  0.00     0.014 A 
BRANCH  15  20
HETATM   20  O1  UNK     1      29.164  -6.194  37.083  1.00  0.00    -0.348 OA
BRANCH  20  21
HETATM   21  C3  UNK     1      29.638  -5.984  38.411  1.00  0.00     0.202 C 
BRANCH  21  22
HETATM   22  C7  UNK     1      30.798  -5.008  38.374  1.00  0.00     0.202 C 
BRANCH  22  23
HETATM   23  O2  UNK     1      32.019  -5.736  38.408  1.00  0.00    -0.349 OA
BRANCH  23  24
HETATM   24  C17 UNK     1      32.938  -5.446  37.435  1.00  0.00     0.068 A 
HETATM   25  C18 UNK     1      34.195  -6.039  37.475  1.00  0.00     0.037 A 
HETATM   26  C21 UNK     1      35.130  -5.743  36.484  1.00  0.00     0.003 A 
HETATM   27  C23 UNK     1      34.803  -4.857  35.458  1.00  0.00     0.000 A 
HETATM   28  C22 UNK     1      33.540  -4.265  35.424  1.00  0.00     0.003 A 
HETATM   29  C19 UNK     1      32.604  -4.560  36.416  1.00  0.00     0.037 A 
ENDBRANCH  23  24
ENDBRANCH  22  23
ENDBRANCH  21  22
ENDBRANCH  20  21
ENDBRANCH  15  20
ENDBRANCH   2  14
TORSDOF 8
ENDMDL
MODEL 9
REMARK VINA RESULT:      -8.7     14.217     16.525
REMARK  8 active torsions:
REMARK  status: ('A' for Active; 'I' for Inactive)
REMARK    1  A    between atoms: C2_8  and  O1_1 
REMARK    2  A    between atoms: C3_9  and  O1_1 
REMARK    3  A    between atoms: C17_23  and  O2_2 
REMARK    4  A    between atoms: C7_13  and  O2_2 
REMARK    5  A    between atoms: C14_20  and  N1_5 
REMARK    6  A    between atoms: C1_7  and  C4_10 
REMARK    7  A    between atoms: C3_9  and  C7_13 
REMARK    8  A    between atoms: C5_11  and  C6_12 
ROOT
HETATM    1  N2  UNK     1      31.217 -10.228  35.502  1.00  0.00    -0.191 NA
HETATM    2  C4  UNK     1      28.186  -8.707  34.874  1.00  0.00     0.037 C 
HETATM    3  C6  UNK     1      29.197  -9.279  34.167  1.00  0.00     0.055 C 
HETATM    4  C20 UNK     1      30.312  -9.802  34.915  1.00  0.00     0.100 C 
ENDROOT
BRANCH   3   5
HETATM    5  C5  UNK     1      29.207  -9.394  32.718  1.00  0.00    -0.015 A 
HETATM    6  C12 UNK     1      28.277  -8.686  31.955  1.00  0.00     0.015 A 
HETATM    7  C15 UNK     1      28.289  -8.795  30.564  1.00  0.00     0.037 A 
HETATM    8  C14 UNK     1      29.229  -9.611  29.936  1.00  0.00     0.102 A 
HETATM    9  C16 UNK     1      30.159 -10.318  30.698  1.00  0.00     0.037 A 
HETATM   10  C13 UNK     1      30.148 -10.209  32.089  1.00  0.00     0.015 A 
BRANCH   8  11
HETATM   11  N1  UNK     1      29.240  -9.722  28.520  1.00  0.00    -0.116 N 
HETATM   12  O3  UNK     1      30.225  -9.278  27.883  1.00  0.00    -0.532 OA
HETATM   13  O4  UNK     1      28.264 -10.262  27.945  1.00  0.00    -0.532 OA
ENDBRANCH   8  11
ENDBRANCH   3   5
BRANCH   2  14
HETATM   14  C1  UNK     1      28.132  -8.576  36.337  1.00  0.00    -0.001 A 
HETATM   15  C2  UNK     1      28.688  -7.473  36.969  1.00  0.00     0.079 A 
HETATM   16  C9  UNK     1      28.626  -7.371  38.359  1.00  0.00     0.037 A 
HETATM   17  C11 UNK     1      28.006  -8.377  39.104  1.00  0.00     0.003 A 
HETATM   18  C10 UNK     1      27.451  -9.481  38.459  1.00  0.00     0.001 A 
HETATM   19  C8  UNK     1      27.514  -9.581  37.069  1.00  0.00     0.014 A 
BRANCH  15  20
HETATM   20  O1  UNK     1      29.299  -6.477  36.265  1.00  0.00    -0.348 OA
BRANCH  20  21
HETATM   21  C3  UNK     1      30.713  -6.363  36.401  1.00  0.00     0.202 C 
BRANCH  21  22
HETATM   22  C7  UNK     1      31.339  -6.295  35.021  1.00  0.00     0.202 C 
BRANCH  22  23
HETATM   23  O2  UNK     1      30.407  -5.713  34.117  1.00  0.00    -0.349 OA
BRANCH  23  24
HETATM   24  C17 UNK     1      30.616  -5.942  32.783  1.00  0.00     0.068 A 
HETATM   25  C18 UNK     1      29.814  -5.308  31.840  1.00  0.00     0.037 A 
HETATM   26  C21 UNK     1      30.028  -5.542  30.482  1.00  0.00     0.003 A 
HETATM   27  C23 UNK     1      31.041  -6.409  30.074  1.00  0.00     0.000 A 
HETATM   28  C22 UNK     1      31.842  -7.042  31.026  1.00  0.00     0.003 A 
HETATM   29  C19 UNK     1      31.628  -6.809  32.384  1.00  0.00     0.037 A 
ENDBRANCH  23  24
ENDBRANCH  22  23
ENDBRANCH  21  22
ENDBRANCH  20  21
ENDBRANCH  15  20
ENDBRANCH   2  14
TORSDOF 8
ENDMDL
MODEL 10
REMARK VINA RESULT:      -8.7     13.780     16.173
REMARK  8 active torsions:
REMARK  status: ('A' for Active; 'I' for Inactive)
REMARK    1  A    between atoms: C2_8  and  O1_1 
REMARK    2  A    between atoms: C3_9  and  O1_1 
REMARK    3  A    between atoms: C17_23  and  O2_2 
REMARK    4  A    between atoms: C7_13  and  O2_2 
REMARK    5  A    between atoms: C14_20  and  N1_5 
REMARK    6  A    between atoms: C1_7  and  C4_10 
REMARK    7  A    between atoms: C3_9  and  C7_13 
REMARK    8  A    between atoms: C5_11  and  C6_12 
ROOT
HETATM    1  N2  UNK     1      34.296  -5.373  34.307  1.00  0.00    -0.191 NA
HETATM    2  C4  UNK     1      31.438  -7.255  33.882  1.00  0.00     0.037 C 
HETATM    3  C6  UNK     1      31.900  -6.292  34.723  1.00  0.00     0.055 C 
HETATM    4  C20 UNK     1      33.229  -5.789  34.485  1.00  0.00     0.100 C 
ENDROOT
BRANCH   3   5
HETATM    5  C5  UNK     1      31.130  -5.748  35.830  1.00  0.00    -0.015 A 
HETATM    6  C12 UNK     1      31.521  -4.549  36.429  1.00  0.00     0.015 A 
HETATM    7  C15 UNK     1      30.781  -4.027  37.490  1.00  0.00     0.037 A 
HETATM    8  C14 UNK     1      29.651  -4.701  37.952  1.00  0.00     0.102 A 
HETATM    9  C16 UNK     1      29.261  -5.899  37.354  1.00  0.00     0.037 A 
HETATM   10  C13 UNK     1      30.000  -6.422  36.292  1.00  0.00     0.015 A 
BRANCH   8  11
HETATM   11  N1  UNK     1      28.899  -4.169  39.033  1.00  0.00    -0.116 N 
HETATM   12  O3  UNK     1      29.508  -3.696  40.022  1.00  0.00    -0.532 OA
HETATM   13  O4  UNK     1      27.646  -4.187  38.969  1.00  0.00    -0.532 OA
ENDBRANCH   8  11
ENDBRANCH   3   5
BRANCH   2  14
HETATM   14  C1  UNK     1      32.179  -7.828  32.748  1.00  0.00    -0.001 A 
HETATM   15  C2  UNK     1      31.981  -7.350  31.461  1.00  0.00     0.079 A 
HETATM   16  C9  UNK     1      32.694  -7.910  30.401  1.00  0.00     0.037 A 
HETATM   17  C11 UNK     1      33.600  -8.945  30.641  1.00  0.00     0.003 A 
HETATM   18  C10 UNK     1      33.791  -9.418  31.938  1.00  0.00     0.001 A 
HETATM   19  C8  UNK     1      33.077  -8.857  32.997  1.00  0.00     0.014 A 
BRANCH  15  20
HETATM   20  O1  UNK     1      31.102  -6.340  31.200  1.00  0.00    -0.348 OA
BRANCH  20  21
HETATM   21  C3  UNK     1      30.265  -6.490  30.057  1.00  0.00     0.202 C 
BRANCH  21  22
HETATM   22  C7  UNK     1      28.863  -6.848  30.513  1.00  0.00     0.202 C 
BRANCH  22  23
HETATM   23  O2  UNK     1      28.574  -8.185  30.122  1.00  0.00    -0.349 OA
BRANCH  23  24
HETATM   24  C17 UNK     1      29.051  -9.181  30.931  1.00  0.00     0.068 A 
HETATM   25  C18 UNK     1      29.867 -10.172  30.397  1.00  0.00     0.037 A 
HETATM   26  C21 UNK     1      30.352 -11.187  31.222  1.00  0.00     0.003 A 
HETATM   27  C23 UNK     1      30.018 -11.204  32.576  1.00  0.00     0.000 A 
HETATM   28  C22 UNK     1      29.199 -10.207  33.106  1.00  0.00     0.003 A 
HETATM   29  C19 UNK     1      28.713  -9.192  32.280  1.00  0.00     0.037 A 
ENDBRANCH  23  24
ENDBRANCH  22  23
ENDBRANCH  21  22
ENDBRANCH  20  21
ENDBRANCH  15  20
ENDBRANCH   2  14
TORSDOF 8
ENDMDL
