MODEL 1
REMARK VINA RESULT:      -8.9      0.000      0.000
REMARK  5 active torsions:
REMARK  status: ('A' for Active; 'I' for Inactive)
REMARK    1  A    between atoms: C16_22  and  O2_2 
REMARK    2  A    between atoms: C7_13  and  O2_2 
REMARK    3  A    between atoms: C11_17  and  O4_4 
REMARK    4  A    between atoms: C17_23  and  O4_4 
REMARK    5  A    between atoms: C1_7  and  C6_12 
ROOT
HETATM    1  O1  UNK     1      18.244   4.222  34.205  1.00  0.00    -0.340 OA
HETATM    2  O3  UNK     1      18.234   2.385  30.535  1.00  0.00    -0.292 OA
HETATM    3  C1  UNK     1      18.733   4.905  33.040  1.00  0.00     0.169 C 
HETATM    4  C2  UNK     1      18.016   4.425  31.780  1.00  0.00     0.121 C 
HETATM    5  C3  UNK     1      18.366   2.175  32.883  1.00  0.00     0.077 A 
HETATM    6  C4  UNK     1      18.231   2.942  31.628  1.00  0.00     0.167 C 
HETATM    7  C5  UNK     1      18.343   2.858  34.103  1.00  0.00     0.089 A 
HETATM    8  C7  UNK     1      18.473   0.783  32.856  1.00  0.00     0.098 A 
HETATM    9  C8  UNK     1      18.392   2.142  35.300  1.00  0.00     0.075 A 
HETATM   10  C11 UNK     1      18.497   0.751  35.275  1.00  0.00     0.084 A 
HETATM   11  C12 UNK     1      18.543   0.074  34.055  1.00  0.00     0.076 A 
ENDROOT
BRANCH   3  12
HETATM   12  C6  UNK     1      18.542   6.394  33.243  1.00  0.00    -0.029 A 
HETATM   13  C10 UNK     1      19.485   7.123  33.967  1.00  0.00     0.010 A 
HETATM   14  C14 UNK     1      19.310   8.495  34.154  1.00  0.00     0.001 A 
HETATM   15  C15 UNK     1      18.193   9.135  33.617  1.00  0.00     0.000 A 
HETATM   16  C13 UNK     1      17.252   8.405  32.893  1.00  0.00     0.001 A 
HETATM   17  C9  UNK     1      17.426   7.033  32.706  1.00  0.00     0.010 A 
ENDBRANCH   3  12
BRANCH   8  18
HETATM   18  O2  UNK     1      18.505   0.070  31.695  1.00  0.00    -0.278 OA
BRANCH  18  19
HETATM   19  C16 UNK     1      19.776  -0.423  31.360  1.00  0.00     0.260 C 
HETATM   20  O5  UNK     1      20.767   0.256  31.126  1.00  0.00    -0.265 OA
HETATM   21  C18 UNK     1      19.752  -1.922  31.324  1.00  0.00     0.126 C 
ENDBRANCH  18  19
ENDBRANCH   8  18
BRANCH  10  22
HETATM   22  O4  UNK     1      18.557   0.052  36.442  1.00  0.00    -0.279 OA
BRANCH  22  23
HETATM   23  C17 UNK     1      17.667   0.506  37.429  1.00  0.00     0.260 C 
HETATM   24  O6  UNK     1      17.982   0.980  38.512  1.00  0.00    -0.265 OA
HETATM   25  C19 UNK     1      16.252   0.325  36.966  1.00  0.00     0.126 C 
ENDBRANCH  22  23
ENDBRANCH  10  22
TORSDOF 5
ENDMDL
MODEL 2
REMARK VINA RESULT:      -8.7      1.136      1.650
REMARK  5 active torsions:
REMARK  status: ('A' for Active; 'I' for Inactive)
REMARK    1  A    between atoms: C16_22  and  O2_2 
REMARK    2  A    between atoms: C7_13  and  O2_2 
REMARK    3  A    between atoms: C11_17  and  O4_4 
REMARK    4  A    between atoms: C17_23  and  O4_4 
REMARK    5  A    between atoms: C1_7  and  C6_12 
ROOT
HETATM    1  O1  UNK     1      18.188   4.259  33.604  1.00  0.00    -0.340 OA
HETATM    2  O3  UNK     1      18.794   3.049  29.731  1.00  0.00    -0.292 OA
HETATM    3  C1  UNK     1      18.867   5.109  32.667  1.00  0.00     0.169 C 
HETATM    4  C2  UNK     1      18.372   4.863  31.244  1.00  0.00     0.121 C 
HETATM    5  C3  UNK     1      18.528   2.454  32.000  1.00  0.00     0.077 A 
HETATM    6  C4  UNK     1      18.607   3.419  30.884  1.00  0.00     0.167 C 
HETATM    7  C5  UNK     1      18.301   2.928  33.295  1.00  0.00     0.089 A 
HETATM    8  C7  UNK     1      18.636   1.082  31.759  1.00  0.00     0.098 A 
HETATM    9  C8  UNK     1      18.146   2.025  34.347  1.00  0.00     0.075 A 
HETATM   10  C11 UNK     1      18.252   0.654  34.109  1.00  0.00     0.084 A 
HETATM   11  C12 UNK     1      18.501   0.185  32.819  1.00  0.00     0.076 A 
ENDROOT
BRANCH   3  12
HETATM   12  C6  UNK     1      18.648   6.550  33.080  1.00  0.00    -0.029 A 
HETATM   13  C10 UNK     1      17.485   7.215  32.693  1.00  0.00     0.010 A 
HETATM   14  C14 UNK     1      17.282   8.542  33.074  1.00  0.00     0.001 A 
HETATM   15  C15 UNK     1      18.241   9.202  33.841  1.00  0.00     0.000 A 
HETATM   16  C13 UNK     1      19.404   8.535  34.228  1.00  0.00     0.001 A 
HETATM   17  C9  UNK     1      19.607   7.209  33.847  1.00  0.00     0.010 A 
ENDBRANCH   3  12
BRANCH   8  18
HETATM   18  O2  UNK     1      18.862   0.568  30.518  1.00  0.00    -0.278 OA
BRANCH  18  19
HETATM   19  C16 UNK     1      20.142   0.016  30.350  1.00  0.00     0.260 C 
HETATM   20  O5  UNK     1      21.034   0.012  31.188  1.00  0.00    -0.265 OA
HETATM   21  C18 UNK     1      20.270  -0.576  28.978  1.00  0.00     0.126 C 
ENDBRANCH  18  19
ENDBRANCH   8  18
BRANCH  10  22
HETATM   22  O4  UNK     1      18.114  -0.227  35.138  1.00  0.00    -0.279 OA
BRANCH  22  23
HETATM   23  C17 UNK     1      16.878  -0.148  35.799  1.00  0.00     0.260 C 
HETATM   24  O6  UNK     1      15.777  -0.216  35.268  1.00  0.00    -0.265 OA
HETATM   25  C19 UNK     1      17.094   0.037  37.272  1.00  0.00     0.126 C 
ENDBRANCH  22  23
ENDBRANCH  10  22
TORSDOF 5
ENDMDL
MODEL 3
REMARK VINA RESULT:      -8.1      2.428      6.757
REMARK  5 active torsions:
REMARK  status: ('A' for Active; 'I' for Inactive)
REMARK    1  A    between atoms: C16_22  and  O2_2 
REMARK    2  A    between atoms: C7_13  and  O2_2 
REMARK    3  A    between atoms: C11_17  and  O4_4 
REMARK    4  A    between atoms: C17_23  and  O4_4 
REMARK    5  A    between atoms: C1_7  and  C6_12 
ROOT
HETATM    1  O1  UNK     1      18.276   1.011  33.379  1.00  0.00    -0.340 OA
HETATM    2  O3  UNK     1      18.139   5.085  33.843  1.00  0.00    -0.292 OA
HETATM    3  C1  UNK     1      18.673   1.623  34.616  1.00  0.00     0.169 C 
HETATM    4  C2  UNK     1      17.908   2.923  34.856  1.00  0.00     0.121 C 
HETATM    5  C3  UNK     1      18.407   3.239  32.396  1.00  0.00     0.077 A 
HETATM    6  C4  UNK     1      18.173   3.867  33.712  1.00  0.00     0.167 C 
HETATM    7  C5  UNK     1      18.423   1.845  32.301  1.00  0.00     0.089 A 
HETATM    8  C7  UNK     1      18.567   4.027  31.254  1.00  0.00     0.098 A 
HETATM    9  C8  UNK     1      18.566   1.236  31.053  1.00  0.00     0.075 A 
HETATM   10  C11 UNK     1      18.725   2.021  29.910  1.00  0.00     0.084 A 
HETATM   11  C12 UNK     1      18.731   3.412  30.011  1.00  0.00     0.076 A 
ENDROOT
BRANCH   3  12
HETATM   12  C6  UNK     1      18.434   0.634  35.738  1.00  0.00    -0.029 A 
HETATM   13  C10 UNK     1      18.764  -0.710  35.563  1.00  0.00     0.010 A 
HETATM   14  C14 UNK     1      18.545  -1.621  36.596  1.00  0.00     0.001 A 
HETATM   15  C15 UNK     1      17.997  -1.188  37.803  1.00  0.00     0.000 A 
HETATM   16  C13 UNK     1      17.668   0.156  37.978  1.00  0.00     0.001 A 
HETATM   17  C9  UNK     1      17.887   1.067  36.944  1.00  0.00     0.010 A 
ENDBRANCH   3  12
BRANCH   8  18
HETATM   18  O2  UNK     1      18.565   5.388  31.292  1.00  0.00    -0.278 OA
BRANCH  18  19
HETATM   19  C16 UNK     1      19.756   5.978  30.839  1.00  0.00     0.260 C 
HETATM   20  O5  UNK     1      19.998   6.304  29.684  1.00  0.00    -0.265 OA
HETATM   21  C18 UNK     1      20.709   6.155  31.983  1.00  0.00     0.126 C 
ENDBRANCH  18  19
ENDBRANCH   8  18
BRANCH  10  22
HETATM   22  O4  UNK     1      18.877   1.428  28.694  1.00  0.00    -0.279 OA
BRANCH  22  23
HETATM   23  C17 UNK     1      19.647   0.254  28.720  1.00  0.00     0.260 C 
HETATM   24  O6  UNK     1      20.664   0.080  29.377  1.00  0.00    -0.265 OA
HETATM   25  C19 UNK     1      19.042  -0.778  27.814  1.00  0.00     0.126 C 
ENDBRANCH  22  23
ENDBRANCH  10  22
TORSDOF 5
ENDMDL
MODEL 4
REMARK VINA RESULT:      -7.7      4.128      9.065
REMARK  5 active torsions:
REMARK  status: ('A' for Active; 'I' for Inactive)
REMARK    1  A    between atoms: C16_22  and  O2_2 
REMARK    2  A    between atoms: C7_13  and  O2_2 
REMARK    3  A    between atoms: C11_17  and  O4_4 
REMARK    4  A    between atoms: C17_23  and  O4_4 
REMARK    5  A    between atoms: C1_7  and  C6_12 
ROOT
HETATM    1  O1  UNK     1      20.328  -3.748  35.315  1.00  0.00    -0.340 OA
HETATM    2  O3  UNK     1      17.411  -1.103  36.471  1.00  0.00    -0.292 OA
HETATM    3  C1  UNK     1      20.159  -3.399  36.698  1.00  0.00     0.169 C 
HETATM    4  C2  UNK     1      18.703  -3.054  37.004  1.00  0.00     0.121 C 
HETATM    5  C3  UNK     1      18.916  -1.826  34.802  1.00  0.00     0.077 A 
HETATM    6  C4  UNK     1      18.278  -1.901  36.132  1.00  0.00     0.167 C 
HETATM    7  C5  UNK     1      19.890  -2.769  34.461  1.00  0.00     0.089 A 
HETATM    8  C7  UNK     1      18.523  -0.853  33.881  1.00  0.00     0.098 A 
HETATM    9  C8  UNK     1      20.448  -2.759  33.182  1.00  0.00     0.075 A 
HETATM   10  C11 UNK     1      20.055  -1.788  32.259  1.00  0.00     0.084 A 
HETATM   11  C12 UNK     1      19.099  -0.835  32.610  1.00  0.00     0.076 A 
ENDROOT
BRANCH   3  12
HETATM   12  C6  UNK     1      20.636  -4.559  37.547  1.00  0.00    -0.029 A 
HETATM   13  C10 UNK     1      19.726  -5.524  37.979  1.00  0.00     0.010 A 
HETATM   14  C14 UNK     1      20.164  -6.593  38.761  1.00  0.00     0.001 A 
HETATM   15  C15 UNK     1      21.511  -6.696  39.110  1.00  0.00     0.000 A 
HETATM   16  C13 UNK     1      22.420  -5.731  38.676  1.00  0.00     0.001 A 
HETATM   17  C9  UNK     1      21.981  -4.662  37.895  1.00  0.00     0.010 A 
ENDBRANCH   3  12
BRANCH   8  18
HETATM   18  O2  UNK     1      17.583   0.091  34.164  1.00  0.00    -0.278 OA
BRANCH  18  19
HETATM   19  C16 UNK     1      18.026   1.412  33.990  1.00  0.00     0.260 C 
HETATM   20  O5  UNK     1      17.855   2.098  32.990  1.00  0.00    -0.265 OA
HETATM   21  C18 UNK     1      18.750   1.877  35.218  1.00  0.00     0.126 C 
ENDBRANCH  18  19
ENDBRANCH   8  18
BRANCH  10  22
HETATM   22  O4  UNK     1      20.608  -1.771  31.015  1.00  0.00    -0.279 OA
BRANCH  22  23
HETATM   23  C17 UNK     1      20.590  -0.510  30.397  1.00  0.00     0.260 C 
HETATM   24  O6  UNK     1      20.866   0.554  30.935  1.00  0.00    -0.265 OA
HETATM   25  C19 UNK     1      20.175  -0.647  28.961  1.00  0.00     0.126 C 
ENDBRANCH  22  23
ENDBRANCH  10  22
TORSDOF 5
ENDMDL
MODEL 5
REMARK VINA RESULT:      -7.7     15.390     18.497
REMARK  5 active torsions:
REMARK  status: ('A' for Active; 'I' for Inactive)
REMARK    1  A    between atoms: C16_22  and  O2_2 
REMARK    2  A    between atoms: C7_13  and  O2_2 
REMARK    3  A    between atoms: C11_17  and  O4_4 
REMARK    4  A    between atoms: C17_23  and  O4_4 
REMARK    5  A    between atoms: C1_7  and  C6_12 
ROOT
HETATM    1  O1  UNK     1      20.328  -1.868  17.635  1.00  0.00    -0.340 OA
HETATM    2  O3  UNK     1      17.705  -2.954  14.673  1.00  0.00    -0.292 OA
HETATM    3  C1  UNK     1      19.427  -0.907  17.064  1.00  0.00     0.169 C 
HETATM    4  C2  UNK     1      18.139  -1.576  16.589  1.00  0.00     0.121 C 
HETATM    5  C3  UNK     1      19.784  -3.299  15.737  1.00  0.00     0.077 A 
HETATM    6  C4  UNK     1      18.481  -2.627  15.564  1.00  0.00     0.167 C 
HETATM    7  C5  UNK     1      20.625  -2.895  16.777  1.00  0.00     0.089 A 
HETATM    8  C7  UNK     1      20.155  -4.353  14.898  1.00  0.00     0.098 A 
HETATM    9  C8  UNK     1      21.826  -3.571  17.001  1.00  0.00     0.075 A 
HETATM   10  C11 UNK     1      22.198  -4.625  16.166  1.00  0.00     0.084 A 
HETATM   11  C12 UNK     1      21.366  -5.011  15.114  1.00  0.00     0.076 A 
ENDROOT
BRANCH   3  12
HETATM   12  C6  UNK     1      19.138   0.157  18.103  1.00  0.00    -0.029 A 
HETATM   13  C10 UNK     1      19.086   1.499  17.729  1.00  0.00     0.010 A 
HETATM   14  C14 UNK     1      18.820   2.479  18.685  1.00  0.00     0.001 A 
HETATM   15  C15 UNK     1      18.606   2.116  20.015  1.00  0.00     0.000 A 
HETATM   16  C13 UNK     1      18.658   0.773  20.388  1.00  0.00     0.001 A 
HETATM   17  C9  UNK     1      18.925  -0.207  19.431  1.00  0.00     0.010 A 
ENDBRANCH   3  12
BRANCH   8  18
HETATM   18  O2  UNK     1      19.375  -4.782  13.867  1.00  0.00    -0.278 OA
BRANCH  18  19
HETATM   19  C16 UNK     1      20.021  -4.782  12.621  1.00  0.00     0.260 C 
HETATM   20  O5  UNK     1      20.413  -5.774  12.018  1.00  0.00    -0.265 OA
HETATM   21  C18 UNK     1      20.171  -3.377  12.119  1.00  0.00     0.126 C 
ENDBRANCH  18  19
ENDBRANCH   8  18
BRANCH  10  22
HETATM   22  O4  UNK     1      23.374  -5.276  16.376  1.00  0.00    -0.279 OA
BRANCH  22  23
HETATM   23  C17 UNK     1      24.207  -4.665  17.327  1.00  0.00     0.260 C 
HETATM   24  O6  UNK     1      24.087  -4.749  18.542  1.00  0.00    -0.265 OA
HETATM   25  C19 UNK     1      25.282  -3.877  16.638  1.00  0.00     0.126 C 
ENDBRANCH  22  23
ENDBRANCH  10  22
TORSDOF 5
ENDMDL
MODEL 6
REMARK VINA RESULT:      -7.6     14.079     16.737
REMARK  5 active torsions:
REMARK  status: ('A' for Active; 'I' for Inactive)
REMARK    1  A    between atoms: C16_22  and  O2_2 
REMARK    2  A    between atoms: C7_13  and  O2_2 
REMARK    3  A    between atoms: C11_17  and  O4_4 
REMARK    4  A    between atoms: C17_23  and  O4_4 
REMARK    5  A    between atoms: C1_7  and  C6_12 
ROOT
HETATM    1  O1  UNK     1      29.235  -7.201  36.374  1.00  0.00    -0.340 OA
HETATM    2  O3  UNK     1      32.028  -4.824  38.213  1.00  0.00    -0.292 OA
HETATM    3  C1  UNK     1      29.728  -7.526  37.683  1.00  0.00     0.169 C 
HETATM    4  C2  UNK     1      30.125  -6.266  38.449  1.00  0.00     0.121 C 
HETATM    5  C3  UNK     1      31.114  -5.656  36.202  1.00  0.00     0.077 A 
HETATM    6  C4  UNK     1      31.187  -5.532  37.672  1.00  0.00     0.167 C 
HETATM    7  C5  UNK     1      30.127  -6.467  35.635  1.00  0.00     0.089 A 
HETATM    8  C7  UNK     1      31.993  -4.939  35.386  1.00  0.00     0.098 A 
HETATM    9  C8  UNK     1      29.996  -6.534  34.247  1.00  0.00     0.075 A 
HETATM   10  C11 UNK     1      30.872  -5.818  33.430  1.00  0.00     0.084 A 
HETATM   11  C12 UNK     1      31.870  -5.026  33.999  1.00  0.00     0.076 A 
ENDROOT
BRANCH   3  12
HETATM   12  C6  UNK     1      28.655  -8.298  38.421  1.00  0.00    -0.029 A 
HETATM   13  C10 UNK     1      27.367  -7.774  38.525  1.00  0.00     0.010 A 
HETATM   14  C14 UNK     1      26.378  -8.485  39.205  1.00  0.00     0.001 A 
HETATM   15  C15 UNK     1      26.678  -9.721  39.779  1.00  0.00     0.000 A 
HETATM   16  C13 UNK     1      27.966 -10.244  39.674  1.00  0.00     0.001 A 
HETATM   17  C9  UNK     1      28.955  -9.533  38.995  1.00  0.00     0.010 A 
ENDBRANCH   3  12
BRANCH   8  18
HETATM   18  O2  UNK     1      32.975  -4.139  35.886  1.00  0.00    -0.278 OA
BRANCH  18  19
HETATM   19  C16 UNK     1      34.253  -4.407  35.369  1.00  0.00     0.260 C 
HETATM   20  O5  UNK     1      34.774  -3.838  34.419  1.00  0.00    -0.265 OA
HETATM   21  C18 UNK     1      34.903  -5.507  36.154  1.00  0.00     0.126 C 
ENDBRANCH  18  19
ENDBRANCH   8  18
BRANCH  10  22
HETATM   22  O4  UNK     1      30.752  -5.893  32.076  1.00  0.00    -0.279 OA
BRANCH  22  23
HETATM   23  C17 UNK     1      29.830  -4.986  31.530  1.00  0.00     0.260 C 
HETATM   24  O6  UNK     1      29.914  -3.766  31.574  1.00  0.00    -0.265 OA
HETATM   25  C19 UNK     1      28.703  -5.730  30.876  1.00  0.00     0.126 C 
ENDBRANCH  22  23
ENDBRANCH  10  22
TORSDOF 5
ENDMDL
MODEL 7
REMARK VINA RESULT:      -7.5      1.941      6.218
REMARK  5 active torsions:
REMARK  status: ('A' for Active; 'I' for Inactive)
REMARK    1  A    between atoms: C16_22  and  O2_2 
REMARK    2  A    between atoms: C7_13  and  O2_2 
REMARK    3  A    between atoms: C11_17  and  O4_4 
REMARK    4  A    between atoms: C17_23  and  O4_4 
REMARK    5  A    between atoms: C1_7  and  C6_12 
ROOT
HETATM    1  O1  UNK     1      18.273   1.910  34.058  1.00  0.00    -0.340 OA
HETATM    2  O3  UNK     1      19.552  -0.630  31.100  1.00  0.00    -0.292 OA
HETATM    3  C1  UNK     1      17.975   0.507  34.115  1.00  0.00     0.169 C 
HETATM    4  C2  UNK     1      19.063  -0.315  33.428  1.00  0.00     0.121 C 
HETATM    5  C3  UNK     1      18.875   1.544  31.723  1.00  0.00     0.077 A 
HETATM    6  C4  UNK     1      19.176   0.124  31.991  1.00  0.00     0.167 C 
HETATM    7  C5  UNK     1      18.461   2.363  32.778  1.00  0.00     0.089 A 
HETATM    8  C7  UNK     1      19.041   2.075  30.442  1.00  0.00     0.098 A 
HETATM    9  C8  UNK     1      18.247   3.724  32.557  1.00  0.00     0.075 A 
HETATM   10  C11 UNK     1      18.414   4.257  31.278  1.00  0.00     0.084 A 
HETATM   11  C12 UNK     1      18.805   3.433  30.222  1.00  0.00     0.076 A 
ENDROOT
BRANCH   3  12
HETATM   12  C6  UNK     1      17.825   0.107  35.569  1.00  0.00    -0.029 A 
HETATM   13  C10 UNK     1      17.597   1.083  36.538  1.00  0.00     0.010 A 
HETATM   14  C14 UNK     1      17.460   0.716  37.877  1.00  0.00     0.001 A 
HETATM   15  C15 UNK     1      17.549  -0.627  38.245  1.00  0.00     0.000 A 
HETATM   16  C13 UNK     1      17.776  -1.602  37.274  1.00  0.00     0.001 A 
HETATM   17  C9  UNK     1      17.915  -1.235  35.936  1.00  0.00     0.010 A 
ENDBRANCH   3  12
BRANCH   8  18
HETATM   18  O2  UNK     1      19.437   1.321  29.379  1.00  0.00    -0.278 OA
BRANCH  18  19
HETATM   19  C16 UNK     1      18.389   0.931  28.529  1.00  0.00     0.260 C 
HETATM   20  O5  UNK     1      17.330   1.527  28.381  1.00  0.00    -0.265 OA
HETATM   21  C18 UNK     1      18.750  -0.338  27.817  1.00  0.00     0.126 C 
ENDBRANCH  18  19
ENDBRANCH   8  18
BRANCH  10  22
HETATM   22  O4  UNK     1      18.194   5.582  31.060  1.00  0.00    -0.279 OA
BRANCH  22  23
HETATM   23  C17 UNK     1      18.946   6.433  31.886  1.00  0.00     0.260 C 
HETATM   24  O6  UNK     1      20.164   6.433  31.992  1.00  0.00    -0.265 OA
HETATM   25  C19 UNK     1      18.033   7.358  32.637  1.00  0.00     0.126 C 
ENDBRANCH  22  23
ENDBRANCH  10  22
TORSDOF 5
ENDMDL
MODEL 8
REMARK VINA RESULT:      -7.5      7.263      9.855
REMARK  5 active torsions:
REMARK  status: ('A' for Active; 'I' for Inactive)
REMARK    1  A    between atoms: C16_22  and  O2_2 
REMARK    2  A    between atoms: C7_13  and  O2_2 
REMARK    3  A    between atoms: C11_17  and  O4_4 
REMARK    4  A    between atoms: C17_23  and  O4_4 
REMARK    5  A    between atoms: C1_7  and  C6_12 
ROOT
HETATM    1  O1  UNK     1      20.452  -4.142  37.706  1.00  0.00    -0.340 OA
HETATM    2  O3  UNK     1      18.688  -7.124  35.508  1.00  0.00    -0.292 OA
HETATM    3  C1  UNK     1      19.736  -3.839  36.498  1.00  0.00     0.169 C 
HETATM    4  C2  UNK     1      18.613  -4.846  36.258  1.00  0.00     0.121 C 
HETATM    5  C3  UNK     1      20.415  -6.470  36.978  1.00  0.00     0.077 A 
HETATM    6  C4  UNK     1      19.205  -6.229  36.166  1.00  0.00     0.167 C 
HETATM    7  C5  UNK     1      20.957  -5.417  37.720  1.00  0.00     0.089 A 
HETATM    8  C7  UNK     1      20.986  -7.743  37.038  1.00  0.00     0.098 A 
HETATM    9  C8  UNK     1      22.054  -5.646  38.552  1.00  0.00     0.075 A 
HETATM   10  C11 UNK     1      22.625  -6.918  38.615  1.00  0.00     0.084 A 
HETATM   11  C12 UNK     1      22.096  -7.962  37.856  1.00  0.00     0.076 A 
ENDROOT
BRANCH   3  12
HETATM   12  C6  UNK     1      19.192  -2.430  36.605  1.00  0.00    -0.029 A 
HETATM   13  C10 UNK     1      19.399  -1.524  35.565  1.00  0.00     0.010 A 
HETATM   14  C14 UNK     1      18.897  -0.225  35.662  1.00  0.00     0.001 A 
HETATM   15  C15 UNK     1      18.189   0.165  36.799  1.00  0.00     0.000 A 
HETATM   16  C13 UNK     1      17.982  -0.742  37.837  1.00  0.00     0.001 A 
HETATM   17  C9  UNK     1      18.484  -2.040  37.740  1.00  0.00     0.010 A 
ENDBRANCH   3  12
BRANCH   8  18
HETATM   18  O2  UNK     1      20.501  -8.802  36.332  1.00  0.00    -0.278 OA
BRANCH  18  19
HETATM   19  C16 UNK     1      21.259  -9.131  35.197  1.00  0.00     0.260 C 
HETATM   20  O5  UNK     1      21.402  -8.428  34.205  1.00  0.00    -0.265 OA
HETATM   21  C18 UNK     1      21.878 -10.486  35.368  1.00  0.00     0.126 C 
ENDBRANCH  18  19
ENDBRANCH   8  18
BRANCH  10  22
HETATM   22  O4  UNK     1      23.703  -7.139  39.417  1.00  0.00    -0.279 OA
BRANCH  22  23
HETATM   23  C17 UNK     1      24.924  -6.717  38.867  1.00  0.00     0.260 C 
HETATM   24  O6  UNK     1      25.257  -5.556  38.671  1.00  0.00    -0.265 OA
HETATM   25  C19 UNK     1      25.780  -7.906  38.544  1.00  0.00     0.126 C 
ENDBRANCH  22  23
ENDBRANCH  10  22
TORSDOF 5
ENDMDL
MODEL 9
REMARK VINA RESULT:      -7.3      4.986      9.618
REMARK  5 active torsions:
REMARK  status: ('A' for Active; 'I' for Inactive)
REMARK    1  A    between atoms: C16_22  and  O2_2 
REMARK    2  A    between atoms: C7_13  and  O2_2 
REMARK    3  A    between atoms: C11_17  and  O4_4 
REMARK    4  A    between atoms: C17_23  and  O4_4 
REMARK    5  A    between atoms: C1_7  and  C6_12 
ROOT
HETATM    1  O1  UNK     1      17.861   8.351  32.634  1.00  0.00    -0.340 OA
HETATM    2  O3  UNK     1      13.970   8.048  33.900  1.00  0.00    -0.292 OA
HETATM    3  C1  UNK     1      17.261   7.066  32.861  1.00  0.00     0.169 C 
HETATM    4  C2  UNK     1      15.756   7.109  32.602  1.00  0.00     0.121 C 
HETATM    5  C3  UNK     1      15.974   9.294  33.859  1.00  0.00     0.077 A 
HETATM    6  C4  UNK     1      15.130   8.133  33.512  1.00  0.00     0.167 C 
HETATM    7  C5  UNK     1      17.287   9.347  33.381  1.00  0.00     0.089 A 
HETATM    8  C7  UNK     1      15.457  10.345  34.618  1.00  0.00     0.098 A 
HETATM    9  C8  UNK     1      18.073  10.472  33.634  1.00  0.00     0.075 A 
HETATM   10  C11 UNK     1      17.557  11.525  34.392  1.00  0.00     0.084 A 
HETATM   11  C12 UNK     1      16.255  11.459  34.887  1.00  0.00     0.076 A 
ENDROOT
BRANCH   3  12
HETATM   12  C6  UNK     1      17.941   6.054  31.964  1.00  0.00    -0.029 A 
HETATM   13  C10 UNK     1      17.797   4.690  32.219  1.00  0.00     0.010 A 
HETATM   14  C14 UNK     1      18.423   3.757  31.392  1.00  0.00     0.001 A 
HETATM   15  C15 UNK     1      19.192   4.188  30.311  1.00  0.00     0.000 A 
HETATM   16  C13 UNK     1      19.334   5.552  30.056  1.00  0.00     0.001 A 
HETATM   17  C9  UNK     1      18.709   6.485  30.883  1.00  0.00     0.010 A 
ENDBRANCH   3  12
BRANCH   8  18
HETATM   18  O2  UNK     1      14.188  10.342  35.112  1.00  0.00    -0.278 OA
BRANCH  18  19
HETATM   19  C16 UNK     1      13.412  11.441  34.710  1.00  0.00     0.260 C 
HETATM   20  O5  UNK     1      13.099  12.392  35.416  1.00  0.00    -0.265 OA
HETATM   21  C18 UNK     1      13.010  11.288  33.274  1.00  0.00     0.126 C 
ENDBRANCH  18  19
ENDBRANCH   8  18
BRANCH  10  22
HETATM   22  O4  UNK     1      18.328  12.617  34.650  1.00  0.00    -0.279 OA
BRANCH  22  23
HETATM   23  C17 UNK     1      18.365  13.554  33.604  1.00  0.00     0.260 C 
HETATM   24  O6  UNK     1      18.928  13.403  32.529  1.00  0.00    -0.265 OA
HETATM   25  C19 UNK     1      17.607  14.789  33.994  1.00  0.00     0.126 C 
ENDBRANCH  22  23
ENDBRANCH  10  22
TORSDOF 5
ENDMDL
MODEL 10
REMARK VINA RESULT:      -7.3      6.040     10.149
REMARK  5 active torsions:
REMARK  status: ('A' for Active; 'I' for Inactive)
REMARK    1  A    between atoms: C16_22  and  O2_2 
REMARK    2  A    between atoms: C7_13  and  O2_2 
REMARK    3  A    between atoms: C11_17  and  O4_4 
REMARK    4  A    between atoms: C17_23  and  O4_4 
REMARK    5  A    between atoms: C1_7  and  C6_12 
ROOT
HETATM    1  O1  UNK     1      18.077   9.530  33.227  1.00  0.00    -0.340 OA
HETATM    2  O3  UNK     1      14.229   8.532  34.243  1.00  0.00    -0.292 OA
HETATM    3  C1  UNK     1      17.705   8.159  33.438  1.00  0.00     0.169 C 
HETATM    4  C2  UNK     1      16.239   7.926  33.081  1.00  0.00     0.121 C 
HETATM    5  C3  UNK     1      15.973  10.122  34.310  1.00  0.00     0.077 A 
HETATM    6  C4  UNK     1      15.378   8.824  33.931  1.00  0.00     0.167 C 
HETATM    7  C5  UNK     1      17.283  10.410  33.916  1.00  0.00     0.089 A 
HETATM    8  C7  UNK     1      15.224  11.066  35.015  1.00  0.00     0.098 A 
HETATM    9  C8  UNK     1      17.833  11.661  34.200  1.00  0.00     0.075 A 
HETATM   10  C11 UNK     1      17.086  12.607  34.903  1.00  0.00     0.084 A 
HETATM   11  C12 UNK     1      15.787  12.308  35.314  1.00  0.00     0.076 A 
ENDROOT
BRANCH   3  12
HETATM   12  C6  UNK     1      18.616   7.282  32.605  1.00  0.00    -0.029 A 
HETATM   13  C10 UNK     1      19.895   6.970  33.067  1.00  0.00     0.010 A 
HETATM   14  C14 UNK     1      20.734   6.162  32.300  1.00  0.00     0.001 A 
HETATM   15  C15 UNK     1      20.294   5.666  31.073  1.00  0.00     0.000 A 
HETATM   16  C13 UNK     1      19.016   5.978  30.612  1.00  0.00     0.001 A 
HETATM   17  C9  UNK     1      18.177   6.787  31.379  1.00  0.00     0.010 A 
ENDBRANCH   3  12
BRANCH   8  18
HETATM   18  O2  UNK     1      13.946  10.835  35.426  1.00  0.00    -0.278 OA
BRANCH  18  19
HETATM   19  C16 UNK     1      13.018  11.789  34.980  1.00  0.00     0.260 C 
HETATM   20  O5  UNK     1      12.474  12.638  35.676  1.00  0.00    -0.265 OA
HETATM   21  C18 UNK     1      12.776  11.624  33.509  1.00  0.00     0.126 C 
ENDBRANCH  18  19
ENDBRANCH   8  18
BRANCH  10  22
HETATM   22  O4  UNK     1      17.627  13.823  35.190  1.00  0.00    -0.279 OA
BRANCH  22  23
HETATM   23  C17 UNK     1      17.738  14.678  34.082  1.00  0.00     0.260 C 
HETATM   24  O6  UNK     1      16.837  14.962  33.305  1.00  0.00    -0.265 OA
HETATM   25  C19 UNK     1      19.139  15.204  33.978  1.00  0.00     0.126 C 
ENDBRANCH  22  23
ENDBRANCH  10  22
TORSDOF 5
ENDMDL
