MODEL 1
REMARK VINA RESULT:     -10.5      0.000      0.000
REMARK  3 active torsions:
REMARK  status: ('A' for Active; 'I' for Inactive)
REMARK    1  A    between atoms: C17_23  and  O5_5 
REMARK    2  A    between atoms: C16_22  and  N1_6 
REMARK    3  A    between atoms: C11_17  and  C4_10 
ROOT
HETATM    1  O1  UNK     1      17.686   4.114  30.711  1.00  0.00    -0.332 OA
HETATM    2  O2  UNK     1      19.708  -0.156  31.882  1.00  0.00    -0.274 OA
HETATM    3  O3  UNK     1      18.285   4.197  34.270  1.00  0.00    -0.289 OA
HETATM    4  O4  UNK     1      20.731  -2.147  32.366  1.00  0.00    -0.260 OA
HETATM    5  C1  UNK     1      18.168   4.724  31.910  1.00  0.00     0.125 C 
HETATM    6  C2  UNK     1      18.609   1.958  31.382  1.00  0.00     0.048 A 
HETATM    7  C3  UNK     1      18.267   3.782  33.113  1.00  0.00     0.196 C 
HETATM    8  C4  UNK     1      18.378   2.328  32.788  1.00  0.00     0.044 C 
HETATM    9  C5  UNK     1      18.219   2.888  30.406  1.00  0.00     0.084 A 
HETATM   10  C6  UNK     1      17.154   5.829  32.236  1.00  0.00     0.055 C 
HETATM   11  C7  UNK     1      19.539   5.359  31.650  1.00  0.00     0.055 C 
HETATM   12  C8  UNK     1      19.201   0.765  30.933  1.00  0.00     0.103 A 
HETATM   13  C9  UNK     1      19.336   0.469  29.572  1.00  0.00    -0.001 A 
HETATM   14  C10 UNK     1      18.325   2.595  29.043  1.00  0.00     0.039 A 
HETATM   15  C12 UNK     1      18.881   1.387  28.626  1.00  0.00     0.017 A 
HETATM   16  C13 UNK     1      19.951  -0.787  29.171  1.00  0.00     0.020 A 
HETATM   17  C14 UNK     1      20.404  -1.644  30.087  1.00  0.00     0.083 A 
HETATM   18  C15 UNK     1      20.306  -1.360  31.527  1.00  0.00     0.288 A 
ENDROOT
BRANCH   8  19
HETATM   19  C11 UNK     1      18.139   1.466  33.788  1.00  0.00     0.104 C 
HETATM   20  N1  UNK     1      18.910   1.221  34.870  1.00  0.00    -0.363 N 
HETATM   21  H11 UNK     1      19.777   1.741  34.944  1.00  0.00     0.165 HD
BRANCH  20  22
HETATM   22  C16 UNK     1      18.683   0.323  35.930  1.00  0.00     0.065 A 
HETATM   23  C17 UNK     1      19.181  -0.982  35.881  1.00  0.00     0.092 A 
HETATM   24  C19 UNK     1      18.949  -1.860  36.939  1.00  0.00     0.039 A 
HETATM   25  C21 UNK     1      18.219  -1.438  38.049  1.00  0.00     0.003 A 
HETATM   26  C20 UNK     1      17.720  -0.136  38.102  1.00  0.00     0.002 A 
HETATM   27  C18 UNK     1      17.953   0.743  37.044  1.00  0.00     0.032 A 
BRANCH  23  28
HETATM   28  O5  UNK     1      19.897  -1.414  34.804  1.00  0.00    -0.358 OA
HETATM   29  H17 UNK     1      20.844  -1.403  35.028  1.00  0.00     0.217 HD
ENDBRANCH  23  28
ENDBRANCH  20  22
ENDBRANCH   8  19
TORSDOF 3
ENDMDL
MODEL 2
REMARK VINA RESULT:      -9.9      1.684      5.806
REMARK  3 active torsions:
REMARK  status: ('A' for Active; 'I' for Inactive)
REMARK    1  A    between atoms: C17_23  and  O5_5 
REMARK    2  A    between atoms: C16_22  and  N1_6 
REMARK    3  A    between atoms: C11_17  and  C4_10 
ROOT
HETATM    1  O1  UNK     1      19.023  -1.205  35.088  1.00  0.00    -0.332 OA
HETATM    2  O2  UNK     1      18.904   0.887  30.694  1.00  0.00    -0.274 OA
HETATM    3  O3  UNK     1      16.948   1.733  35.399  1.00  0.00    -0.289 OA
HETATM    4  O4  UNK     1      18.813   1.784  28.589  1.00  0.00    -0.260 OA
HETATM    5  C1  UNK     1      17.841  -0.515  35.500  1.00  0.00     0.125 C 
HETATM    6  C2  UNK     1      19.002  -0.051  32.938  1.00  0.00     0.048 A 
HETATM    7  C3  UNK     1      17.664   0.877  34.885  1.00  0.00     0.196 C 
HETATM    8  C4  UNK     1      18.389   1.112  33.600  1.00  0.00     0.044 C 
HETATM    9  C5  UNK     1      19.309  -1.155  33.747  1.00  0.00     0.084 A 
HETATM   10  C6  UNK     1      17.971  -0.364  37.022  1.00  0.00     0.055 C 
HETATM   11  C7  UNK     1      16.608  -1.370  35.182  1.00  0.00     0.055 C 
HETATM   12  C8  UNK     1      19.292  -0.158  31.567  1.00  0.00     0.103 A 
HETATM   13  C9  UNK     1      19.927  -1.282  31.028  1.00  0.00    -0.001 A 
HETATM   14  C10 UNK     1      19.966  -2.275  33.226  1.00  0.00     0.039 A 
HETATM   15  C12 UNK     1      20.276  -2.338  31.869  1.00  0.00     0.017 A 
HETATM   16  C13 UNK     1      20.206  -1.330  29.601  1.00  0.00     0.020 A 
HETATM   17  C14 UNK     1      19.844  -0.323  28.804  1.00  0.00     0.083 A 
HETATM   18  C15 UNK     1      19.151   0.865  29.326  1.00  0.00     0.288 A 
ENDROOT
BRANCH   8  19
HETATM   19  C11 UNK     1      18.526   2.388  33.209  1.00  0.00     0.104 C 
HETATM   20  N1  UNK     1      17.774   3.063  32.311  1.00  0.00    -0.363 N 
HETATM   21  H11 UNK     1      17.016   2.554  31.872  1.00  0.00     0.165 HD
BRANCH  20  22
HETATM   22  C16 UNK     1      17.897   4.398  31.885  1.00  0.00     0.065 A 
HETATM   23  C17 UNK     1      18.793   4.745  30.870  1.00  0.00     0.092 A 
HETATM   24  C19 UNK     1      18.904   6.072  30.456  1.00  0.00     0.039 A 
HETATM   25  C21 UNK     1      18.119   7.057  31.055  1.00  0.00     0.003 A 
HETATM   26  C20 UNK     1      17.222   6.716  32.068  1.00  0.00     0.002 A 
HETATM   27  C18 UNK     1      17.111   5.388  32.481  1.00  0.00     0.032 A 
BRANCH  23  28
HETATM   28  O5  UNK     1      19.569   3.797  30.273  1.00  0.00    -0.358 OA
HETATM   29  H17 UNK     1      20.185   3.431  30.930  1.00  0.00     0.217 HD
ENDBRANCH  23  28
ENDBRANCH  20  22
ENDBRANCH   8  19
TORSDOF 3
ENDMDL
MODEL 3
REMARK VINA RESULT:      -9.4      1.876      5.850
REMARK  3 active torsions:
REMARK  status: ('A' for Active; 'I' for Inactive)
REMARK    1  A    between atoms: C17_23  and  O5_5 
REMARK    2  A    between atoms: C16_22  and  N1_6 
REMARK    3  A    between atoms: C11_17  and  C4_10 
ROOT
HETATM    1  O1  UNK     1      18.572  -1.065  35.141  1.00  0.00    -0.332 OA
HETATM    2  O2  UNK     1      18.588   2.118  31.458  1.00  0.00    -0.274 OA
HETATM    3  O3  UNK     1      16.931   1.916  36.346  1.00  0.00    -0.289 OA
HETATM    4  O4  UNK     1      18.548   3.548  29.669  1.00  0.00    -0.260 OA
HETATM    5  C1  UNK     1      17.511  -0.370  35.799  1.00  0.00     0.125 C 
HETATM    6  C2  UNK     1      18.635   0.613  33.371  1.00  0.00     0.048 A 
HETATM    7  C3  UNK     1      17.505   1.146  35.579  1.00  0.00     0.196 C 
HETATM    8  C4  UNK     1      18.210   1.624  34.352  1.00  0.00     0.044 C 
HETATM    9  C5  UNK     1      18.816  -0.696  33.842  1.00  0.00     0.084 A 
HETATM   10  C6  UNK     1      17.713  -0.646  37.295  1.00  0.00     0.055 C 
HETATM   11  C7  UNK     1      16.162  -0.951  35.357  1.00  0.00     0.055 C 
HETATM   12  C8  UNK     1      18.860   0.839  32.002  1.00  0.00     0.103 A 
HETATM   13  C9  UNK     1      19.315  -0.170  31.147  1.00  0.00    -0.001 A 
HETATM   14  C10 UNK     1      19.294  -1.709  33.005  1.00  0.00     0.039 A 
HETATM   15  C12 UNK     1      19.545  -1.446  31.659  1.00  0.00     0.017 A 
HETATM   16  C13 UNK     1      19.535   0.129  29.740  1.00  0.00     0.020 A 
HETATM   17  C14 UNK     1      19.287   1.349  29.259  1.00  0.00     0.083 A 
HETATM   18  C15 UNK     1      18.782   2.431  30.117  1.00  0.00     0.288 A 
ENDROOT
BRANCH   8  19
HETATM   19  C11 UNK     1      18.507   2.931  34.297  1.00  0.00     0.104 C 
HETATM   20  N1  UNK     1      17.933   3.877  33.520  1.00  0.00    -0.363 N 
HETATM   21  H11 UNK     1      17.192   3.574  32.898  1.00  0.00     0.165 HD
BRANCH  20  22
HETATM   22  C16 UNK     1      18.226   5.251  33.443  1.00  0.00     0.065 A 
HETATM   23  C17 UNK     1      17.373   6.127  32.765  1.00  0.00     0.092 A 
HETATM   24  C19 UNK     1      17.675   7.487  32.698  1.00  0.00     0.039 A 
HETATM   25  C21 UNK     1      18.830   7.976  33.308  1.00  0.00     0.003 A 
HETATM   26  C20 UNK     1      19.683   7.105  33.986  1.00  0.00     0.002 A 
HETATM   27  C18 UNK     1      19.381   5.745  34.054  1.00  0.00     0.032 A 
BRANCH  23  28
HETATM   28  O5  UNK     1      16.241   5.669  32.162  1.00  0.00    -0.358 OA
HETATM   29  H17 UNK     1      16.321   4.709  32.022  1.00  0.00     0.217 HD
ENDBRANCH  23  28
ENDBRANCH  20  22
ENDBRANCH   8  19
TORSDOF 3
ENDMDL
MODEL 4
REMARK VINA RESULT:      -9.1     12.036     14.371
REMARK  3 active torsions:
REMARK  status: ('A' for Active; 'I' for Inactive)
REMARK    1  A    between atoms: C17_23  and  O5_5 
REMARK    2  A    between atoms: C16_22  and  N1_6 
REMARK    3  A    between atoms: C11_17  and  C4_10 
ROOT
HETATM    1  O1  UNK     1      27.217  -6.453  38.830  1.00  0.00    -0.332 OA
HETATM    2  O2  UNK     1      30.790  -5.833  35.583  1.00  0.00    -0.274 OA
HETATM    3  O3  UNK     1      26.877  -9.103  36.402  1.00  0.00    -0.289 OA
HETATM    4  O4  UNK     1      32.537  -5.545  34.131  1.00  0.00    -0.260 OA
HETATM    5  C1  UNK     1      27.043  -7.819  38.448  1.00  0.00     0.125 C 
HETATM    6  C2  UNK     1      28.921  -6.142  37.113  1.00  0.00     0.048 A 
HETATM    7  C3  UNK     1      27.330  -8.113  36.972  1.00  0.00     0.196 C 
HETATM    8  C4  UNK     1      28.227  -7.138  36.282  1.00  0.00     0.044 C 
HETATM    9  C5  UNK     1      28.347  -5.838  38.356  1.00  0.00     0.084 A 
HETATM   10  C6  UNK     1      25.568  -8.134  38.731  1.00  0.00     0.055 C 
HETATM   11  C7  UNK     1      27.927  -8.716  39.323  1.00  0.00     0.055 C 
HETATM   12  C8  UNK     1      30.116  -5.481  36.778  1.00  0.00     0.103 A 
HETATM   13  C9  UNK     1      30.683  -4.506  37.605  1.00  0.00    -0.001 A 
HETATM   14  C10 UNK     1      28.888  -4.847  39.182  1.00  0.00     0.039 A 
HETATM   15  C12 UNK     1      30.053  -4.181  38.807  1.00  0.00     0.017 A 
HETATM   16  C13 UNK     1      31.918  -3.853  37.200  1.00  0.00     0.020 A 
HETATM   17  C14 UNK     1      32.522  -4.192  36.059  1.00  0.00     0.083 A 
HETATM   18  C15 UNK     1      31.975  -5.231  35.174  1.00  0.00     0.288 A 
ENDROOT
BRANCH   8  19
HETATM   19  C11 UNK     1      28.237  -7.172  34.940  1.00  0.00     0.104 C 
HETATM   20  N1  UNK     1      28.172  -6.127  34.087  1.00  0.00    -0.363 N 
HETATM   21  H11 UNK     1      28.104  -5.202  34.496  1.00  0.00     0.165 HD
BRANCH  20  22
HETATM   22  C16 UNK     1      28.181  -6.136  32.679  1.00  0.00     0.065 A 
HETATM   23  C17 UNK     1      29.150  -5.426  31.965  1.00  0.00     0.092 A 
HETATM   24  C19 UNK     1      29.147  -5.446  30.570  1.00  0.00     0.039 A 
HETATM   25  C21 UNK     1      28.175  -6.174  29.885  1.00  0.00     0.003 A 
HETATM   26  C20 UNK     1      27.206  -6.884  30.594  1.00  0.00     0.002 A 
HETATM   27  C18 UNK     1      27.209  -6.866  31.989  1.00  0.00     0.032 A 
BRANCH  23  28
HETATM   28  O5  UNK     1      30.108  -4.709  32.616  1.00  0.00    -0.358 OA
HETATM   29  H17 UNK     1      30.594  -4.167  31.970  1.00  0.00     0.217 HD
ENDBRANCH  23  28
ENDBRANCH  20  22
ENDBRANCH   8  19
TORSDOF 3
ENDMDL
MODEL 5
REMARK VINA RESULT:      -8.7     12.426     14.643
REMARK  3 active torsions:
REMARK  status: ('A' for Active; 'I' for Inactive)
REMARK    1  A    between atoms: C17_23  and  O5_5 
REMARK    2  A    between atoms: C16_22  and  N1_6 
REMARK    3  A    between atoms: C11_17  and  C4_10 
ROOT
HETATM    1  O1  UNK     1      27.411  -6.614  38.923  1.00  0.00    -0.332 OA
HETATM    2  O2  UNK     1      30.589  -5.864  35.314  1.00  0.00    -0.274 OA
HETATM    3  O3  UNK     1      26.715  -9.102  36.402  1.00  0.00    -0.289 OA
HETATM    4  O4  UNK     1      32.159  -5.521  33.682  1.00  0.00    -0.260 OA
HETATM    5  C1  UNK     1      27.156  -7.950  38.485  1.00  0.00     0.125 C 
HETATM    6  C2  UNK     1      28.908  -6.231  37.035  1.00  0.00     0.048 A 
HETATM    7  C3  UNK     1      27.258  -8.158  36.971  1.00  0.00     0.196 C 
HETATM    8  C4  UNK     1      28.093  -7.160  36.236  1.00  0.00     0.044 C 
HETATM    9  C5  UNK     1      28.493  -5.992  38.354  1.00  0.00     0.084 A 
HETATM   10  C6  UNK     1      25.717  -8.253  38.924  1.00  0.00     0.055 C 
HETATM   11  C7  UNK     1      28.113  -8.916  39.194  1.00  0.00     0.055 C 
HETATM   12  C8  UNK     1      30.072  -5.574  36.600  1.00  0.00     0.103 A 
HETATM   13  C9  UNK     1      30.758  -4.663  37.409  1.00  0.00    -0.001 A 
HETATM   14  C10 UNK     1      29.154  -5.065  39.166  1.00  0.00     0.039 A 
HETATM   15  C12 UNK     1      30.284  -4.400  38.694  1.00  0.00     0.017 A 
HETATM   16  C13 UNK     1      31.953  -4.010  36.897  1.00  0.00     0.020 A 
HETATM   17  C14 UNK     1      32.409  -4.290  35.674  1.00  0.00     0.083 A 
HETATM   18  C15 UNK     1      31.733  -5.261  34.801  1.00  0.00     0.288 A 
ENDROOT
BRANCH   8  19
HETATM   19  C11 UNK     1      27.943  -7.112  34.904  1.00  0.00     0.104 C 
HETATM   20  N1  UNK     1      28.451  -7.962  33.984  1.00  0.00    -0.363 N 
HETATM   21  H11 UNK     1      29.016  -8.729  34.329  1.00  0.00     0.165 HD
BRANCH  20  22
HETATM   22  C16 UNK     1      28.310  -7.932  32.584  1.00  0.00     0.065 A 
HETATM   23  C17 UNK     1      28.587  -9.065  31.813  1.00  0.00     0.092 A 
HETATM   24  C19 UNK     1      28.441  -9.021  30.427  1.00  0.00     0.039 A 
HETATM   25  C21 UNK     1      28.017  -7.847  29.806  1.00  0.00     0.003 A 
HETATM   26  C20 UNK     1      27.739  -6.714  30.572  1.00  0.00     0.002 A 
HETATM   27  C18 UNK     1      27.884  -6.758  31.958  1.00  0.00     0.032 A 
BRANCH  23  28
HETATM   28  O5  UNK     1      29.003 -10.222  32.400  1.00  0.00    -0.358 OA
HETATM   29  H17 UNK     1      29.723 -10.021  33.023  1.00  0.00     0.217 HD
ENDBRANCH  23  28
ENDBRANCH  20  22
ENDBRANCH   8  19
TORSDOF 3
ENDMDL
MODEL 6
REMARK VINA RESULT:      -8.5     15.349     18.906
REMARK  3 active torsions:
REMARK  status: ('A' for Active; 'I' for Inactive)
REMARK    1  A    between atoms: C17_23  and  O5_5 
REMARK    2  A    between atoms: C16_22  and  N1_6 
REMARK    3  A    between atoms: C11_17  and  C4_10 
ROOT
HETATM    1  O1  UNK     1      17.876  -6.445  16.046  1.00  0.00    -0.332 OA
HETATM    2  O2  UNK     1      18.556  -2.481  13.304  1.00  0.00    -0.274 OA
HETATM    3  O3  UNK     1      15.612  -3.926  17.294  1.00  0.00    -0.289 OA
HETATM    4  O4  UNK     1      18.856  -0.671  11.933  1.00  0.00    -0.260 OA
HETATM    5  C1  UNK     1      16.596  -5.983  16.480  1.00  0.00     0.125 C 
HETATM    6  C2  UNK     1      18.238  -4.393  14.776  1.00  0.00     0.048 A 
HETATM    7  C3  UNK     1      16.469  -4.461  16.594  1.00  0.00     0.196 C 
HETATM    8  C4  UNK     1      17.432  -3.668  15.772  1.00  0.00     0.044 C 
HETATM    9  C5  UNK     1      18.433  -5.766  14.992  1.00  0.00     0.084 A 
HETATM   10  C6  UNK     1      16.395  -6.596  17.872  1.00  0.00     0.055 C 
HETATM   11  C7  UNK     1      15.510  -6.511  15.534  1.00  0.00     0.055 C 
HETATM   12  C8  UNK     1      18.815  -3.837  13.621  1.00  0.00     0.103 A 
HETATM   13  C9  UNK     1      19.613  -4.588  12.753  1.00  0.00    -0.001 A 
HETATM   14  C10 UNK     1      19.250  -6.524  14.147  1.00  0.00     0.039 A 
HETATM   15  C12 UNK     1      19.840  -5.936  13.030  1.00  0.00     0.017 A 
HETATM   16  C13 UNK     1      20.188  -3.952  11.578  1.00  0.00     0.020 A 
HETATM   17  C14 UNK     1      19.942  -2.667  11.313  1.00  0.00     0.083 A 
HETATM   18  C15 UNK     1      19.086  -1.848  12.185  1.00  0.00     0.288 A 
ENDROOT
BRANCH   8  19
HETATM   19  C11 UNK     1      17.571  -2.372  16.087  1.00  0.00     0.104 C 
HETATM   20  N1  UNK     1      18.687  -1.742  16.518  1.00  0.00    -0.363 N 
HETATM   21  H11 UNK     1      19.522  -2.305  16.623  1.00  0.00     0.165 HD
BRANCH  20  22
HETATM   22  C16 UNK     1      18.859  -0.386  16.856  1.00  0.00     0.065 A 
HETATM   23  C17 UNK     1      19.230   0.551  15.887  1.00  0.00     0.092 A 
HETATM   24  C19 UNK     1      19.395   1.891  16.236  1.00  0.00     0.039 A 
HETATM   25  C21 UNK     1      19.190   2.300  17.553  1.00  0.00     0.003 A 
HETATM   26  C20 UNK     1      18.819   1.368  18.523  1.00  0.00     0.002 A 
HETATM   27  C18 UNK     1      18.653   0.028  18.175  1.00  0.00     0.032 A 
BRANCH  23  28
HETATM   28  O5  UNK     1      19.435   0.171  14.595  1.00  0.00    -0.358 OA
HETATM   29  H17 UNK     1      19.419  -0.800  14.543  1.00  0.00     0.217 HD
ENDBRANCH  23  28
ENDBRANCH  20  22
ENDBRANCH   8  19
TORSDOF 3
ENDMDL
MODEL 7
REMARK VINA RESULT:      -8.4     12.719     15.556
REMARK  3 active torsions:
REMARK  status: ('A' for Active; 'I' for Inactive)
REMARK    1  A    between atoms: C17_23  and  O5_5 
REMARK    2  A    between atoms: C16_22  and  N1_6 
REMARK    3  A    between atoms: C11_17  and  C4_10 
ROOT
HETATM    1  O1  UNK     1      32.236  -4.485  36.919  1.00  0.00    -0.332 OA
HETATM    2  O2  UNK     1      32.590  -7.214  32.905  1.00  0.00    -0.274 OA
HETATM    3  O3  UNK     1      29.040  -6.108  36.489  1.00  0.00    -0.289 OA
HETATM    4  O4  UNK     1      32.835  -8.545  31.056  1.00  0.00    -0.260 OA
HETATM    5  C1  UNK     1      31.112  -5.234  37.386  1.00  0.00     0.125 C 
HETATM    6  C2  UNK     1      32.313  -5.795  34.862  1.00  0.00     0.048 A 
HETATM    7  C3  UNK     1      30.209  -5.790  36.281  1.00  0.00     0.196 C 
HETATM    8  C4  UNK     1      30.852  -5.955  34.943  1.00  0.00     0.044 C 
HETATM    9  C5  UNK     1      32.926  -5.032  35.868  1.00  0.00     0.084 A 
HETATM   10  C6  UNK     1      30.296  -4.251  38.236  1.00  0.00     0.055 C 
HETATM   11  C7  UNK     1      31.595  -6.388  38.273  1.00  0.00     0.055 C 
HETATM   12  C8  UNK     1      33.148  -6.350  33.878  1.00  0.00     0.103 A 
HETATM   13  C9  UNK     1      34.524  -6.103  33.845  1.00  0.00    -0.001 A 
HETATM   14  C10 UNK     1      34.297  -4.756  35.834  1.00  0.00     0.039 A 
HETATM   15  C12 UNK     1      35.095  -5.289  34.824  1.00  0.00     0.017 A 
HETATM   16  C13 UNK     1      35.334  -6.702  32.796  1.00  0.00     0.020 A 
HETATM   17  C14 UNK     1      34.778  -7.499  31.880  1.00  0.00     0.083 A 
HETATM   18  C15 UNK     1      33.340  -7.806  31.894  1.00  0.00     0.288 A 
ENDROOT
BRANCH   8  19
HETATM   19  C11 UNK     1      30.031  -6.121  33.895  1.00  0.00     0.104 C 
HETATM   20  N1  UNK     1      29.567  -7.283  33.384  1.00  0.00    -0.363 N 
HETATM   21  H11 UNK     1      29.870  -8.138  33.836  1.00  0.00     0.165 HD
BRANCH  20  22
HETATM   22  C16 UNK     1      28.707  -7.483  32.288  1.00  0.00     0.065 A 
HETATM   23  C17 UNK     1      28.901  -8.556  31.413  1.00  0.00     0.092 A 
HETATM   24  C19 UNK     1      28.041  -8.743  30.332  1.00  0.00     0.039 A 
HETATM   25  C21 UNK     1      26.984  -7.859  30.120  1.00  0.00     0.003 A 
HETATM   26  C20 UNK     1      26.786  -6.787  30.991  1.00  0.00     0.002 A 
HETATM   27  C18 UNK     1      27.646  -6.600  32.073  1.00  0.00     0.032 A 
BRANCH  23  28
HETATM   28  O5  UNK     1      29.929  -9.431  31.603  1.00  0.00    -0.358 OA
HETATM   29  H17 UNK     1      29.771 -10.227  31.065  1.00  0.00     0.217 HD
ENDBRANCH  23  28
ENDBRANCH  20  22
ENDBRANCH   8  19
TORSDOF 3
ENDMDL
MODEL 8
REMARK VINA RESULT:      -8.4     24.019     25.868
REMARK  3 active torsions:
REMARK  status: ('A' for Active; 'I' for Inactive)
REMARK    1  A    between atoms: C17_23  and  O5_5 
REMARK    2  A    between atoms: C16_22  and  N1_6 
REMARK    3  A    between atoms: C11_17  and  C4_10 
ROOT
HETATM    1  O1  UNK     1       8.846   9.854  11.182  1.00  0.00    -0.332 OA
HETATM    2  O2  UNK     1      11.114   7.541   7.550  1.00  0.00    -0.274 OA
HETATM    3  O3  UNK     1      12.073  11.429  10.811  1.00  0.00    -0.289 OA
HETATM    4  O4  UNK     1      12.104   6.474   5.781  1.00  0.00    -0.260 OA
HETATM    5  C1  UNK     1       9.705  10.989  11.059  1.00  0.00     0.125 C 
HETATM    6  C2  UNK     1      10.078   8.674   9.439  1.00  0.00     0.048 A 
HETATM    7  C3  UNK     1      11.132  10.667  10.604  1.00  0.00     0.196 C 
HETATM    8  C4  UNK     1      11.298   9.382   9.861  1.00  0.00     0.044 C 
HETATM    9  C5  UNK     1       8.904   8.944  10.158  1.00  0.00     0.084 A 
HETATM   10  C6  UNK     1       9.767  11.604  12.463  1.00  0.00     0.055 C 
HETATM   11  C7  UNK     1       9.083  12.003  10.091  1.00  0.00     0.055 C 
HETATM   12  C8  UNK     1       9.983   7.764   8.372  1.00  0.00     0.103 A 
HETATM   13  C9  UNK     1       8.793   7.093   8.071  1.00  0.00    -0.001 A 
HETATM   14  C10 UNK     1       7.714   8.262   9.886  1.00  0.00     0.039 A 
HETATM   15  C12 UNK     1       7.658   7.337   8.845  1.00  0.00     0.017 A 
HETATM   16  C13 UNK     1       8.760   6.158   6.957  1.00  0.00     0.020 A 
HETATM   17  C14 UNK     1       9.847   5.954   6.210  1.00  0.00     0.083 A 
HETATM   18  C15 UNK     1      11.110   6.659   6.475  1.00  0.00     0.288 A 
ENDROOT
BRANCH   8  19
HETATM   19  C11 UNK     1      12.549   8.913   9.738  1.00  0.00     0.104 C 
HETATM   20  N1  UNK     1      13.029   7.721  10.156  1.00  0.00    -0.363 N 
HETATM   21  H11 UNK     1      12.378   7.100  10.621  1.00  0.00     0.165 HD
BRANCH  20  22
HETATM   22  C16 UNK     1      14.334   7.207  10.039  1.00  0.00     0.065 A 
HETATM   23  C17 UNK     1      14.549   5.841   9.832  1.00  0.00     0.092 A 
HETATM   24  C19 UNK     1      15.848   5.346   9.718  1.00  0.00     0.039 A 
HETATM   25  C21 UNK     1      16.936   6.214   9.809  1.00  0.00     0.003 A 
HETATM   26  C20 UNK     1      16.726   7.577  10.016  1.00  0.00     0.002 A 
HETATM   27  C18 UNK     1      15.427   8.073  10.129  1.00  0.00     0.032 A 
BRANCH  23  28
HETATM   28  O5  UNK     1      13.500   4.977   9.740  1.00  0.00    -0.358 OA
HETATM   29  H17 UNK     1      13.433   4.469  10.567  1.00  0.00     0.217 HD
ENDBRANCH  23  28
ENDBRANCH  20  22
ENDBRANCH   8  19
TORSDOF 3
ENDMDL
MODEL 9
REMARK VINA RESULT:      -8.3      2.089      7.644
REMARK  3 active torsions:
REMARK  status: ('A' for Active; 'I' for Inactive)
REMARK    1  A    between atoms: C17_23  and  O5_5 
REMARK    2  A    between atoms: C16_22  and  N1_6 
REMARK    3  A    between atoms: C11_17  and  C4_10 
ROOT
HETATM    1  O1  UNK     1      18.889  -3.429  36.823  1.00  0.00    -0.332 OA
HETATM    2  O2  UNK     1      18.704   0.973  34.755  1.00  0.00    -0.274 OA
HETATM    3  O3  UNK     1      20.815  -3.638  33.777  1.00  0.00    -0.289 OA
HETATM    4  O4  UNK     1      18.654   3.084  33.866  1.00  0.00    -0.260 OA
HETATM    5  C1  UNK     1      20.048  -3.787  36.069  1.00  0.00     0.125 C 
HETATM    6  C2  UNK     1      18.754  -1.277  35.682  1.00  0.00     0.048 A 
HETATM    7  C3  UNK     1      20.124  -3.159  34.673  1.00  0.00     0.196 C 
HETATM    8  C4  UNK     1      19.332  -1.907  34.484  1.00  0.00     0.044 C 
HETATM    9  C5  UNK     1      18.542  -2.102  36.797  1.00  0.00     0.084 A 
HETATM   10  C6  UNK     1      19.977  -5.312  35.915  1.00  0.00     0.055 C 
HETATM   11  C7  UNK     1      21.311  -3.418  36.858  1.00  0.00     0.055 C 
HETATM   12  C8  UNK     1      18.410   0.080  35.814  1.00  0.00     0.103 A 
HETATM   13  C9  UNK     1      17.815   0.587  36.973  1.00  0.00    -0.001 A 
HETATM   14  C10 UNK     1      17.925  -1.615  37.954  1.00  0.00     0.039 A 
HETATM   15  C12 UNK     1      17.560  -0.273  38.041  1.00  0.00     0.017 A 
HETATM   16  C13 UNK     1      17.476   2.000  37.045  1.00  0.00     0.020 A 
HETATM   17  C14 UNK     1      17.749   2.816  36.024  1.00  0.00     0.083 A 
HETATM   18  C15 UNK     1      18.399   2.329  34.798  1.00  0.00     0.288 A 
ENDROOT
BRANCH   8  19
HETATM   19  C11 UNK     1      19.110  -1.518  33.220  1.00  0.00     0.104 C 
HETATM   20  N1  UNK     1      19.996  -0.975  32.355  1.00  0.00    -0.363 N 
HETATM   21  H11 UNK     1      20.942  -0.838  32.690  1.00  0.00     0.165 HD
BRANCH  20  22
HETATM   22  C16 UNK     1      19.788  -0.558  31.026  1.00  0.00     0.065 A 
HETATM   23  C17 UNK     1      19.091   0.620  30.747  1.00  0.00     0.092 A 
HETATM   24  C19 UNK     1      18.894   1.021  29.426  1.00  0.00     0.039 A 
HETATM   25  C21 UNK     1      19.393   0.246  28.379  1.00  0.00     0.003 A 
HETATM   26  C20 UNK     1      20.089  -0.931  28.654  1.00  0.00     0.002 A 
HETATM   27  C18 UNK     1      20.287  -1.332  29.975  1.00  0.00     0.032 A 
BRANCH  23  28
HETATM   28  O5  UNK     1      18.595   1.392  31.755  1.00  0.00    -0.358 OA
HETATM   29  H17 UNK     1      18.712   2.329  31.525  1.00  0.00     0.217 HD
ENDBRANCH  23  28
ENDBRANCH  20  22
ENDBRANCH   8  19
TORSDOF 3
ENDMDL
MODEL 10
REMARK VINA RESULT:      -8.2     23.824     26.503
REMARK  3 active torsions:
REMARK  status: ('A' for Active; 'I' for Inactive)
REMARK    1  A    between atoms: C17_23  and  O5_5 
REMARK    2  A    between atoms: C16_22  and  N1_6 
REMARK    3  A    between atoms: C11_17  and  C4_10 
ROOT
HETATM    1  O1  UNK     1      14.343   7.447   8.301  1.00  0.00    -0.332 OA
HETATM    2  O2  UNK     1       9.518   7.660   8.905  1.00  0.00    -0.274 OA
HETATM    3  O3  UNK     1      13.774   8.797  11.601  1.00  0.00    -0.289 OA
HETATM    4  O4  UNK     1       7.242   7.663   9.170  1.00  0.00    -0.260 OA
HETATM    5  C1  UNK     1      14.569   7.510   9.711  1.00  0.00     0.125 C 
HETATM    6  C2  UNK     1      11.936   7.675   8.631  1.00  0.00     0.048 A 
HETATM    7  C3  UNK     1      13.535   8.328  10.490  1.00  0.00     0.196 C 
HETATM    8  C4  UNK     1      12.206   8.487   9.829  1.00  0.00     0.044 C 
HETATM    9  C5  UNK     1      13.049   7.213   7.912  1.00  0.00     0.084 A 
HETATM   10  C6  UNK     1      15.942   8.177   9.871  1.00  0.00     0.055 C 
HETATM   11  C7  UNK     1      14.629   6.089  10.287  1.00  0.00     0.055 C 
HETATM   12  C8  UNK     1      10.666   7.308   8.155  1.00  0.00     0.103 A 
HETATM   13  C9  UNK     1      10.497   6.576   6.975  1.00  0.00    -0.001 A 
HETATM   14  C10 UNK     1      12.895   6.501   6.717  1.00  0.00     0.039 A 
HETATM   15  C12 UNK     1      11.622   6.185   6.249  1.00  0.00     0.017 A 
HETATM   16  C13 UNK     1       9.155   6.234   6.531  1.00  0.00     0.020 A 
HETATM   17  C14 UNK     1       8.090   6.594   7.249  1.00  0.00     0.083 A 
HETATM   18  C15 UNK     1       8.224   7.341   8.509  1.00  0.00     0.288 A 
ENDROOT
BRANCH   8  19
HETATM   19  C11 UNK     1      11.403   9.448  10.311  1.00  0.00     0.104 C 
HETATM   20  N1  UNK     1      10.574  10.259   9.615  1.00  0.00    -0.363 N 
HETATM   21  H11 UNK     1      10.550  10.138   8.609  1.00  0.00     0.165 HD
BRANCH  20  22
HETATM   22  C16 UNK     1       9.724  11.272  10.096  1.00  0.00     0.065 A 
HETATM   23  C17 UNK     1       8.593  10.958  10.853  1.00  0.00     0.092 A 
HETATM   24  C19 UNK     1       7.760  11.973  11.324  1.00  0.00     0.039 A 
HETATM   25  C21 UNK     1       8.056  13.306  11.040  1.00  0.00     0.003 A 
HETATM   26  C20 UNK     1       9.185  13.624  10.285  1.00  0.00     0.002 A 
HETATM   27  C18 UNK     1      10.018  12.609   9.814  1.00  0.00     0.032 A 
BRANCH  23  28
HETATM   28  O5  UNK     1       8.286   9.661  11.141  1.00  0.00    -0.358 OA
HETATM   29  H17 UNK     1       7.776   9.284  10.404  1.00  0.00     0.217 HD
ENDBRANCH  23  28
ENDBRANCH  20  22
ENDBRANCH   8  19
TORSDOF 3
ENDMDL
