MODEL 1
REMARK VINA RESULT:      -6.7      0.000      0.000
REMARK  2 active torsions:
REMARK  status: ('A' for Active; 'I' for Inactive)
REMARK    1  A    between atoms: C7_13  and  O2_5 
REMARK    2  A    between atoms: C10_16  and  C5_11 
ROOT
HETATM    1  O1  UNK     1      18.097   5.429  33.685  1.00  0.00    -0.309 OA
HETATM    2  O3  UNK     1      18.859   6.236  29.764  1.00  0.00    -0.287 OA
HETATM    3  C1  UNK     1      18.510   4.603  31.438  1.00  0.00     0.051 A 
HETATM    4  C2  UNK     1      18.248   4.399  32.791  1.00  0.00     0.090 A 
HETATM    5  C3  UNK     1      18.630   5.982  30.939  1.00  0.00     0.187 A 
HETATM    6  C4  UNK     1      18.655   3.515  30.573  1.00  0.00     0.055 A 
HETATM    7  C5  UNK     1      18.209   6.729  33.217  1.00  0.00     0.111 A 
HETATM    8  C6  UNK     1      18.129   3.101  33.289  1.00  0.00     0.041 A 
HETATM    9  C7  UNK     1      18.536   2.219  31.075  1.00  0.00     0.069 A 
HETATM   10  C8  UNK     1      18.458   7.052  31.940  1.00  0.00     0.093 A 
HETATM   11  C9  UNK     1      18.274   2.012  32.429  1.00  0.00     0.039 A 
ENDROOT
BRANCH   7  12
HETATM   12  C10 UNK     1      18.024   7.764  34.282  1.00  0.00     0.237 C 
HETATM   13 Cl1  UNK     1      17.777   9.347  33.506  1.00  0.00    -0.076 Cl
HETATM   14 Cl2  UNK     1      16.604   7.357  35.276  1.00  0.00    -0.076 Cl
HETATM   15 Cl3  UNK     1      19.471   7.823  35.318  1.00  0.00    -0.076 Cl
ENDBRANCH   7  12
BRANCH   9  16
HETATM   16  O2  UNK     1      18.675   1.153  30.240  1.00  0.00    -0.356 OA
HETATM   17  C11 UNK     1      18.264   1.331  28.885  1.00  0.00     0.210 C 
ENDBRANCH   9  16
TORSDOF 2
ENDMDL
MODEL 2
REMARK VINA RESULT:      -6.7      4.567      5.739
REMARK  2 active torsions:
REMARK  status: ('A' for Active; 'I' for Inactive)
REMARK    1  A    between atoms: C7_13  and  O2_5 
REMARK    2  A    between atoms: C10_16  and  C5_11 
ROOT
HETATM    1  O1  UNK     1      18.329  -0.676  34.440  1.00  0.00    -0.309 OA
HETATM    2  O3  UNK     1      18.117   2.839  32.389  1.00  0.00    -0.287 OA
HETATM    3  C1  UNK     1      18.831   0.585  32.425  1.00  0.00     0.051 A 
HETATM    4  C2  UNK     1      18.867  -0.585  33.181  1.00  0.00     0.090 A 
HETATM    5  C3  UNK     1      18.186   1.779  32.995  1.00  0.00     0.187 A 
HETATM    6  C4  UNK     1      19.396   0.620  31.147  1.00  0.00     0.055 A 
HETATM    7  C5  UNK     1      17.721   0.446  34.979  1.00  0.00     0.111 A 
HETATM    8  C6  UNK     1      19.472  -1.731  32.663  1.00  0.00     0.041 A 
HETATM    9  C7  UNK     1      20.000  -0.527  30.632  1.00  0.00     0.069 A 
HETATM   10  C8  UNK     1      17.623   1.627  34.350  1.00  0.00     0.093 A 
HETATM   11  C9  UNK     1      20.038  -1.700  31.388  1.00  0.00     0.039 A 
ENDROOT
BRANCH   7  12
HETATM   12  C10 UNK     1      17.171   0.226  36.353  1.00  0.00     0.237 C 
HETATM   13 Cl1  UNK     1      15.404   0.426  36.303  1.00  0.00    -0.076 Cl
HETATM   14 Cl2  UNK     1      17.572  -1.420  36.903  1.00  0.00    -0.076 Cl
HETATM   15 Cl3  UNK     1      17.878   1.410  37.479  1.00  0.00    -0.076 Cl
ENDBRANCH   7  12
BRANCH   9  16
HETATM   16  O2  UNK     1      20.553  -0.503  29.389  1.00  0.00    -0.356 OA
HETATM   17  C11 UNK     1      19.661  -0.609  28.280  1.00  0.00     0.210 C 
ENDBRANCH   9  16
TORSDOF 2
ENDMDL
MODEL 3
REMARK VINA RESULT:      -6.6      2.796      4.042
REMARK  2 active torsions:
REMARK  status: ('A' for Active; 'I' for Inactive)
REMARK    1  A    between atoms: C7_13  and  O2_5 
REMARK    2  A    between atoms: C10_16  and  C5_11 
ROOT
HETATM    1  O1  UNK     1      18.271   4.052  33.795  1.00  0.00    -0.309 OA
HETATM    2  O3  UNK     1      18.371   1.229  30.858  1.00  0.00    -0.287 OA
HETATM    3  C1  UNK     1      18.343   1.704  33.173  1.00  0.00     0.051 A 
HETATM    4  C2  UNK     1      18.307   2.721  34.126  1.00  0.00     0.090 A 
HETATM    5  C3  UNK     1      18.341   2.068  31.748  1.00  0.00     0.187 A 
HETATM    6  C4  UNK     1      18.379   0.365  33.569  1.00  0.00     0.055 A 
HETATM    7  C5  UNK     1      18.269   4.397  32.453  1.00  0.00     0.111 A 
HETATM    8  C6  UNK     1      18.307   2.403  35.484  1.00  0.00     0.041 A 
HETATM    9  C7  UNK     1      18.380   0.050  34.928  1.00  0.00     0.069 A 
HETATM   10  C8  UNK     1      18.300   3.511  31.446  1.00  0.00     0.093 A 
HETATM   11  C9  UNK     1      18.344   1.066  35.884  1.00  0.00     0.039 A 
ENDROOT
BRANCH   7  12
HETATM   12  C10 UNK     1      18.226   5.874  32.216  1.00  0.00     0.237 C 
HETATM   13 Cl1  UNK     1      18.678   6.197  30.525  1.00  0.00    -0.076 Cl
HETATM   14 Cl2  UNK     1      16.582   6.485  32.524  1.00  0.00    -0.076 Cl
HETATM   15 Cl3  UNK     1      19.371   6.689  33.309  1.00  0.00    -0.076 Cl
ENDBRANCH   7  12
BRANCH   9  16
HETATM   16  O2  UNK     1      18.415  -1.252  35.323  1.00  0.00    -0.356 OA
HETATM   17  C11 UNK     1      18.020  -1.534  36.666  1.00  0.00     0.210 C 
ENDBRANCH   9  16
TORSDOF 2
ENDMDL
MODEL 4
REMARK VINA RESULT:      -6.5     16.419     17.611
REMARK  2 active torsions:
REMARK  status: ('A' for Active; 'I' for Inactive)
REMARK    1  A    between atoms: C7_13  and  O2_5 
REMARK    2  A    between atoms: C10_16  and  C5_11 
ROOT
HETATM    1  O1  UNK     1      30.982  -6.316  36.902  1.00  0.00    -0.309 OA
HETATM    2  O3  UNK     1      28.748  -4.020  39.421  1.00  0.00    -0.287 OA
HETATM    3  C1  UNK     1      29.199  -6.170  38.546  1.00  0.00     0.051 A 
HETATM    4  C2  UNK     1      29.999  -6.895  37.665  1.00  0.00     0.090 A 
HETATM    5  C3  UNK     1      29.413  -4.719  38.668  1.00  0.00     0.187 A 
HETATM    6  C4  UNK     1      28.212  -6.813  39.298  1.00  0.00     0.055 A 
HETATM    7  C5  UNK     1      31.185  -4.950  37.016  1.00  0.00     0.111 A 
HETATM    8  C6  UNK     1      29.816  -8.272  37.530  1.00  0.00     0.041 A 
HETATM    9  C7  UNK     1      28.032  -8.189  39.161  1.00  0.00     0.069 A 
HETATM   10  C8  UNK     1      30.481  -4.147  37.828  1.00  0.00     0.093 A 
HETATM   11  C9  UNK     1      28.832  -8.918  38.279  1.00  0.00     0.039 A 
ENDROOT
BRANCH   7  12
HETATM   12  C10 UNK     1      32.282  -4.435  36.138  1.00  0.00     0.237 C 
HETATM   13 Cl1  UNK     1      32.412  -2.673  36.357  1.00  0.00    -0.076 Cl
HETATM   14 Cl2  UNK     1      33.822  -5.209  36.583  1.00  0.00    -0.076 Cl
HETATM   15 Cl3  UNK     1      31.909  -4.802  34.436  1.00  0.00    -0.076 Cl
ENDBRANCH   7  12
BRANCH   9  16
HETATM   16  O2  UNK     1      27.074  -8.824  39.889  1.00  0.00    -0.356 OA
HETATM   17  C11 UNK     1      27.106 -10.251  39.902  1.00  0.00     0.210 C 
ENDBRANCH   9  16
TORSDOF 2
ENDMDL
MODEL 5
REMARK VINA RESULT:      -6.5      4.068      6.787
REMARK  2 active torsions:
REMARK  status: ('A' for Active; 'I' for Inactive)
REMARK    1  A    between atoms: C7_13  and  O2_5 
REMARK    2  A    between atoms: C10_16  and  C5_11 
ROOT
HETATM    1  O1  UNK     1      17.564   8.026  33.010  1.00  0.00    -0.309 OA
HETATM    2  O3  UNK     1      13.869   6.808  31.797  1.00  0.00    -0.287 OA
HETATM    3  C1  UNK     1      15.173   8.442  32.902  1.00  0.00     0.051 A 
HETATM    4  C2  UNK     1      16.464   8.798  33.286  1.00  0.00     0.090 A 
HETATM    5  C3  UNK     1      14.973   7.184  32.166  1.00  0.00     0.187 A 
HETATM    6  C4  UNK     1      14.089   9.268  33.211  1.00  0.00     0.055 A 
HETATM    7  C5  UNK     1      17.379   6.840  32.317  1.00  0.00     0.111 A 
HETATM    8  C6  UNK     1      16.680   9.986  33.985  1.00  0.00     0.041 A 
HETATM    9  C7  UNK     1      14.308  10.456  33.910  1.00  0.00     0.069 A 
HETATM   10  C8  UNK     1      16.188   6.392  31.893  1.00  0.00     0.093 A 
HETATM   11  C9  UNK     1      15.601  10.814  34.296  1.00  0.00     0.039 A 
ENDROOT
BRANCH   7  12
HETATM   12  C10 UNK     1      18.648   6.086  32.074  1.00  0.00     0.237 C 
HETATM   13 Cl1  UNK     1      18.426   4.403  32.606  1.00  0.00    -0.076 Cl
HETATM   14 Cl2  UNK     1      19.043   6.118  30.337  1.00  0.00    -0.076 Cl
HETATM   15 Cl3  UNK     1      19.976   6.837  32.992  1.00  0.00    -0.076 Cl
ENDBRANCH   7  12
BRANCH   9  16
HETATM   16  O2  UNK     1      13.259  11.267  34.215  1.00  0.00    -0.356 OA
HETATM   17  C11 UNK     1      12.445  11.711  33.131  1.00  0.00     0.210 C 
ENDBRANCH   9  16
TORSDOF 2
ENDMDL
MODEL 6
REMARK VINA RESULT:      -6.5     16.994     18.611
REMARK  2 active torsions:
REMARK  status: ('A' for Active; 'I' for Inactive)
REMARK    1  A    between atoms: C7_13  and  O2_5 
REMARK    2  A    between atoms: C10_16  and  C5_11 
ROOT
HETATM    1  O1  UNK     1      29.133  -8.678  38.187  1.00  0.00    -0.309 OA
HETATM    2  O3  UNK     1      28.962  -4.779  39.362  1.00  0.00    -0.287 OA
HETATM    3  C1  UNK     1      30.273  -6.559  38.522  1.00  0.00     0.051 A 
HETATM    4  C2  UNK     1      30.260  -7.898  38.136  1.00  0.00     0.090 A 
HETATM    5  C3  UNK     1      29.024  -5.948  39.007  1.00  0.00     0.187 A 
HETATM    6  C4  UNK     1      31.451  -5.812  38.449  1.00  0.00     0.055 A 
HETATM    7  C5  UNK     1      27.956  -8.105  38.643  1.00  0.00     0.111 A 
HETATM    8  C6  UNK     1      31.430  -8.500  37.673  1.00  0.00     0.041 A 
HETATM    9  C7  UNK     1      32.620  -6.418  37.985  1.00  0.00     0.069 A 
HETATM   10  C8  UNK     1      27.842  -6.829  39.041  1.00  0.00     0.093 A 
HETATM   11  C9  UNK     1      32.610  -7.758  37.598  1.00  0.00     0.039 A 
ENDROOT
BRANCH   7  12
HETATM   12  C10 UNK     1      26.796  -9.051  38.653  1.00  0.00     0.237 C 
HETATM   13 Cl1  UNK     1      27.006 -10.202  39.994  1.00  0.00    -0.076 Cl
HETATM   14 Cl2  UNK     1      25.281  -8.142  38.876  1.00  0.00    -0.076 Cl
HETATM   15 Cl3  UNK     1      26.730  -9.934  37.108  1.00  0.00    -0.076 Cl
ENDBRANCH   7  12
BRANCH   9  16
HETATM   16  O2  UNK     1      33.773  -5.698  37.910  1.00  0.00    -0.356 OA
HETATM   17  C11 UNK     1      34.716  -6.086  36.911  1.00  0.00     0.210 C 
ENDBRANCH   9  16
TORSDOF 2
ENDMDL
MODEL 7
REMARK VINA RESULT:      -6.4      3.411      4.652
REMARK  2 active torsions:
REMARK  status: ('A' for Active; 'I' for Inactive)
REMARK    1  A    between atoms: C7_13  and  O2_5 
REMARK    2  A    between atoms: C10_16  and  C5_11 
ROOT
HETATM    1  O1  UNK     1      17.217   9.799  34.216  1.00  0.00    -0.309 OA
HETATM    2  O3  UNK     1      15.386   7.746  31.210  1.00  0.00    -0.287 OA
HETATM    3  C1  UNK     1      17.303   8.017  32.567  1.00  0.00     0.051 A 
HETATM    4  C2  UNK     1      17.869   8.760  33.601  1.00  0.00     0.090 A 
HETATM    5  C3  UNK     1      15.945   8.355  32.111  1.00  0.00     0.187 A 
HETATM    6  C4  UNK     1      18.014   6.968  31.978  1.00  0.00     0.055 A 
HETATM    7  C5  UNK     1      15.939  10.120  33.788  1.00  0.00     0.111 A 
HETATM    8  C6  UNK     1      19.154   8.458  34.053  1.00  0.00     0.041 A 
HETATM    9  C7  UNK     1      19.299   6.670  32.431  1.00  0.00     0.069 A 
HETATM   10  C8  UNK     1      15.289   9.479  32.805  1.00  0.00     0.093 A 
HETATM   11  C9  UNK     1      19.868   7.413  33.466  1.00  0.00     0.039 A 
ENDROOT
BRANCH   7  12
HETATM   12  C10 UNK     1      15.330  11.267  34.532  1.00  0.00     0.237 C 
HETATM   13 Cl1  UNK     1      16.636  12.303  35.156  1.00  0.00    -0.076 Cl
HETATM   14 Cl2  UNK     1      14.289  12.209  33.437  1.00  0.00    -0.076 Cl
HETATM   15 Cl3  UNK     1      14.353  10.651  35.888  1.00  0.00    -0.076 Cl
ENDBRANCH   7  12
BRANCH   9  16
HETATM   16  O2  UNK     1      19.999   5.650  31.863  1.00  0.00    -0.356 OA
HETATM   17  C11 UNK     1      20.251   5.737  30.461  1.00  0.00     0.210 C 
ENDBRANCH   9  16
TORSDOF 2
ENDMDL
MODEL 8
REMARK VINA RESULT:      -6.3      1.180      2.575
REMARK  2 active torsions:
REMARK  status: ('A' for Active; 'I' for Inactive)
REMARK    1  A    between atoms: C7_13  and  O2_5 
REMARK    2  A    between atoms: C10_16  and  C5_11 
ROOT
HETATM    1  O1  UNK     1      18.435   6.654  32.133  1.00  0.00    -0.309 OA
HETATM    2  O3  UNK     1      18.082   3.129  34.148  1.00  0.00    -0.287 OA
HETATM    3  C1  UNK     1      18.449   4.224  32.085  1.00  0.00     0.051 A 
HETATM    4  C2  UNK     1      18.559   5.464  31.459  1.00  0.00     0.090 A 
HETATM    5  C3  UNK     1      18.190   4.181  33.533  1.00  0.00     0.187 A 
HETATM    6  C4  UNK     1      18.584   3.045  31.348  1.00  0.00     0.055 A 
HETATM    7  C5  UNK     1      18.191   6.615  33.496  1.00  0.00     0.111 A 
HETATM    8  C6  UNK     1      18.805   5.533  30.087  1.00  0.00     0.041 A 
HETATM    9  C7  UNK     1      18.830   3.117  29.976  1.00  0.00     0.069 A 
HETATM   10  C8  UNK     1      18.066   5.486  34.209  1.00  0.00     0.093 A 
HETATM   11  C9  UNK     1      18.940   4.358  29.347  1.00  0.00     0.039 A 
ENDROOT
BRANCH   7  12
HETATM   12  C10 UNK     1      18.076   7.970  34.121  1.00  0.00     0.237 C 
HETATM   13 Cl1  UNK     1      19.703   8.531  34.576  1.00  0.00    -0.076 Cl
HETATM   14 Cl2  UNK     1      17.354   9.109  32.957  1.00  0.00    -0.076 Cl
HETATM   15 Cl3  UNK     1      17.045   7.877  35.570  1.00  0.00    -0.076 Cl
ENDBRANCH   7  12
BRANCH   9  16
HETATM   16  O2  UNK     1      18.964   1.974  29.250  1.00  0.00    -0.356 OA
HETATM   17  C11 UNK     1      17.820   1.531  28.520  1.00  0.00     0.210 C 
ENDBRANCH   9  16
TORSDOF 2
ENDMDL
MODEL 9
REMARK VINA RESULT:      -6.3      1.736      2.885
REMARK  2 active torsions:
REMARK  status: ('A' for Active; 'I' for Inactive)
REMARK    1  A    between atoms: C7_13  and  O2_5 
REMARK    2  A    between atoms: C10_16  and  C5_11 
ROOT
HETATM    1  O1  UNK     1      18.163   4.879  31.341  1.00  0.00    -0.309 OA
HETATM    2  O3  UNK     1      18.392   2.203  34.407  1.00  0.00    -0.287 OA
HETATM    3  C1  UNK     1      18.552   2.597  32.081  1.00  0.00     0.051 A 
HETATM    4  C2  UNK     1      18.458   3.564  31.082  1.00  0.00     0.090 A 
HETATM    5  C3  UNK     1      18.326   2.998  33.479  1.00  0.00     0.187 A 
HETATM    6  C4  UNK     1      18.855   1.272  31.758  1.00  0.00     0.055 A 
HETATM    7  C5  UNK     1      17.951   5.258  32.657  1.00  0.00     0.111 A 
HETATM    8  C6  UNK     1      18.668   3.210  29.749  1.00  0.00     0.041 A 
HETATM    9  C7  UNK     1      19.064   0.922  30.423  1.00  0.00     0.069 A 
HETATM   10  C8  UNK     1      18.014   4.422  33.704  1.00  0.00     0.093 A 
HETATM   11  C9  UNK     1      18.970   1.888  29.421  1.00  0.00     0.039 A 
ENDROOT
BRANCH   7  12
HETATM   12  C10 UNK     1      17.639   6.713  32.816  1.00  0.00     0.237 C 
HETATM   13 Cl1  UNK     1      17.095   7.358  31.249  1.00  0.00    -0.076 Cl
HETATM   14 Cl2  UNK     1      16.353   6.924  34.030  1.00  0.00    -0.076 Cl
HETATM   15 Cl3  UNK     1      19.099   7.584  33.348  1.00  0.00    -0.076 Cl
ENDBRANCH   7  12
BRANCH   9  16
HETATM   16  O2  UNK     1      19.360  -0.366  30.099  1.00  0.00    -0.356 OA
HETATM   17  C11 UNK     1      20.446  -0.575  29.198  1.00  0.00     0.210 C 
ENDBRANCH   9  16
TORSDOF 2
ENDMDL
MODEL 10
REMARK VINA RESULT:      -6.3     16.557     17.363
REMARK  2 active torsions:
REMARK  status: ('A' for Active; 'I' for Inactive)
REMARK    1  A    between atoms: C7_13  and  O2_5 
REMARK    2  A    between atoms: C10_16  and  C5_11 
ROOT
HETATM    1  O1  UNK     1      28.958  -7.073  37.146  1.00  0.00    -0.309 OA
HETATM    2  O3  UNK     1      29.529  -4.025  39.790  1.00  0.00    -0.287 OA
HETATM    3  C1  UNK     1      30.165  -5.056  37.760  1.00  0.00     0.051 A 
HETATM    4  C2  UNK     1      29.917  -6.123  36.899  1.00  0.00     0.090 A 
HETATM    5  C3  UNK     1      29.366  -4.936  38.989  1.00  0.00     0.187 A 
HETATM    6  C4  UNK     1      31.156  -4.119  37.457  1.00  0.00     0.055 A 
HETATM    7  C5  UNK     1      28.203  -6.961  38.303  1.00  0.00     0.111 A 
HETATM    8  C6  UNK     1      30.661  -6.260  35.727  1.00  0.00     0.041 A 
HETATM    9  C7  UNK     1      31.899  -4.259  36.284  1.00  0.00     0.069 A 
HETATM   10  C8  UNK     1      28.348  -5.980  39.207  1.00  0.00     0.093 A 
HETATM   11  C9  UNK     1      31.652  -5.327  35.421  1.00  0.00     0.039 A 
ENDROOT
BRANCH   7  12
HETATM   12  C10 UNK     1      27.190  -8.051  38.463  1.00  0.00     0.237 C 
HETATM   13 Cl1  UNK     1      27.647  -9.059  39.857  1.00  0.00    -0.076 Cl
HETATM   14 Cl2  UNK     1      25.581  -7.340  38.741  1.00  0.00    -0.076 Cl
HETATM   15 Cl3  UNK     1      27.146  -9.049  36.989  1.00  0.00    -0.076 Cl
ENDBRANCH   7  12
BRANCH   9  16
HETATM   16  O2  UNK     1      32.865  -3.350  35.981  1.00  0.00    -0.356 OA
HETATM   17  C11 UNK     1      33.979  -3.818  35.221  1.00  0.00     0.210 C 
ENDBRANCH   9  16
TORSDOF 2
ENDMDL
