MODEL 1
REMARK VINA RESULT:      -8.2      0.000      0.000
REMARK  3 active torsions:
REMARK  status: ('A' for Active; 'I' for Inactive)
REMARK    1  A    between atoms: C12_20  and  O3_3 
REMARK       I    between atoms: C5_13  and  N1_7 
REMARK    2  A    between atoms: C13_21  and  N2_8 
REMARK    3  A    between atoms: C5_13  and  C6_14 
ROOT
HETATM    1  O1  UNK     1      18.789   4.321  30.430  1.00  0.00    -0.271 OA
HETATM    2  O4  UNK     1      18.737   6.572  30.046  1.00  0.00    -0.259 OA
HETATM    3  C6  UNK     1      18.276   5.862  32.258  1.00  0.00     0.108 A 
HETATM    4  C7  UNK     1      18.144   4.843  33.115  1.00  0.00     0.037 A 
HETATM    5  C8  UNK     1      18.332   3.473  32.663  1.00  0.00     0.004 A 
HETATM    6  C9  UNK     1      18.651   3.245  31.328  1.00  0.00     0.123 A 
HETATM    7  C10 UNK     1      18.615   5.642  30.835  1.00  0.00     0.304 A 
HETATM    8  C11 UNK     1      18.203   2.380  33.522  1.00  0.00     0.050 A 
HETATM    9  C12 UNK     1      18.845   1.957  30.831  1.00  0.00     0.105 A 
HETATM   10  C13 UNK     1      18.395   1.083  33.038  1.00  0.00     0.106 A 
HETATM   11  C14 UNK     1      18.714   0.873  31.694  1.00  0.00     0.075 A 
ENDROOT
BRANCH   3  12
HETATM   12  C5  UNK     1      18.065   7.213  32.814  1.00  0.00     0.259 C 
HETATM   13  O2  UNK     1      19.034   7.830  33.257  1.00  0.00    -0.267 OA
HETATM   14  N1  UNK     1      16.771   7.697  32.791  1.00  0.00    -0.348 N 
HETATM   15  C3  UNK     1      16.442   9.018  33.306  1.00  0.00     0.126 C 
HETATM   16  C4  UNK     1      15.576   7.027  32.281  1.00  0.00     0.126 C 
HETATM   17  C1  UNK     1      15.041   9.295  32.783  1.00  0.00     0.021 C 
HETATM   18  C2  UNK     1      14.420   7.906  32.738  1.00  0.00     0.021 C 
ENDBRANCH   3  12
BRANCH   9  19
HETATM   19  O3  UNK     1      19.155   1.748  29.523  1.00  0.00    -0.353 OA
HETATM   20  C15 UNK     1      18.073   1.462  28.636  1.00  0.00     0.210 C 
ENDBRANCH   9  19
BRANCH  10  21
HETATM   21  N2  UNK     1      18.264  -0.025  33.915  1.00  0.00    -0.116 N 
HETATM   22  O5  UNK     1      17.368  -0.875  33.693  1.00  0.00    -0.532 OA
HETATM   23  O6  UNK     1      19.048  -0.125  34.890  1.00  0.00    -0.532 OA
ENDBRANCH  10  21
TORSDOF 3
ENDMDL
MODEL 2
REMARK VINA RESULT:      -8.0      1.700      2.359
REMARK  3 active torsions:
REMARK  status: ('A' for Active; 'I' for Inactive)
REMARK    1  A    between atoms: C12_20  and  O3_3 
REMARK       I    between atoms: C5_13  and  N1_7 
REMARK    2  A    between atoms: C13_21  and  N2_8 
REMARK    3  A    between atoms: C5_13  and  C6_14 
ROOT
HETATM    1  O1  UNK     1      18.998   3.443  30.155  1.00  0.00    -0.271 OA
HETATM    2  O4  UNK     1      18.724   5.655  29.653  1.00  0.00    -0.259 OA
HETATM    3  C6  UNK     1      18.066   4.969  31.823  1.00  0.00     0.108 A 
HETATM    4  C7  UNK     1      17.947   3.972  32.707  1.00  0.00     0.037 A 
HETATM    5  C8  UNK     1      18.358   2.622  32.352  1.00  0.00     0.004 A 
HETATM    6  C9  UNK     1      18.874   2.390  31.082  1.00  0.00     0.123 A 
HETATM    7  C10 UNK     1      18.613   4.745  30.466  1.00  0.00     0.304 A 
HETATM    8  C11 UNK     1      18.251   1.552  33.243  1.00  0.00     0.050 A 
HETATM    9  C12 UNK     1      19.287   1.121  30.679  1.00  0.00     0.105 A 
HETATM   10  C13 UNK     1      18.660   0.274  32.853  1.00  0.00     0.106 A 
HETATM   11  C14 UNK     1      19.177   0.060  31.573  1.00  0.00     0.075 A 
ENDROOT
BRANCH   3  12
HETATM   12  C5  UNK     1      17.622   6.301  32.278  1.00  0.00     0.259 C 
HETATM   13  O2  UNK     1      16.462   6.648  32.052  1.00  0.00    -0.267 OA
HETATM   14  N1  UNK     1      18.557   7.074  32.939  1.00  0.00    -0.348 N 
HETATM   15  C3  UNK     1      18.233   8.402  33.438  1.00  0.00     0.126 C 
HETATM   16  C4  UNK     1      19.945   6.730  33.244  1.00  0.00     0.126 C 
HETATM   17  C1  UNK     1      19.377   8.747  34.379  1.00  0.00     0.021 C 
HETATM   18  C2  UNK     1      20.560   8.029  33.746  1.00  0.00     0.021 C 
ENDBRANCH   3  12
BRANCH   9  19
HETATM   19  O3  UNK     1      19.790   0.908  29.433  1.00  0.00    -0.353 OA
HETATM   20  C15 UNK     1      20.476  -0.325  29.212  1.00  0.00     0.210 C 
ENDBRANCH   9  19
BRANCH  10  21
HETATM   21  N2  UNK     1      18.551  -0.811  33.762  1.00  0.00    -0.116 N 
HETATM   22  O5  UNK     1      19.521  -1.596  33.893  1.00  0.00    -0.532 OA
HETATM   23  O6  UNK     1      17.486  -0.955  34.411  1.00  0.00    -0.532 OA
ENDBRANCH  10  21
TORSDOF 3
ENDMDL
MODEL 3
REMARK VINA RESULT:      -8.0      2.021      2.910
REMARK  3 active torsions:
REMARK  status: ('A' for Active; 'I' for Inactive)
REMARK    1  A    between atoms: C12_20  and  O3_3 
REMARK       I    between atoms: C5_13  and  N1_7 
REMARK    2  A    between atoms: C13_21  and  N2_8 
REMARK    3  A    between atoms: C5_13  and  C6_14 
ROOT
HETATM    1  O1  UNK     1      18.244   2.023  32.219  1.00  0.00    -0.271 OA
HETATM    2  O4  UNK     1      18.456   3.690  30.672  1.00  0.00    -0.259 OA
HETATM    3  C6  UNK     1      18.499   4.343  32.949  1.00  0.00     0.108 A 
HETATM    4  C7  UNK     1      18.439   3.973  34.233  1.00  0.00     0.037 A 
HETATM    5  C8  UNK     1      18.274   2.572  34.588  1.00  0.00     0.004 A 
HETATM    6  C9  UNK     1      18.180   1.629  33.570  1.00  0.00     0.123 A 
HETATM    7  C10 UNK     1      18.402   3.356  31.850  1.00  0.00     0.304 A 
HETATM    8  C11 UNK     1      18.206   2.142  35.915  1.00  0.00     0.050 A 
HETATM    9  C12 UNK     1      18.021   0.271  33.841  1.00  0.00     0.105 A 
HETATM   10  C13 UNK     1      18.047   0.783  36.202  1.00  0.00     0.106 A 
HETATM   11  C14 UNK     1      17.954  -0.150  35.167  1.00  0.00     0.075 A 
ENDROOT
BRANCH   3  12
HETATM   12  C5  UNK     1      18.667   5.787  32.692  1.00  0.00     0.259 C 
HETATM   13  O2  UNK     1      19.804   6.258  32.681  1.00  0.00    -0.267 OA
HETATM   14  N1  UNK     1      17.514   6.516  32.477  1.00  0.00    -0.348 N 
HETATM   15  C3  UNK     1      17.555   7.946  32.208  1.00  0.00     0.126 C 
HETATM   16  C4  UNK     1      16.136   6.027  32.473  1.00  0.00     0.126 C 
HETATM   17  C1  UNK     1      16.164   8.278  31.691  1.00  0.00     0.021 C 
HETATM   18  C2  UNK     1      15.283   7.288  32.438  1.00  0.00     0.021 C 
ENDBRANCH   3  12
BRANCH   9  19
HETATM   19  O3  UNK     1      17.930  -0.641  32.836  1.00  0.00    -0.353 OA
HETATM   20  C15 UNK     1      19.101  -1.403  32.542  1.00  0.00     0.210 C 
ENDBRANCH   9  19
BRANCH  10  21
HETATM   21  N2  UNK     1      17.979   0.350  37.553  1.00  0.00    -0.116 N 
HETATM   22  O5  UNK     1      17.944   1.209  38.466  1.00  0.00    -0.532 OA
HETATM   23  O6  UNK     1      17.955  -0.881  37.796  1.00  0.00    -0.532 OA
ENDBRANCH  10  21
TORSDOF 3
ENDMDL
MODEL 4
REMARK VINA RESULT:      -7.7      2.439      4.182
REMARK  3 active torsions:
REMARK  status: ('A' for Active; 'I' for Inactive)
REMARK    1  A    between atoms: C12_20  and  O3_3 
REMARK       I    between atoms: C5_13  and  N1_7 
REMARK    2  A    between atoms: C13_21  and  N2_8 
REMARK    3  A    between atoms: C5_13  and  C6_14 
ROOT
HETATM    1  O1  UNK     1      18.488   1.803  33.501  1.00  0.00    -0.271 OA
HETATM    2  O4  UNK     1      17.793   3.551  34.799  1.00  0.00    -0.259 OA
HETATM    3  C6  UNK     1      18.025   3.976  32.480  1.00  0.00     0.108 A 
HETATM    4  C7  UNK     1      18.344   3.505  31.269  1.00  0.00     0.037 A 
HETATM    5  C8  UNK     1      18.763   2.121  31.107  1.00  0.00     0.004 A 
HETATM    6  C9  UNK     1      18.825   1.302  32.229  1.00  0.00     0.123 A 
HETATM    7  C10 UNK     1      18.084   3.123  33.688  1.00  0.00     0.304 A 
HETATM    8  C11 UNK     1      19.105   1.587  29.862  1.00  0.00     0.050 A 
HETATM    9  C12 UNK     1      19.218  -0.032  32.143  1.00  0.00     0.105 A 
HETATM   10  C13 UNK     1      19.501   0.250  29.760  1.00  0.00     0.106 A 
HETATM   11  C14 UNK     1      19.557  -0.557  30.898  1.00  0.00     0.075 A 
ENDROOT
BRANCH   3  12
HETATM   12  C5  UNK     1      17.613   5.393  32.541  1.00  0.00     0.259 C 
HETATM   13  O2  UNK     1      16.465   5.690  32.213  1.00  0.00    -0.267 OA
HETATM   14  N1  UNK     1      18.565   6.296  32.972  1.00  0.00    -0.348 N 
HETATM   15  C3  UNK     1      18.274   7.719  33.079  1.00  0.00     0.126 C 
HETATM   16  C4  UNK     1      19.942   6.018  33.378  1.00  0.00     0.126 C 
HETATM   17  C1  UNK     1      19.421   8.284  33.900  1.00  0.00     0.021 C 
HETATM   18  C2  UNK     1      20.589   7.391  33.506  1.00  0.00     0.021 C 
ENDBRANCH   3  12
BRANCH   9  19
HETATM   19  O3  UNK     1      19.275  -0.822  33.249  1.00  0.00    -0.353 OA
HETATM   20  C15 UNK     1      20.023  -2.033  33.144  1.00  0.00     0.210 C 
ENDBRANCH   9  19
BRANCH  10  21
HETATM   21  N2  UNK     1      19.847  -0.289  28.492  1.00  0.00    -0.116 N 
HETATM   22  O5  UNK     1      18.989  -0.289  27.577  1.00  0.00    -0.532 OA
HETATM   23  O6  UNK     1      21.001  -0.750  28.323  1.00  0.00    -0.532 OA
ENDBRANCH  10  21
TORSDOF 3
ENDMDL
MODEL 5
REMARK VINA RESULT:      -7.6      5.206      9.932
REMARK  3 active torsions:
REMARK  status: ('A' for Active; 'I' for Inactive)
REMARK    1  A    between atoms: C12_20  and  O3_3 
REMARK       I    between atoms: C5_13  and  N1_7 
REMARK    2  A    between atoms: C13_21  and  N2_8 
REMARK    3  A    between atoms: C5_13  and  C6_14 
ROOT
HETATM    1  O1  UNK     1      18.541  -1.272  35.571  1.00  0.00    -0.271 OA
HETATM    2  O4  UNK     1      18.544  -2.186  37.665  1.00  0.00    -0.259 OA
HETATM    3  C6  UNK     1      19.956  -3.206  36.059  1.00  0.00     0.108 A 
HETATM    4  C7  UNK     1      20.416  -3.220  34.803  1.00  0.00     0.037 A 
HETATM    5  C8  UNK     1      19.950  -2.235  33.839  1.00  0.00     0.004 A 
HETATM    6  C9  UNK     1      19.022  -1.283  34.247  1.00  0.00     0.123 A 
HETATM    7  C10 UNK     1      18.968  -2.202  36.515  1.00  0.00     0.304 A 
HETATM    8  C11 UNK     1      20.403  -2.213  32.518  1.00  0.00     0.050 A 
HETATM    9  C12 UNK     1      18.536  -0.311  33.374  1.00  0.00     0.105 A 
HETATM   10  C13 UNK     1      19.925  -1.245  31.631  1.00  0.00     0.106 A 
HETATM   11  C14 UNK     1      18.993  -0.297  32.059  1.00  0.00     0.075 A 
ENDROOT
BRANCH   3  12
HETATM   12  C5  UNK     1      20.488  -4.247  36.961  1.00  0.00     0.259 C 
HETATM   13  O2  UNK     1      21.551  -4.037  37.546  1.00  0.00    -0.267 OA
HETATM   14  N1  UNK     1      19.738  -5.400  37.087  1.00  0.00    -0.348 N 
HETATM   15  C3  UNK     1      20.159  -6.493  37.951  1.00  0.00     0.126 C 
HETATM   16  C4  UNK     1      18.472  -5.718  36.428  1.00  0.00     0.126 C 
HETATM   17  C1  UNK     1      18.928  -7.376  38.079  1.00  0.00     0.021 C 
HETATM   18  C2  UNK     1      18.242  -7.192  36.733  1.00  0.00     0.021 C 
ENDBRANCH   3  12
BRANCH   9  19
HETATM   19  O3  UNK     1      17.628   0.613  33.786  1.00  0.00    -0.353 OA
HETATM   20  C15 UNK     1      18.124   1.915  34.102  1.00  0.00     0.210 C 
ENDBRANCH   9  19
BRANCH  10  21
HETATM   21  N2  UNK     1      20.388  -1.226  30.289  1.00  0.00    -0.116 N 
HETATM   22  O5  UNK     1      20.583  -0.121  29.728  1.00  0.00    -0.532 OA
HETATM   23  O6  UNK     1      20.591  -2.316  29.701  1.00  0.00    -0.532 OA
ENDBRANCH  10  21
TORSDOF 3
ENDMDL
MODEL 6
REMARK VINA RESULT:      -7.5      2.273      3.299
REMARK  3 active torsions:
REMARK  status: ('A' for Active; 'I' for Inactive)
REMARK    1  A    between atoms: C12_20  and  O3_3 
REMARK       I    between atoms: C5_13  and  N1_7 
REMARK    2  A    between atoms: C13_21  and  N2_8 
REMARK    3  A    between atoms: C5_13  and  C6_14 
ROOT
HETATM    1  O1  UNK     1      18.825   1.640  31.131  1.00  0.00    -0.271 OA
HETATM    2  O4  UNK     1      18.641   3.638  30.037  1.00  0.00    -0.259 OA
HETATM    3  C6  UNK     1      18.100   3.636  32.344  1.00  0.00     0.108 A 
HETATM    4  C7  UNK     1      17.988   2.938  33.479  1.00  0.00     0.037 A 
HETATM    5  C8  UNK     1      18.296   1.517  33.501  1.00  0.00     0.004 A 
HETATM    6  C9  UNK     1      18.708   0.901  32.325  1.00  0.00     0.123 A 
HETATM    7  C10 UNK     1      18.537   3.002  31.080  1.00  0.00     0.304 A 
HETATM    8  C11 UNK     1      18.192   0.749  34.664  1.00  0.00     0.050 A 
HETATM    9  C12 UNK     1      19.019  -0.457  32.277  1.00  0.00     0.105 A 
HETATM   10  C13 UNK     1      18.501  -0.613  34.632  1.00  0.00     0.106 A 
HETATM   11  C14 UNK     1      18.913  -1.215  33.441  1.00  0.00     0.075 A 
ENDROOT
BRANCH   3  12
HETATM   12  C5  UNK     1      17.765   5.072  32.424  1.00  0.00     0.259 C 
HETATM   13  O2  UNK     1      16.614   5.427  32.168  1.00  0.00    -0.267 OA
HETATM   14  N1  UNK     1      18.786   5.927  32.791  1.00  0.00    -0.348 N 
HETATM   15  C3  UNK     1      18.573   7.362  32.909  1.00  0.00     0.126 C 
HETATM   16  C4  UNK     1      20.170   5.580  33.111  1.00  0.00     0.126 C 
HETATM   17  C1  UNK     1      19.796   7.871  33.655  1.00  0.00     0.021 C 
HETATM   18  C2  UNK     1      20.891   6.919  33.193  1.00  0.00     0.021 C 
ENDBRANCH   3  12
BRANCH   9  19
HETATM   19  O3  UNK     1      19.420  -1.047  31.119  1.00  0.00    -0.353 OA
HETATM   20  C15 UNK     1      20.485  -1.994  31.207  1.00  0.00     0.210 C 
ENDBRANCH   9  19
BRANCH  10  21
HETATM   21  N2  UNK     1      18.395  -1.390  35.816  1.00  0.00    -0.116 N 
HETATM   22  O5  UNK     1      19.227  -2.306  36.020  1.00  0.00    -0.532 OA
HETATM   23  O6  UNK     1      17.471  -1.137  36.627  1.00  0.00    -0.532 OA
ENDBRANCH  10  21
TORSDOF 3
ENDMDL
MODEL 7
REMARK VINA RESULT:      -7.4     14.373     16.501
REMARK  3 active torsions:
REMARK  status: ('A' for Active; 'I' for Inactive)
REMARK    1  A    between atoms: C12_20  and  O3_3 
REMARK       I    between atoms: C5_13  and  N1_7 
REMARK    2  A    between atoms: C13_21  and  N2_8 
REMARK    3  A    between atoms: C5_13  and  C6_14 
ROOT
HETATM    1  O1  UNK     1      25.785  -5.855  38.672  1.00  0.00    -0.271 OA
HETATM    2  O4  UNK     1      23.554  -5.404  38.879  1.00  0.00    -0.259 OA
HETATM    3  C6  UNK     1      24.192  -7.683  38.985  1.00  0.00     0.108 A 
HETATM    4  C7  UNK     1      25.179  -8.585  38.948  1.00  0.00     0.037 A 
HETATM    5  C8  UNK     1      26.558  -8.158  38.765  1.00  0.00     0.004 A 
HETATM    6  C9  UNK     1      26.828  -6.800  38.631  1.00  0.00     0.123 A 
HETATM    7  C10 UNK     1      24.456  -6.234  38.845  1.00  0.00     0.304 A 
HETATM    8  C11 UNK     1      27.620  -9.065  38.720  1.00  0.00     0.050 A 
HETATM    9  C12 UNK     1      28.126  -6.324  38.454  1.00  0.00     0.105 A 
HETATM   10  C13 UNK     1      28.926  -8.602  38.542  1.00  0.00     0.106 A 
HETATM   11  C14 UNK     1      29.178  -7.235  38.410  1.00  0.00     0.075 A 
ENDROOT
BRANCH   3  12
HETATM   12  C5  UNK     1      22.828  -8.216  39.174  1.00  0.00     0.259 C 
HETATM   13  O2  UNK     1      22.329  -8.184  40.299  1.00  0.00    -0.267 OA
HETATM   14  N1  UNK     1      22.199  -8.718  38.051  1.00  0.00    -0.348 N 
HETATM   15  C3  UNK     1      20.851  -9.266  38.113  1.00  0.00     0.126 C 
HETATM   16  C4  UNK     1      22.724  -8.788  36.689  1.00  0.00     0.126 C 
HETATM   17  C1  UNK     1      20.413  -9.368  36.661  1.00  0.00     0.021 C 
HETATM   18  C2  UNK     1      21.721  -9.649  35.934  1.00  0.00     0.021 C 
ENDBRANCH   3  12
BRANCH   9  19
HETATM   19  O3  UNK     1      28.376  -4.994  38.323  1.00  0.00    -0.353 OA
HETATM   20  C15 UNK     1      29.495  -4.470  39.038  1.00  0.00     0.210 C 
ENDBRANCH   9  19
BRANCH  10  21
HETATM   21  N2  UNK     1      30.003  -9.528  38.498  1.00  0.00    -0.116 N 
HETATM   22  O5  UNK     1      29.987 -10.517  39.268  1.00  0.00    -0.532 OA
HETATM   23  O6  UNK     1      30.941  -9.330  37.688  1.00  0.00    -0.532 OA
ENDBRANCH  10  21
TORSDOF 3
ENDMDL
MODEL 8
REMARK VINA RESULT:      -7.3      6.866     11.518
REMARK  3 active torsions:
REMARK  status: ('A' for Active; 'I' for Inactive)
REMARK    1  A    between atoms: C12_20  and  O3_3 
REMARK       I    between atoms: C5_13  and  N1_7 
REMARK    2  A    between atoms: C13_21  and  N2_8 
REMARK    3  A    between atoms: C5_13  and  C6_14 
ROOT
HETATM    1  O1  UNK     1      20.128  -4.159  34.870  1.00  0.00    -0.271 OA
HETATM    2  O4  UNK     1      20.625  -6.381  35.054  1.00  0.00    -0.259 OA
HETATM    3  C6  UNK     1      19.638  -5.353  36.947  1.00  0.00     0.108 A 
HETATM    4  C7  UNK     1      19.142  -4.241  37.500  1.00  0.00     0.037 A 
HETATM    5  C8  UNK     1      19.112  -2.996  36.748  1.00  0.00     0.004 A 
HETATM    6  C9  UNK     1      19.607  -2.985  35.449  1.00  0.00     0.123 A 
HETATM    7  C10 UNK     1      20.169  -5.365  35.565  1.00  0.00     0.304 A 
HETATM    8  C11 UNK     1      18.604  -1.812  37.287  1.00  0.00     0.050 A 
HETATM    9  C12 UNK     1      19.607  -1.826  34.674  1.00  0.00     0.105 A 
HETATM   10  C13 UNK     1      18.598  -0.642  36.522  1.00  0.00     0.106 A 
HETATM   11  C14 UNK     1      19.098  -0.650  35.219  1.00  0.00     0.075 A 
ENDROOT
BRANCH   3  12
HETATM   12  C5  UNK     1      19.625  -6.565  37.790  1.00  0.00     0.259 C 
HETATM   13  O2  UNK     1      18.598  -7.243  37.838  1.00  0.00    -0.267 OA
HETATM   14  N1  UNK     1      20.789  -6.855  38.474  1.00  0.00    -0.348 N 
HETATM   15  C3  UNK     1      20.898  -8.026  39.333  1.00  0.00     0.126 C 
HETATM   16  C4  UNK     1      22.042  -6.102  38.465  1.00  0.00     0.126 C 
HETATM   17  C1  UNK     1      22.388  -8.172  39.596  1.00  0.00     0.021 C 
HETATM   18  C2  UNK     1      22.875  -6.729  39.575  1.00  0.00     0.021 C 
ENDBRANCH   3  12
BRANCH   9  19
HETATM   19  O3  UNK     1      20.094  -1.829  33.404  1.00  0.00    -0.353 OA
HETATM   20  C15 UNK     1      19.195  -1.449  32.362  1.00  0.00     0.210 C 
ENDBRANCH   9  19
BRANCH  10  21
HETATM   21  N2  UNK     1      18.079   0.559  37.074  1.00  0.00    -0.116 N 
HETATM   22  O5  UNK     1      17.973   0.661  38.320  1.00  0.00    -0.532 OA
HETATM   23  O6  UNK     1      17.741   1.487  36.299  1.00  0.00    -0.532 OA
ENDBRANCH  10  21
TORSDOF 3
ENDMDL
MODEL 9
REMARK VINA RESULT:      -7.3     22.597     24.986
REMARK  3 active torsions:
REMARK  status: ('A' for Active; 'I' for Inactive)
REMARK    1  A    between atoms: C12_20  and  O3_3 
REMARK       I    between atoms: C5_13  and  N1_7 
REMARK    2  A    between atoms: C13_21  and  N2_8 
REMARK    3  A    between atoms: C5_13  and  C6_14 
ROOT
HETATM    1  O1  UNK     1       7.585   7.234  10.623  1.00  0.00    -0.271 OA
HETATM    2  O4  UNK     1       8.842   8.587   9.279  1.00  0.00    -0.259 OA
HETATM    3  C6  UNK     1       8.534   6.354   8.549  1.00  0.00     0.108 A 
HETATM    4  C7  UNK     1       7.995   5.152   8.780  1.00  0.00     0.037 A 
HETATM    5  C8  UNK     1       7.200   4.922   9.977  1.00  0.00     0.004 A 
HETATM    6  C9  UNK     1       7.014   5.970  10.872  1.00  0.00     0.123 A 
HETATM    7  C10 UNK     1       8.349   7.484   9.487  1.00  0.00     0.304 A 
HETATM    8  C11 UNK     1       6.619   3.683  10.259  1.00  0.00     0.050 A 
HETATM    9  C12 UNK     1       6.264   5.817  12.036  1.00  0.00     0.105 A 
HETATM   10  C13 UNK     1       5.864   3.514  11.423  1.00  0.00     0.106 A 
HETATM   11  C14 UNK     1       5.688   4.579  12.310  1.00  0.00     0.075 A 
ENDROOT
BRANCH   3  12
HETATM   12  C5  UNK     1       9.323   6.487   7.308  1.00  0.00     0.259 C 
HETATM   13  O2  UNK     1       8.736   6.747   6.258  1.00  0.00    -0.267 OA
HETATM   14  N1  UNK     1      10.689   6.310   7.420  1.00  0.00    -0.348 N 
HETATM   15  C3  UNK     1      11.570   6.423   6.267  1.00  0.00     0.126 C 
HETATM   16  C4  UNK     1      11.453   6.003   8.628  1.00  0.00     0.126 C 
HETATM   17  C1  UNK     1      12.967   6.516   6.860  1.00  0.00     0.021 C 
HETATM   18  C2  UNK     1      12.851   5.675   8.123  1.00  0.00     0.021 C 
ENDBRANCH   3  12
BRANCH   9  19
HETATM   19  O3  UNK     1       6.091   6.850  12.903  1.00  0.00    -0.353 OA
HETATM   20  C15 UNK     1       5.577   6.534  14.197  1.00  0.00     0.210 C 
ENDBRANCH   9  19
BRANCH  10  21
HETATM   21  N2  UNK     1       5.274   2.254  11.705  1.00  0.00    -0.116 N 
HETATM   22  O5  UNK     1       4.943   1.987  12.885  1.00  0.00    -0.532 OA
HETATM   23  O6  UNK     1       5.100   1.440  10.765  1.00  0.00    -0.532 OA
ENDBRANCH  10  21
TORSDOF 3
ENDMDL
MODEL 10
REMARK VINA RESULT:      -7.3     22.923     24.810
REMARK  3 active torsions:
REMARK  status: ('A' for Active; 'I' for Inactive)
REMARK    1  A    between atoms: C12_20  and  O3_3 
REMARK       I    between atoms: C5_13  and  N1_7 
REMARK    2  A    between atoms: C13_21  and  N2_8 
REMARK    3  A    between atoms: C5_13  and  C6_14 
ROOT
HETATM    1  O1  UNK     1      14.395   6.939  10.079  1.00  0.00    -0.271 OA
HETATM    2  O4  UNK     1      12.508   5.665  10.274  1.00  0.00    -0.259 OA
HETATM    3  C6  UNK     1      12.256   7.788   9.252  1.00  0.00     0.108 A 
HETATM    4  C7  UNK     1      12.833   8.926   8.851  1.00  0.00     0.037 A 
HETATM    5  C8  UNK     1      14.259   9.136   9.048  1.00  0.00     0.004 A 
HETATM    6  C9  UNK     1      15.007   8.135   9.658  1.00  0.00     0.123 A 
HETATM    7  C10 UNK     1      13.033   6.709   9.904  1.00  0.00     0.304 A 
HETATM    8  C11 UNK     1      14.902  10.308   8.644  1.00  0.00     0.050 A 
HETATM    9  C12 UNK     1      16.377   8.273   9.876  1.00  0.00     0.105 A 
HETATM   10  C13 UNK     1      16.275  10.461   8.856  1.00  0.00     0.106 A 
HETATM   11  C14 UNK     1      17.010   9.445   9.471  1.00  0.00     0.075 A 
ENDROOT
BRANCH   3  12
HETATM   12  C5  UNK     1      10.805   7.670   9.008  1.00  0.00     0.259 C 
HETATM   13  O2  UNK     1      10.024   8.087   9.864  1.00  0.00    -0.267 OA
HETATM   14  N1  UNK     1      10.423   7.092   7.813  1.00  0.00    -0.348 N 
HETATM   15  C3  UNK     1       9.020   6.927   7.460  1.00  0.00     0.126 C 
HETATM   16  C4  UNK     1      11.288   6.577   6.753  1.00  0.00     0.126 C 
HETATM   17  C1  UNK     1       9.035   6.600   5.975  1.00  0.00     0.021 C 
HETATM   18  C2  UNK     1      10.345   5.841   5.812  1.00  0.00     0.021 C 
ENDBRANCH   3  12
BRANCH   9  19
HETATM   19  O3  UNK     1      17.096   7.287  10.476  1.00  0.00    -0.353 OA
HETATM   20  C15 UNK     1      17.802   6.386   9.622  1.00  0.00     0.210 C 
ENDBRANCH   9  19
BRANCH  10  21
HETATM   21  N2  UNK     1      16.925  11.654   8.444  1.00  0.00    -0.116 N 
HETATM   22  O5  UNK     1      17.761  12.188   9.212  1.00  0.00    -0.532 OA
HETATM   23  O6  UNK     1      16.646  12.141   7.322  1.00  0.00    -0.532 OA
ENDBRANCH  10  21
TORSDOF 3
ENDMDL
