MODEL 1
REMARK VINA RESULT:     -10.4      0.000      0.000
REMARK  5 active torsions:
REMARK  status: ('A' for Active; 'I' for Inactive)
REMARK    1  A    between atoms: C20_27  and  O3_4 
REMARK       I    between atoms: C12_19  and  N2_7 
REMARK    2  A    between atoms: C6_13  and  N2_7 
REMARK    3  A    between atoms: C1_8  and  C2_9 
REMARK    4  A    between atoms: C2_9  and  C6_13 
REMARK    5  A    between atoms: C12_19  and  C13_20 
ROOT
HETATM    1  O2  UNK     1      17.475   3.772  31.976  1.00  0.00    -0.267 OA
HETATM    2  N2  UNK     1      18.913   4.799  30.456  1.00  0.00    -0.356 N 
HETATM    3  C12 UNK     1      18.293   3.721  31.059  1.00  0.00     0.257 C 
HETATM    4  H10 UNK     1      19.552   4.653  29.681  1.00  0.00     0.162 HD
ENDROOT
BRANCH   2   5
HETATM    5  C6  UNK     1      18.667   6.170  30.847  1.00  0.00     0.127 C 
BRANCH   5   6
HETATM    6  C2  UNK     1      19.100   6.456  32.284  1.00  0.00     0.061 C 
BRANCH   6   7
HETATM    7  C1  UNK     1      18.181   7.400  33.003  1.00  0.00    -0.022 A 
HETATM    8  C3  UNK     1      16.782   7.459  32.845  1.00  0.00     0.001 A 
HETATM    9  C5  UNK     1      16.334   8.471  33.697  1.00  0.00     0.065 A 
HETATM   10  C7  UNK     1      15.839   6.761  32.066  1.00  0.00     0.014 A 
HETATM   11  N1  UNK     1      17.441   8.985  34.333  1.00  0.00    -0.357 N 
HETATM   12  C9  UNK     1      14.984   8.820  33.810  1.00  0.00     0.061 A 
HETATM   13  C4  UNK     1      18.571   8.336  33.913  1.00  0.00     0.013 A 
HETATM   14  H3  UNK     1      17.418   9.734  35.011  1.00  0.00     0.166 HD
HETATM   15  C8  UNK     1      19.899   8.700  34.445  1.00  0.00     0.068 C 
HETATM   16  C11 UNK     1      14.065   8.114  33.027  1.00  0.00     0.026 A 
HETATM   17 Cl1  UNK     1      14.454  10.068  34.864  1.00  0.00    -0.082 Cl
HETATM   18  C10 UNK     1      14.484   7.100  32.169  1.00  0.00     0.003 A 
ENDBRANCH   6   7
ENDBRANCH   5   6
ENDBRANCH   2   5
BRANCH   3  19
HETATM   19  C13 UNK     1      18.704   2.433  30.488  1.00  0.00     0.108 A 
HETATM   20  C15 UNK     1      19.195   1.534  31.350  1.00  0.00     0.037 A 
HETATM   21  C14 UNK     1      19.629   0.228  30.878  1.00  0.00     0.002 A 
HETATM   22  C16 UNK     1      19.524  -0.068  29.523  1.00  0.00     0.089 A 
HETATM   23  C18 UNK     1      20.146  -0.742  31.741  1.00  0.00     0.051 A 
HETATM   24  O1  UNK     1      19.007   0.883  28.621  1.00  0.00    -0.274 OA
HETATM   25  C19 UNK     1      19.922  -1.299  29.007  1.00  0.00     0.041 A 
HETATM   26  C17 UNK     1      18.584   2.141  29.042  1.00  0.00     0.304 A 
HETATM   27  O4  UNK     1      18.134   2.962  28.251  1.00  0.00    -0.259 OA
HETATM   28  C21 UNK     1      20.437  -2.260  29.875  1.00  0.00     0.039 A 
HETATM   29  C20 UNK     1      20.550  -1.983  31.239  1.00  0.00     0.069 A 
BRANCH  29  30
HETATM   30  O3  UNK     1      21.054  -2.924  32.083  1.00  0.00    -0.356 OA
HETATM   31  C22 UNK     1      20.759  -2.776  33.470  1.00  0.00     0.210 C 
ENDBRANCH  29  30
ENDBRANCH   3  19
TORSDOF 5
ENDMDL
MODEL 2
REMARK VINA RESULT:     -10.3      6.707     12.066
REMARK  5 active torsions:
REMARK  status: ('A' for Active; 'I' for Inactive)
REMARK    1  A    between atoms: C20_27  and  O3_4 
REMARK       I    between atoms: C12_19  and  N2_7 
REMARK    2  A    between atoms: C6_13  and  N2_7 
REMARK    3  A    between atoms: C1_8  and  C2_9 
REMARK    4  A    between atoms: C2_9  and  C6_13 
REMARK    5  A    between atoms: C12_19  and  C13_20 
ROOT
HETATM    1  O2  UNK     1      21.347  -2.071  35.327  1.00  0.00    -0.267 OA
HETATM    2  N2  UNK     1      19.893  -3.851  34.934  1.00  0.00    -0.356 N 
HETATM    3  C12 UNK     1      20.648  -2.750  34.576  1.00  0.00     0.257 C 
HETATM    4  H10 UNK     1      19.374  -4.365  34.230  1.00  0.00     0.162 HD
ENDROOT
BRANCH   2   5
HETATM    5  C6  UNK     1      19.830  -4.357  36.287  1.00  0.00     0.127 C 
BRANCH   5   6
HETATM    6  C2  UNK     1      18.493  -5.028  36.599  1.00  0.00     0.061 C 
BRANCH   6   7
HETATM    7  C1  UNK     1      18.612  -6.507  36.828  1.00  0.00    -0.022 A 
HETATM    8  C3  UNK     1      19.442  -7.122  37.787  1.00  0.00     0.001 A 
HETATM    9  C5  UNK     1      19.241  -8.498  37.655  1.00  0.00     0.065 A 
HETATM   10  C7  UNK     1      20.351  -6.660  38.758  1.00  0.00     0.014 A 
HETATM   11  N1  UNK     1      18.318  -8.677  36.649  1.00  0.00    -0.357 N 
HETATM   12  C9  UNK     1      19.905  -9.438  38.451  1.00  0.00     0.061 A 
HETATM   13  C4  UNK     1      17.931  -7.467  36.141  1.00  0.00     0.013 A 
HETATM   14  H3  UNK     1      17.979  -9.576  36.335  1.00  0.00     0.166 HD
HETATM   15  C8  UNK     1      16.946  -7.381  35.046  1.00  0.00     0.068 C 
HETATM   16  C11 UNK     1      20.802  -8.956  39.409  1.00  0.00     0.026 A 
HETATM   17 Cl1  UNK     1      19.641 -11.125  38.272  1.00  0.00    -0.082 Cl
HETATM   18  C10 UNK     1      21.023  -7.589  39.562  1.00  0.00     0.003 A 
ENDBRANCH   6   7
ENDBRANCH   5   6
ENDBRANCH   2   5
BRANCH   3  19
HETATM   19  C13 UNK     1      20.552  -2.432  33.146  1.00  0.00     0.108 A 
HETATM   20  C15 UNK     1      20.037  -1.235  32.840  1.00  0.00     0.037 A 
HETATM   21  C14 UNK     1      19.903  -0.830  31.449  1.00  0.00     0.002 A 
HETATM   22  C16 UNK     1      20.317  -1.704  30.450  1.00  0.00     0.089 A 
HETATM   23  C18 UNK     1      19.372   0.409  31.082  1.00  0.00     0.051 A 
HETATM   24  O1  UNK     1      20.857  -2.963  30.779  1.00  0.00    -0.274 OA
HETATM   25  C19 UNK     1      20.214  -1.377  29.099  1.00  0.00     0.041 A 
HETATM   26  C17 UNK     1      20.998  -3.379  32.100  1.00  0.00     0.304 A 
HETATM   27  O4  UNK     1      21.471  -4.475  32.377  1.00  0.00    -0.259 OA
HETATM   28  C21 UNK     1      19.683  -0.140  28.742  1.00  0.00     0.039 A 
HETATM   29  C20 UNK     1      19.263   0.752  29.731  1.00  0.00     0.069 A 
BRANCH  29  30
HETATM   30  O3  UNK     1      18.745   1.961  29.378  1.00  0.00    -0.356 OA
HETATM   31  C22 UNK     1      18.591   2.928  30.414  1.00  0.00     0.210 C 
ENDBRANCH  29  30
ENDBRANCH   3  19
TORSDOF 5
ENDMDL
MODEL 3
REMARK VINA RESULT:     -10.0      1.224      2.574
REMARK  5 active torsions:
REMARK  status: ('A' for Active; 'I' for Inactive)
REMARK    1  A    between atoms: C20_27  and  O3_4 
REMARK       I    between atoms: C12_19  and  N2_7 
REMARK    2  A    between atoms: C6_13  and  N2_7 
REMARK    3  A    between atoms: C1_8  and  C2_9 
REMARK    4  A    between atoms: C2_9  and  C6_13 
REMARK    5  A    between atoms: C12_19  and  C13_20 
ROOT
HETATM    1  O2  UNK     1      16.909   3.154  30.807  1.00  0.00    -0.267 OA
HETATM    2  N2  UNK     1      19.069   4.030  30.752  1.00  0.00    -0.356 N 
HETATM    3  C12 UNK     1      18.123   3.026  30.655  1.00  0.00     0.257 C 
HETATM    4  H10 UNK     1      20.048   3.829  30.575  1.00  0.00     0.162 HD
ENDROOT
BRANCH   2   5
HETATM    5  C6  UNK     1      18.732   5.403  31.058  1.00  0.00     0.127 C 
BRANCH   5   6
HETATM    6  C2  UNK     1      18.311   5.592  32.514  1.00  0.00     0.061 C 
BRANCH   6   7
HETATM    7  C1  UNK     1      17.870   6.992  32.827  1.00  0.00    -0.022 A 
HETATM    8  C3  UNK     1      18.672   7.989  33.418  1.00  0.00     0.001 A 
HETATM    9  C5  UNK     1      17.867   9.126  33.526  1.00  0.00     0.065 A 
HETATM   10  C7  UNK     1      20.001   8.053  33.879  1.00  0.00     0.014 A 
HETATM   11  N1  UNK     1      16.633   8.799  33.011  1.00  0.00    -0.357 N 
HETATM   12  C9  UNK     1      18.329  10.329  34.072  1.00  0.00     0.061 A 
HETATM   13  C4  UNK     1      16.629   7.499  32.583  1.00  0.00     0.013 A 
HETATM   14  H3  UNK     1      15.847   9.432  32.958  1.00  0.00     0.166 HD
HETATM   15  C8  UNK     1      15.420   6.898  31.988  1.00  0.00     0.068 C 
HETATM   16  C11 UNK     1      19.651  10.369  34.523  1.00  0.00     0.026 A 
HETATM   17 Cl1  UNK     1      17.323  11.715  34.194  1.00  0.00    -0.082 Cl
HETATM   18  C10 UNK     1      20.477   9.250  34.428  1.00  0.00     0.003 A 
ENDBRANCH   6   7
ENDBRANCH   5   6
ENDBRANCH   2   5
BRANCH   3  19
HETATM   19  C13 UNK     1      18.709   1.720  30.334  1.00  0.00     0.108 A 
HETATM   20  C15 UNK     1      19.112   0.981  31.375  1.00  0.00     0.037 A 
HETATM   21  C14 UNK     1      19.704  -0.330  31.157  1.00  0.00     0.002 A 
HETATM   22  C16 UNK     1      19.844  -0.798  29.854  1.00  0.00     0.089 A 
HETATM   23  C18 UNK     1      20.138  -1.136  32.212  1.00  0.00     0.051 A 
HETATM   24  O1  UNK     1      19.418  -0.015  28.763  1.00  0.00    -0.274 OA
HETATM   25  C19 UNK     1      20.404  -2.044  29.578  1.00  0.00     0.041 A 
HETATM   26  C17 UNK     1      18.848   1.242  28.940  1.00  0.00     0.304 A 
HETATM   27  O4  UNK     1      18.479   1.916  27.984  1.00  0.00    -0.259 OA
HETATM   28  C21 UNK     1      20.834  -2.841  30.636  1.00  0.00     0.039 A 
HETATM   29  C20 UNK     1      20.702  -2.389  31.951  1.00  0.00     0.069 A 
BRANCH  29  30
HETATM   30  O3  UNK     1      21.124  -3.171  32.983  1.00  0.00    -0.356 OA
HETATM   31  C22 UNK     1      20.554  -2.916  34.264  1.00  0.00     0.210 C 
ENDBRANCH  29  30
ENDBRANCH   3  19
TORSDOF 5
ENDMDL
MODEL 4
REMARK VINA RESULT:      -9.8      3.908      9.847
REMARK  5 active torsions:
REMARK  status: ('A' for Active; 'I' for Inactive)
REMARK    1  A    between atoms: C20_27  and  O3_4 
REMARK       I    between atoms: C12_19  and  N2_7 
REMARK    2  A    between atoms: C6_13  and  N2_7 
REMARK    3  A    between atoms: C1_8  and  C2_9 
REMARK    4  A    between atoms: C2_9  and  C6_13 
REMARK    5  A    between atoms: C12_19  and  C13_20 
ROOT
HETATM    1  O2  UNK     1      19.868   5.769  33.102  1.00  0.00    -0.267 OA
HETATM    2  N2  UNK     1      18.454   5.436  31.279  1.00  0.00    -0.356 N 
HETATM    3  C12 UNK     1      18.879   6.066  32.434  1.00  0.00     0.257 C 
HETATM    4  H10 UNK     1      17.640   5.780  30.780  1.00  0.00     0.162 HD
ENDROOT
BRANCH   2   5
HETATM    5  C6  UNK     1      19.145   4.307  30.697  1.00  0.00     0.127 C 
BRANCH   5   6
HETATM    6  C2  UNK     1      18.216   3.123  30.435  1.00  0.00     0.061 C 
BRANCH   6   7
HETATM    7  C1  UNK     1      18.681   1.849  31.079  1.00  0.00    -0.022 A 
HETATM    8  C3  UNK     1      19.287   0.768  30.409  1.00  0.00     0.001 A 
HETATM    9  C5  UNK     1      19.554  -0.197  31.382  1.00  0.00     0.065 A 
HETATM   10  C7  UNK     1      19.639   0.498  29.072  1.00  0.00     0.014 A 
HETATM   11  N1  UNK     1      19.117   0.310  32.585  1.00  0.00    -0.357 N 
HETATM   12  C9  UNK     1      20.161  -1.422  31.085  1.00  0.00     0.061 A 
HETATM   13  C4  UNK     1      18.583   1.558  32.406  1.00  0.00     0.013 A 
HETATM   14  H3  UNK     1      19.184  -0.174  33.470  1.00  0.00     0.166 HD
HETATM   15  C8  UNK     1      18.039   2.322  33.545  1.00  0.00     0.068 C 
HETATM   16  C11 UNK     1      20.502  -1.668  29.752  1.00  0.00     0.026 A 
HETATM   17 Cl1  UNK     1      20.482  -2.594  32.299  1.00  0.00    -0.082 Cl
HETATM   18  C10 UNK     1      20.247  -0.724  28.759  1.00  0.00     0.003 A 
ENDBRANCH   6   7
ENDBRANCH   5   6
ENDBRANCH   2   5
BRANCH   3  19
HETATM   19  C13 UNK     1      18.015   7.186  32.824  1.00  0.00     0.108 A 
HETATM   20  C15 UNK     1      18.637   8.301  33.226  1.00  0.00     0.037 A 
HETATM   21  C14 UNK     1      17.865   9.465  33.632  1.00  0.00     0.002 A 
HETATM   22  C16 UNK     1      16.476   9.398  33.595  1.00  0.00     0.089 A 
HETATM   23  C18 UNK     1      18.471  10.650  34.057  1.00  0.00     0.051 A 
HETATM   24  O1  UNK     1      15.827   8.222  33.171  1.00  0.00    -0.274 OA
HETATM   25  C19 UNK     1      15.678  10.477  33.971  1.00  0.00     0.041 A 
HETATM   26  C17 UNK     1      16.539   7.092  32.777  1.00  0.00     0.304 A 
HETATM   27  O4  UNK     1      15.966   6.073  32.409  1.00  0.00    -0.259 OA
HETATM   28  C21 UNK     1      16.291  11.655  34.395  1.00  0.00     0.039 A 
HETATM   29  C20 UNK     1      17.684  11.742  34.438  1.00  0.00     0.069 A 
BRANCH  29  30
HETATM   30  O3  UNK     1      18.279  12.894  34.853  1.00  0.00    -0.356 OA
HETATM   31  C22 UNK     1      18.393  13.945  33.896  1.00  0.00     0.210 C 
ENDBRANCH  29  30
ENDBRANCH   3  19
TORSDOF 5
ENDMDL
MODEL 5
REMARK VINA RESULT:      -9.7      3.912      9.851
REMARK  5 active torsions:
REMARK  status: ('A' for Active; 'I' for Inactive)
REMARK    1  A    between atoms: C20_27  and  O3_4 
REMARK       I    between atoms: C12_19  and  N2_7 
REMARK    2  A    between atoms: C6_13  and  N2_7 
REMARK    3  A    between atoms: C1_8  and  C2_9 
REMARK    4  A    between atoms: C2_9  and  C6_13 
REMARK    5  A    between atoms: C12_19  and  C13_20 
ROOT
HETATM    1  O2  UNK     1      18.992   6.617  29.939  1.00  0.00    -0.267 OA
HETATM    2  N2  UNK     1      18.569   4.957  31.519  1.00  0.00    -0.356 N 
HETATM    3  C12 UNK     1      18.584   6.254  31.041  1.00  0.00     0.257 C 
HETATM    4  H10 UNK     1      18.179   4.755  32.435  1.00  0.00     0.162 HD
ENDROOT
BRANCH   2   5
HETATM    5  C6  UNK     1      19.050   3.829  30.754  1.00  0.00     0.127 C 
BRANCH   5   6
HETATM    6  C2  UNK     1      18.071   2.655  30.761  1.00  0.00     0.061 C 
BRANCH   6   7
HETATM    7  C1  UNK     1      18.665   1.390  31.309  1.00  0.00    -0.022 A 
HETATM    8  C3  UNK     1      19.346   0.413  30.555  1.00  0.00     0.001 A 
HETATM    9  C5  UNK     1      19.725  -0.584  31.457  1.00  0.00     0.065 A 
HETATM   10  C7  UNK     1      19.683   0.262  29.196  1.00  0.00     0.014 A 
HETATM   11  N1  UNK     1      19.278  -0.196  32.700  1.00  0.00    -0.357 N 
HETATM   12  C9  UNK     1      20.429  -1.728  31.065  1.00  0.00     0.061 A 
HETATM   13  C4  UNK     1      18.631   1.007  32.616  1.00  0.00     0.013 A 
HETATM   14  H3  UNK     1      19.412  -0.728  33.549  1.00  0.00     0.166 HD
HETATM   15  C8  UNK     1      18.053   1.645  33.814  1.00  0.00     0.068 C 
HETATM   16  C11 UNK     1      20.753  -1.856  29.712  1.00  0.00     0.026 A 
HETATM   17 Cl1  UNK     1      20.886  -2.941  32.191  1.00  0.00    -0.082 Cl
HETATM   18  C10 UNK     1      20.387  -0.877  28.790  1.00  0.00     0.003 A 
ENDBRANCH   6   7
ENDBRANCH   5   6
ENDBRANCH   2   5
BRANCH   3  19
HETATM   19  C13 UNK     1      18.042   7.223  32.000  1.00  0.00     0.108 A 
HETATM   20  C15 UNK     1      16.812   7.685  31.743  1.00  0.00     0.037 A 
HETATM   21  C14 UNK     1      16.190   8.648  32.638  1.00  0.00     0.002 A 
HETATM   22  C16 UNK     1      16.892   9.078  33.759  1.00  0.00     0.089 A 
HETATM   23  C18 UNK     1      14.908   9.157  32.411  1.00  0.00     0.051 A 
HETATM   24  O1  UNK     1      18.187   8.588  34.024  1.00  0.00    -0.274 OA
HETATM   25  C19 UNK     1      16.353  10.000  34.655  1.00  0.00     0.041 A 
HETATM   26  C17 UNK     1      18.808   7.666  33.186  1.00  0.00     0.304 A 
HETATM   27  O4  UNK     1      19.934   7.245  33.425  1.00  0.00    -0.259 OA
HETATM   28  C21 UNK     1      15.075  10.502  34.420  1.00  0.00     0.039 A 
HETATM   29  C20 UNK     1      14.354  10.082  33.300  1.00  0.00     0.069 A 
BRANCH  29  30
HETATM   30  O3  UNK     1      13.105  10.575  33.074  1.00  0.00    -0.356 OA
HETATM   31  C22 UNK     1      12.919  11.977  33.258  1.00  0.00     0.210 C 
ENDBRANCH  29  30
ENDBRANCH   3  19
TORSDOF 5
ENDMDL
MODEL 6
REMARK VINA RESULT:      -9.6      6.233      9.838
REMARK  5 active torsions:
REMARK  status: ('A' for Active; 'I' for Inactive)
REMARK    1  A    between atoms: C20_27  and  O3_4 
REMARK       I    between atoms: C12_19  and  N2_7 
REMARK    2  A    between atoms: C6_13  and  N2_7 
REMARK    3  A    between atoms: C1_8  and  C2_9 
REMARK    4  A    between atoms: C2_9  and  C6_13 
REMARK    5  A    between atoms: C12_19  and  C13_20 
ROOT
HETATM    1  O2  UNK     1      20.258  -4.376  34.906  1.00  0.00    -0.267 OA
HETATM    2  N2  UNK     1      19.360  -3.913  37.006  1.00  0.00    -0.356 N 
HETATM    3  C12 UNK     1      19.795  -4.738  35.986  1.00  0.00     0.257 C 
HETATM    4  H10 UNK     1      19.023  -4.311  37.877  1.00  0.00     0.162 HD
ENDROOT
BRANCH   2   5
HETATM    5  C6  UNK     1      19.396  -2.470  36.922  1.00  0.00     0.127 C 
BRANCH   5   6
HETATM    6  C2  UNK     1      18.006  -1.858  36.750  1.00  0.00     0.061 C 
BRANCH   6   7
HETATM    7  C1  UNK     1      18.020  -0.555  36.005  1.00  0.00    -0.022 A 
HETATM    8  C3  UNK     1      18.319  -0.398  34.637  1.00  0.00     0.001 A 
HETATM    9  C5  UNK     1      18.215   0.968  34.366  1.00  0.00     0.065 A 
HETATM   10  C7  UNK     1      18.672  -1.272  33.589  1.00  0.00     0.014 A 
HETATM   11  N1  UNK     1      17.863   1.588  35.544  1.00  0.00    -0.357 N 
HETATM   12  C9  UNK     1      18.445   1.506  33.095  1.00  0.00     0.061 A 
HETATM   13  C4  UNK     1      17.743   0.664  36.547  1.00  0.00     0.013 A 
HETATM   14  H3  UNK     1      17.716   2.583  35.648  1.00  0.00     0.166 HD
HETATM   15  C8  UNK     1      17.375   1.072  37.916  1.00  0.00     0.068 C 
HETATM   16  C11 UNK     1      18.793   0.621  32.071  1.00  0.00     0.026 A 
HETATM   17 Cl1  UNK     1      18.310   3.190  32.785  1.00  0.00    -0.082 Cl
HETATM   18  C10 UNK     1      18.905  -0.748  32.312  1.00  0.00     0.003 A 
ENDBRANCH   6   7
ENDBRANCH   5   6
ENDBRANCH   2   5
BRANCH   3  19
HETATM   19  C13 UNK     1      19.659  -6.164  36.308  1.00  0.00     0.108 A 
HETATM   20  C15 UNK     1      20.731  -6.929  36.067  1.00  0.00     0.037 A 
HETATM   21  C14 UNK     1      20.692  -8.354  36.355  1.00  0.00     0.002 A 
HETATM   22  C16 UNK     1      19.528  -8.904  36.882  1.00  0.00     0.089 A 
HETATM   23  C18 UNK     1      21.786  -9.191  36.120  1.00  0.00     0.051 A 
HETATM   24  O1  UNK     1      18.404  -8.093  37.133  1.00  0.00    -0.274 OA
HETATM   25  C19 UNK     1      19.426 -10.262  37.179  1.00  0.00     0.041 A 
HETATM   26  C17 UNK     1      18.410  -6.726  36.868  1.00  0.00     0.304 A 
HETATM   27  O4  UNK     1      17.427  -6.028  37.090  1.00  0.00    -0.259 OA
HETATM   28  C21 UNK     1      20.522 -11.089  36.941  1.00  0.00     0.039 A 
HETATM   29  C20 UNK     1      21.700 -10.556  36.413  1.00  0.00     0.069 A 
BRANCH  29  30
HETATM   30  O3  UNK     1      22.768 -11.368  36.183  1.00  0.00    -0.356 OA
HETATM   31  C22 UNK     1      24.050 -10.747  36.109  1.00  0.00     0.210 C 
ENDBRANCH  29  30
ENDBRANCH   3  19
TORSDOF 5
ENDMDL
MODEL 7
REMARK VINA RESULT:      -9.5      1.916      2.723
REMARK  5 active torsions:
REMARK  status: ('A' for Active; 'I' for Inactive)
REMARK    1  A    between atoms: C20_27  and  O3_4 
REMARK       I    between atoms: C12_19  and  N2_7 
REMARK    2  A    between atoms: C6_13  and  N2_7 
REMARK    3  A    between atoms: C1_8  and  C2_9 
REMARK    4  A    between atoms: C2_9  and  C6_13 
REMARK    5  A    between atoms: C12_19  and  C13_20 
ROOT
HETATM    1  O2  UNK     1      17.098   2.757  30.883  1.00  0.00    -0.267 OA
HETATM    2  N2  UNK     1      19.230   3.353  30.151  1.00  0.00    -0.356 N 
HETATM    3  C12 UNK     1      18.297   2.521  30.742  1.00  0.00     0.257 C 
HETATM    4  H10 UNK     1      20.194   3.051  30.053  1.00  0.00     0.162 HD
ENDROOT
BRANCH   2   5
HETATM    5  C6  UNK     1      18.897   4.651  29.609  1.00  0.00     0.127 C 
BRANCH   5   6
HETATM    6  C2  UNK     1      19.807   5.758  30.139  1.00  0.00     0.061 C 
BRANCH   6   7
HETATM    7  C1  UNK     1      19.408   6.256  31.497  1.00  0.00    -0.022 A 
HETATM    8  C3  UNK     1      18.104   6.629  31.881  1.00  0.00     0.001 A 
HETATM    9  C5  UNK     1      18.188   7.026  33.217  1.00  0.00     0.065 A 
HETATM   10  C7  UNK     1      16.853   6.677  31.236  1.00  0.00     0.014 A 
HETATM   11  N1  UNK     1      19.502   6.886  33.600  1.00  0.00    -0.357 N 
HETATM   12  C9  UNK     1      17.077   7.468  33.944  1.00  0.00     0.061 A 
HETATM   13  C4  UNK     1      20.252   6.417  32.555  1.00  0.00     0.013 A 
HETATM   14  H3  UNK     1      19.858   7.100  34.522  1.00  0.00     0.166 HD
HETATM   15  C8  UNK     1      21.700   6.179  32.704  1.00  0.00     0.068 C 
HETATM   16  C11 UNK     1      15.845   7.507  33.284  1.00  0.00     0.026 A 
HETATM   17 Cl1  UNK     1      17.202   7.950  35.588  1.00  0.00    -0.082 Cl
HETATM   18  C10 UNK     1      15.733   7.117  31.951  1.00  0.00     0.003 A 
ENDBRANCH   6   7
ENDBRANCH   5   6
ENDBRANCH   2   5
BRANCH   3  19
HETATM   19  C13 UNK     1      18.876   1.258  31.214  1.00  0.00     0.108 A 
HETATM   20  C15 UNK     1      18.614   0.925  32.484  1.00  0.00     0.037 A 
HETATM   21  C14 UNK     1      19.144  -0.310  33.041  1.00  0.00     0.002 A 
HETATM   22  C16 UNK     1      19.923  -1.133  32.235  1.00  0.00     0.089 A 
HETATM   23  C18 UNK     1      18.895  -0.699  34.360  1.00  0.00     0.051 A 
HETATM   24  O1  UNK     1      20.196  -0.777  30.900  1.00  0.00    -0.274 OA
HETATM   25  C19 UNK     1      20.461  -2.329  32.709  1.00  0.00     0.041 A 
HETATM   26  C17 UNK     1      19.703   0.398  30.338  1.00  0.00     0.304 A 
HETATM   27  O4  UNK     1      19.944   0.699  29.175  1.00  0.00    -0.259 OA
HETATM   28  C21 UNK     1      20.208  -2.708  34.026  1.00  0.00     0.039 A 
HETATM   29  C20 UNK     1      19.427  -1.895  34.850  1.00  0.00     0.069 A 
BRANCH  29  30
HETATM   30  O3  UNK     1      19.183  -2.270  36.136  1.00  0.00    -0.356 OA
HETATM   31  C22 UNK     1      19.643  -3.559  36.534  1.00  0.00     0.210 C 
ENDBRANCH  29  30
ENDBRANCH   3  19
TORSDOF 5
ENDMDL
MODEL 8
REMARK VINA RESULT:      -9.3     12.655     15.957
REMARK  5 active torsions:
REMARK  status: ('A' for Active; 'I' for Inactive)
REMARK    1  A    between atoms: C20_27  and  O3_4 
REMARK       I    between atoms: C12_19  and  N2_7 
REMARK    2  A    between atoms: C6_13  and  N2_7 
REMARK    3  A    between atoms: C1_8  and  C2_9 
REMARK    4  A    between atoms: C2_9  and  C6_13 
REMARK    5  A    between atoms: C12_19  and  C13_20 
ROOT
HETATM    1  O2  UNK     1      26.542  -9.181  39.218  1.00  0.00    -0.267 OA
HETATM    2  N2  UNK     1      25.055  -7.424  38.848  1.00  0.00    -0.356 N 
HETATM    3  C12 UNK     1      26.306  -7.999  38.972  1.00  0.00     0.257 C 
HETATM    4  H10 UNK     1      24.966  -6.442  38.610  1.00  0.00     0.162 HD
ENDROOT
BRANCH   2   5
HETATM    5  C6  UNK     1      23.826  -8.171  39.000  1.00  0.00     0.127 C 
BRANCH   5   6
HETATM    6  C2  UNK     1      22.673  -7.306  39.507  1.00  0.00     0.061 C 
BRANCH   6   7
HETATM    7  C1  UNK     1      21.528  -7.216  38.541  1.00  0.00    -0.022 A 
HETATM    8  C3  UNK     1      20.684  -8.283  38.172  1.00  0.00     0.001 A 
HETATM    9  C5  UNK     1      19.766  -7.759  37.260  1.00  0.00     0.065 A 
HETATM   10  C7  UNK     1      20.597  -9.647  38.514  1.00  0.00     0.014 A 
HETATM   11  N1  UNK     1      20.067  -6.425  37.103  1.00  0.00    -0.357 N 
HETATM   12  C9  UNK     1      18.761  -8.534  36.671  1.00  0.00     0.061 A 
HETATM   13  C4  UNK     1      21.142  -6.089  37.882  1.00  0.00     0.013 A 
HETATM   14  H3  UNK     1      19.564  -5.790  36.498  1.00  0.00     0.166 HD
HETATM   15  C8  UNK     1      21.669  -4.711  37.895  1.00  0.00     0.068 C 
HETATM   16  C11 UNK     1      18.694  -9.884  37.024  1.00  0.00     0.026 A 
HETATM   17 Cl1  UNK     1      17.641  -7.868  35.551  1.00  0.00    -0.082 Cl
HETATM   18  C10 UNK     1      19.597 -10.434  37.932  1.00  0.00     0.003 A 
ENDBRANCH   6   7
ENDBRANCH   5   6
ENDBRANCH   2   5
BRANCH   3  19
HETATM   19  C13 UNK     1      27.398  -7.038  38.774  1.00  0.00     0.108 A 
HETATM   20  C15 UNK     1      28.624  -7.557  38.638  1.00  0.00     0.037 A 
HETATM   21  C14 UNK     1      29.770  -6.684  38.436  1.00  0.00     0.002 A 
HETATM   22  C16 UNK     1      29.569  -5.309  38.387  1.00  0.00     0.089 A 
HETATM   23  C18 UNK     1      31.068  -7.180  38.288  1.00  0.00     0.051 A 
HETATM   24  O1  UNK     1      28.276  -4.769  38.532  1.00  0.00    -0.274 OA
HETATM   25  C19 UNK     1      30.624  -4.418  38.198  1.00  0.00     0.041 A 
HETATM   26  C17 UNK     1      27.160  -5.578  38.727  1.00  0.00     0.304 A 
HETATM   27  O4  UNK     1      26.038  -5.100  38.850  1.00  0.00    -0.259 OA
HETATM   28  C21 UNK     1      31.915  -4.922  38.051  1.00  0.00     0.039 A 
HETATM   29  C20 UNK     1      32.137  -6.300  38.096  1.00  0.00     0.069 A 
BRANCH  29  30
HETATM   30  O3  UNK     1      33.400  -6.788  37.953  1.00  0.00    -0.356 OA
HETATM   31  C22 UNK     1      33.621  -7.712  36.890  1.00  0.00     0.210 C 
ENDBRANCH  29  30
ENDBRANCH   3  19
TORSDOF 5
ENDMDL
MODEL 9
REMARK VINA RESULT:      -9.3      7.267     12.930
REMARK  5 active torsions:
REMARK  status: ('A' for Active; 'I' for Inactive)
REMARK    1  A    between atoms: C20_27  and  O3_4 
REMARK       I    between atoms: C12_19  and  N2_7 
REMARK    2  A    between atoms: C6_13  and  N2_7 
REMARK    3  A    between atoms: C1_8  and  C2_9 
REMARK    4  A    between atoms: C2_9  and  C6_13 
REMARK    5  A    between atoms: C12_19  and  C13_20 
ROOT
HETATM    1  O2  UNK     1      20.795  -3.758  36.171  1.00  0.00    -0.267 OA
HETATM    2  N2  UNK     1      18.539  -4.239  36.502  1.00  0.00    -0.356 N 
HETATM    3  C12 UNK     1      19.606  -3.447  36.121  1.00  0.00     0.257 C 
HETATM    4  H10 UNK     1      17.588  -3.902  36.390  1.00  0.00     0.162 HD
ENDROOT
BRANCH   2   5
HETATM    5  C6  UNK     1      18.697  -5.577  37.026  1.00  0.00     0.127 C 
BRANCH   5   6
HETATM    6  C2  UNK     1      18.302  -6.653  36.016  1.00  0.00     0.061 C 
BRANCH   6   7
HETATM    7  C1  UNK     1      19.403  -7.635  35.734  1.00  0.00    -0.022 A 
HETATM    8  C3  UNK     1      19.650  -8.816  36.461  1.00  0.00     0.001 A 
HETATM    9  C5  UNK     1      20.758  -9.420  35.862  1.00  0.00     0.065 A 
HETATM   10  C7  UNK     1      19.053  -9.444  37.572  1.00  0.00     0.014 A 
HETATM   11  N1  UNK     1      21.142  -8.613  34.815  1.00  0.00    -0.357 N 
HETATM   12  C9  UNK     1      21.299 -10.627  36.319  1.00  0.00     0.061 A 
HETATM   13  C4  UNK     1      20.319  -7.522  34.733  1.00  0.00     0.013 A 
HETATM   14  H3  UNK     1      21.921  -8.803  34.199  1.00  0.00     0.166 HD
HETATM   15  C8  UNK     1      20.519  -6.496  33.691  1.00  0.00     0.068 C 
HETATM   16  C11 UNK     1      20.691 -11.232  37.422  1.00  0.00     0.026 A 
HETATM   17 Cl1  UNK     1      22.662 -11.353  35.566  1.00  0.00    -0.082 Cl
HETATM   18  C10 UNK     1      19.584 -10.652  38.040  1.00  0.00     0.003 A 
ENDBRANCH   6   7
ENDBRANCH   5   6
ENDBRANCH   2   5
BRANCH   3  19
HETATM   19  C13 UNK     1      19.191  -2.132  35.619  1.00  0.00     0.108 A 
HETATM   20  C15 UNK     1      19.341  -1.927  34.305  1.00  0.00     0.037 A 
HETATM   21  C14 UNK     1      18.957  -0.654  33.714  1.00  0.00     0.002 A 
HETATM   22  C16 UNK     1      18.434   0.339  34.535  1.00  0.00     0.089 A 
HETATM   23  C18 UNK     1      19.095  -0.395  32.348  1.00  0.00     0.051 A 
HETATM   24  O1  UNK     1      18.279   0.117  35.918  1.00  0.00    -0.274 OA
HETATM   25  C19 UNK     1      18.047   1.580  34.032  1.00  0.00     0.041 A 
HETATM   26  C17 UNK     1      18.638  -1.090  36.512  1.00  0.00     0.304 A 
HETATM   27  O4  UNK     1      18.498  -1.275  37.716  1.00  0.00    -0.259 OA
HETATM   28  C21 UNK     1      18.189   1.830  32.668  1.00  0.00     0.039 A 
HETATM   29  C20 UNK     1      18.711   0.844  31.828  1.00  0.00     0.069 A 
BRANCH  29  30
HETATM   30  O3  UNK     1      18.847   1.092  30.496  1.00  0.00    -0.356 OA
HETATM   31  C22 UNK     1      19.823   0.328  29.791  1.00  0.00     0.210 C 
ENDBRANCH  29  30
ENDBRANCH   3  19
TORSDOF 5
ENDMDL
MODEL 10
REMARK VINA RESULT:      -9.2      5.158      8.248
REMARK  5 active torsions:
REMARK  status: ('A' for Active; 'I' for Inactive)
REMARK    1  A    between atoms: C20_27  and  O3_4 
REMARK       I    between atoms: C12_19  and  N2_7 
REMARK    2  A    between atoms: C6_13  and  N2_7 
REMARK    3  A    between atoms: C1_8  and  C2_9 
REMARK    4  A    between atoms: C2_9  and  C6_13 
REMARK    5  A    between atoms: C12_19  and  C13_20 
ROOT
HETATM    1  O2  UNK     1      20.749  -3.393  33.795  1.00  0.00    -0.267 OA
HETATM    2  N2  UNK     1      19.186  -2.155  35.002  1.00  0.00    -0.356 N 
HETATM    3  C12 UNK     1      20.036  -3.222  34.783  1.00  0.00     0.257 C 
HETATM    4  H10 UNK     1      18.662  -2.088  35.869  1.00  0.00     0.162 HD
ENDROOT
BRANCH   2   5
HETATM    5  C6  UNK     1      19.023  -1.070  34.059  1.00  0.00     0.127 C 
BRANCH   5   6
HETATM    6  C2  UNK     1      17.742  -0.273  34.299  1.00  0.00     0.061 C 
BRANCH   6   7
HETATM    7  C1  UNK     1      17.978   1.204  34.430  1.00  0.00    -0.022 A 
HETATM    8  C3  UNK     1      18.132   2.106  33.358  1.00  0.00     0.001 A 
HETATM    9  C5  UNK     1      18.329   3.365  33.930  1.00  0.00     0.065 A 
HETATM   10  C7  UNK     1      18.128   1.992  31.954  1.00  0.00     0.014 A 
HETATM   11  N1  UNK     1      18.289   3.199  35.296  1.00  0.00    -0.357 N 
HETATM   12  C9  UNK     1      18.522   4.520  33.165  1.00  0.00     0.061 A 
HETATM   13  C4  UNK     1      18.075   1.883  35.607  1.00  0.00     0.013 A 
HETATM   14  H3  UNK     1      18.402   3.946  35.969  1.00  0.00     0.166 HD
HETATM   15  C8  UNK     1      17.991   1.438  37.011  1.00  0.00     0.068 C 
HETATM   16  C11 UNK     1      18.514   4.383  31.774  1.00  0.00     0.026 A 
HETATM   17 Cl1  UNK     1      18.762   6.058  33.890  1.00  0.00    -0.082 Cl
HETATM   18  C10 UNK     1      18.320   3.140  31.176  1.00  0.00     0.003 A 
ENDBRANCH   6   7
ENDBRANCH   5   6
ENDBRANCH   2   5
BRANCH   3  19
HETATM   19  C13 UNK     1      20.029  -4.193  35.883  1.00  0.00     0.108 A 
HETATM   20  C15 UNK     1      19.826  -5.472  35.542  1.00  0.00     0.037 A 
HETATM   21  C14 UNK     1      19.803  -6.507  36.564  1.00  0.00     0.002 A 
HETATM   22  C16 UNK     1      19.995  -6.146  37.893  1.00  0.00     0.089 A 
HETATM   23  C18 UNK     1      19.596  -7.854  36.255  1.00  0.00     0.051 A 
HETATM   24  O1  UNK     1      20.207  -4.799  38.246  1.00  0.00    -0.274 OA
HETATM   25  C19 UNK     1      19.983  -7.089  38.919  1.00  0.00     0.041 A 
HETATM   26  C17 UNK     1      20.234  -3.785  37.291  1.00  0.00     0.304 A 
HETATM   27  O4  UNK     1      20.421  -2.616  37.606  1.00  0.00    -0.259 OA
HETATM   28  C21 UNK     1      19.775  -8.430  38.602  1.00  0.00     0.039 A 
HETATM   29  C20 UNK     1      19.582  -8.812  37.273  1.00  0.00     0.069 A 
BRANCH  29  30
HETATM   30  O3  UNK     1      19.379 -10.123  36.967  1.00  0.00    -0.356 OA
HETATM   31  C22 UNK     1      19.684 -11.079  37.980  1.00  0.00     0.210 C 
ENDBRANCH  29  30
ENDBRANCH   3  19
TORSDOF 5
ENDMDL
