MODEL 1
REMARK VINA RESULT:      -7.4      0.000      0.000
REMARK  4 active torsions:
REMARK  status: ('A' for Active; 'I' for Inactive)
REMARK    1  A    between atoms: C4_9  and  O1_1 
REMARK    2  A    between atoms: C7_12  and  O1_1 
REMARK    3  A    between atoms: C13_18  and  O4_4 
REMARK    4  A    between atoms: C13_18  and  C7_12 
ROOT
HETATM    1  O2  UNK     1      16.581   6.181  33.016  1.00  0.00    -0.275 OA
HETATM    2  O3  UNK     1      15.365   7.346  34.563  1.00  0.00    -0.260 OA
HETATM    3  C1  UNK     1      18.956   6.676  32.745  1.00  0.00     0.004 A 
HETATM    4  C2  UNK     1      17.821   5.949  32.388  1.00  0.00     0.092 A 
HETATM    5  C3  UNK     1      18.838   7.698  33.794  1.00  0.00    -0.043 A 
HETATM    6  C4  UNK     1      19.042   4.686  30.747  1.00  0.00     0.072 A 
HETATM    7  C5  UNK     1      17.846   4.961  31.402  1.00  0.00     0.075 A 
HETATM    8  C6  UNK     1      20.151   6.385  32.072  1.00  0.00     0.017 A 
HETATM    9  C8  UNK     1      20.193   5.397  31.082  1.00  0.00     0.038 A 
HETATM   10  C9  UNK     1      17.647   7.897  34.375  1.00  0.00     0.090 A 
HETATM   11  C10 UNK     1      20.042   8.498  34.198  1.00  0.00     0.049 C 
HETATM   12  C11 UNK     1      16.438   7.136  34.011  1.00  0.00     0.288 A 
ENDROOT
BRANCH   6  13
HETATM   13  O1  UNK     1      19.089   3.727  29.783  1.00  0.00    -0.336 OA
BRANCH  13  14
HETATM   14  C7  UNK     1      18.243   2.590  29.956  1.00  0.00     0.222 C 
HETATM   15  C12 UNK     1      17.904   2.044  28.581  1.00  0.00     0.051 C 
BRANCH  14  16
HETATM   16  C13 UNK     1      18.984   1.565  30.788  1.00  0.00     0.170 C 
HETATM   17  O5  UNK     1      18.655   1.207  31.911  1.00  0.00    -0.648 OA
BRANCH  16  18
HETATM   18  O4  UNK     1      20.062   1.056  30.136  1.00  0.00    -0.774 OA
HETATM   19  H12 UNK     1      20.211   1.501  29.275  1.00  0.00     0.167 HD
ENDBRANCH  16  18
ENDBRANCH  14  16
ENDBRANCH  13  14
ENDBRANCH   6  13
TORSDOF 4
ENDMDL
MODEL 2
REMARK VINA RESULT:      -7.4      4.589      7.218
REMARK  4 active torsions:
REMARK  status: ('A' for Active; 'I' for Inactive)
REMARK    1  A    between atoms: C4_9  and  O1_1 
REMARK    2  A    between atoms: C7_12  and  O1_1 
REMARK    3  A    between atoms: C13_18  and  O4_4 
REMARK    4  A    between atoms: C13_18  and  C7_12 
ROOT
HETATM    1  O2  UNK     1      18.440   2.024  31.400  1.00  0.00    -0.275 OA
HETATM    2  O3  UNK     1      18.644   3.116  29.401  1.00  0.00    -0.260 OA
HETATM    3  C1  UNK     1      19.274  -0.261  31.604  1.00  0.00     0.004 A 
HETATM    4  C2  UNK     1      18.657   0.859  32.161  1.00  0.00     0.092 A 
HETATM    5  C3  UNK     1      19.696  -0.207  30.198  1.00  0.00    -0.043 A 
HETATM    6  C4  UNK     1      18.413  -0.231  34.290  1.00  0.00     0.072 A 
HETATM    7  C5  UNK     1      18.225   0.890  33.489  1.00  0.00     0.075 A 
HETATM    8  C6  UNK     1      19.453  -1.381  32.428  1.00  0.00     0.017 A 
HETATM    9  C8  UNK     1      19.027  -1.365  33.761  1.00  0.00     0.038 A 
HETATM   10  C9  UNK     1      19.478   0.916  29.498  1.00  0.00     0.090 A 
HETATM   11  C10 UNK     1      20.362  -1.396  29.569  1.00  0.00     0.049 C 
HETATM   12  C11 UNK     1      18.829   2.107  30.072  1.00  0.00     0.288 A 
ENDROOT
BRANCH   6  13
HETATM   13  O1  UNK     1      18.000  -0.221  35.587  1.00  0.00    -0.336 OA
BRANCH  13  14
HETATM   14  C7  UNK     1      17.316   0.946  36.042  1.00  0.00     0.222 C 
HETATM   15  C12 UNK     1      15.906   0.541  36.431  1.00  0.00     0.051 C 
BRANCH  14  16
HETATM   16  C13 UNK     1      18.072   1.513  37.225  1.00  0.00     0.170 C 
HETATM   17  O5  UNK     1      17.860   1.218  38.394  1.00  0.00    -0.648 OA
BRANCH  16  18
HETATM   18  O4  UNK     1      19.043   2.383  36.846  1.00  0.00    -0.774 OA
HETATM   19  H12 UNK     1      19.841   1.918  36.514  1.00  0.00     0.167 HD
ENDBRANCH  16  18
ENDBRANCH  14  16
ENDBRANCH  13  14
ENDBRANCH   6  13
TORSDOF 4
ENDMDL
MODEL 3
REMARK VINA RESULT:      -7.3      2.139      6.811
REMARK  4 active torsions:
REMARK  status: ('A' for Active; 'I' for Inactive)
REMARK    1  A    between atoms: C4_9  and  O1_1 
REMARK    2  A    between atoms: C7_12  and  O1_1 
REMARK    3  A    between atoms: C13_18  and  O4_4 
REMARK    4  A    between atoms: C13_18  and  C7_12 
ROOT
HETATM    1  O2  UNK     1      19.210  -0.102  32.816  1.00  0.00    -0.275 OA
HETATM    2  O3  UNK     1      19.985  -2.175  33.393  1.00  0.00    -0.260 OA
HETATM    3  C1  UNK     1      19.389   0.637  30.496  1.00  0.00     0.004 A 
HETATM    4  C2  UNK     1      19.004   0.869  31.816  1.00  0.00     0.092 A 
HETATM    5  C3  UNK     1      20.020  -0.648  30.161  1.00  0.00    -0.043 A 
HETATM    6  C4  UNK     1      18.169   3.058  31.275  1.00  0.00     0.072 A 
HETATM    7  C5  UNK     1      18.399   2.061  32.218  1.00  0.00     0.075 A 
HETATM    8  C6  UNK     1      19.150   1.653  29.561  1.00  0.00     0.017 A 
HETATM    9  C8  UNK     1      18.543   2.854  29.948  1.00  0.00     0.038 A 
HETATM   10  C9  UNK     1      20.203  -1.553  31.132  1.00  0.00     0.090 A 
HETATM   11  C10 UNK     1      20.447  -0.927  28.750  1.00  0.00     0.049 C 
HETATM   12  C11 UNK     1      19.800  -1.324  32.531  1.00  0.00     0.288 A 
ENDROOT
BRANCH   6  13
HETATM   13  O1  UNK     1      17.580   4.226  31.646  1.00  0.00    -0.336 OA
BRANCH  13  14
HETATM   14  C7  UNK     1      18.322   5.082  32.515  1.00  0.00     0.222 C 
HETATM   15  C12 UNK     1      19.295   5.881  31.667  1.00  0.00     0.051 C 
BRANCH  14  16
HETATM   16  C13 UNK     1      17.350   5.988  33.240  1.00  0.00     0.170 C 
HETATM   17  O5  UNK     1      16.387   6.537  32.719  1.00  0.00    -0.648 OA
BRANCH  16  18
HETATM   18  O4  UNK     1      17.649   6.115  34.558  1.00  0.00    -0.774 OA
HETATM   19  H12 UNK     1      16.867   5.952  35.128  1.00  0.00     0.167 HD
ENDBRANCH  16  18
ENDBRANCH  14  16
ENDBRANCH  13  14
ENDBRANCH   6  13
TORSDOF 4
ENDMDL
MODEL 4
REMARK VINA RESULT:      -7.3     21.570     24.212
REMARK  4 active torsions:
REMARK  status: ('A' for Active; 'I' for Inactive)
REMARK    1  A    between atoms: C4_9  and  O1_1 
REMARK    2  A    between atoms: C7_12  and  O1_1 
REMARK    3  A    between atoms: C13_18  and  O4_4 
REMARK    4  A    between atoms: C13_18  and  C7_12 
ROOT
HETATM    1  O2  UNK     1      12.847   8.235  10.641  1.00  0.00    -0.275 OA
HETATM    2  O3  UNK     1      14.008   9.636  12.026  1.00  0.00    -0.260 OA
HETATM    3  C1  UNK     1      14.043   6.472   9.449  1.00  0.00     0.004 A 
HETATM    4  C2  UNK     1      12.858   7.143   9.751  1.00  0.00     0.092 A 
HETATM    5  C3  UNK     1      15.291   6.927  10.077  1.00  0.00    -0.043 A 
HETATM    6  C4  UNK     1      11.578   5.703   8.313  1.00  0.00     0.072 A 
HETATM    7  C5  UNK     1      11.630   6.775   9.198  1.00  0.00     0.075 A 
HETATM    8  C6  UNK     1      13.969   5.395   8.555  1.00  0.00     0.017 A 
HETATM    9  C8  UNK     1      12.746   5.014   7.992  1.00  0.00     0.038 A 
HETATM   10  C9  UNK     1      15.250   7.968  10.921  1.00  0.00     0.090 A 
HETATM   11  C10 UNK     1      16.582   6.227   9.771  1.00  0.00     0.049 C 
HETATM   12  C11 UNK     1      14.007   8.687  11.251  1.00  0.00     0.288 A 
ENDROOT
BRANCH   6  13
HETATM   13  O1  UNK     1      10.391   5.328   7.764  1.00  0.00    -0.336 OA
BRANCH  13  14
HETATM   14  C7  UNK     1       9.570   6.362   7.222  1.00  0.00     0.222 C 
HETATM   15  C12 UNK     1       9.711   6.330   5.711  1.00  0.00     0.051 C 
BRANCH  14  16
HETATM   16  C13 UNK     1       8.139   6.108   7.646  1.00  0.00     0.170 C 
HETATM   17  O5  UNK     1       7.719   5.045   8.084  1.00  0.00    -0.648 OA
BRANCH  16  18
HETATM   18  O4  UNK     1       7.358   7.211   7.508  1.00  0.00    -0.774 OA
HETATM   19  H12 UNK     1       7.421   7.593   6.607  1.00  0.00     0.167 HD
ENDBRANCH  16  18
ENDBRANCH  14  16
ENDBRANCH  13  14
ENDBRANCH   6  13
TORSDOF 4
ENDMDL
MODEL 5
REMARK VINA RESULT:      -7.2     22.159     24.539
REMARK  4 active torsions:
REMARK  status: ('A' for Active; 'I' for Inactive)
REMARK    1  A    between atoms: C4_9  and  O1_1 
REMARK    2  A    between atoms: C7_12  and  O1_1 
REMARK    3  A    between atoms: C13_18  and  O4_4 
REMARK    4  A    between atoms: C13_18  and  C7_12 
ROOT
HETATM    1  O2  UNK     1      15.088   5.278   8.789  1.00  0.00    -0.275 OA
HETATM    2  O3  UNK     1      17.322   5.150   9.262  1.00  0.00    -0.260 OA
HETATM    3  C1  UNK     1      13.804   7.192   9.596  1.00  0.00     0.004 A 
HETATM    4  C2  UNK     1      13.873   5.983   8.904  1.00  0.00     0.092 A 
HETATM    5  C3  UNK     1      15.029   7.723  10.210  1.00  0.00    -0.043 A 
HETATM    6  C4  UNK     1      11.531   6.058   8.370  1.00  0.00     0.072 A 
HETATM    7  C5  UNK     1      12.758   5.408   8.292  1.00  0.00     0.075 A 
HETATM    8  C6  UNK     1      12.559   7.831   9.664  1.00  0.00     0.017 A 
HETATM    9  C8  UNK     1      11.431   7.268   9.055  1.00  0.00     0.038 A 
HETATM   10  C9  UNK     1      16.171   7.032  10.084  1.00  0.00     0.090 A 
HETATM   11  C10 UNK     1      14.987   9.021  10.962  1.00  0.00     0.049 C 
HETATM   12  C11 UNK     1      16.260   5.755   9.355  1.00  0.00     0.288 A 
ENDROOT
BRANCH   6  13
HETATM   13  O1  UNK     1      10.431   5.516   7.780  1.00  0.00    -0.336 OA
BRANCH  13  14
HETATM   14  C7  UNK     1       9.542   6.413   7.115  1.00  0.00     0.222 C 
HETATM   15  C12 UNK     1       9.710   6.216   5.619  1.00  0.00     0.051 C 
BRANCH  14  16
HETATM   16  C13 UNK     1       8.128   6.099   7.555  1.00  0.00     0.170 C 
HETATM   17  O5  UNK     1       7.733   4.993   7.900  1.00  0.00    -0.648 OA
BRANCH  16  18
HETATM   18  O4  UNK     1       7.331   7.199   7.550  1.00  0.00    -0.774 OA
HETATM   19  H12 UNK     1       7.463   7.741   6.742  1.00  0.00     0.167 HD
ENDBRANCH  16  18
ENDBRANCH  14  16
ENDBRANCH  13  14
ENDBRANCH   6  13
TORSDOF 4
ENDMDL
MODEL 6
REMARK VINA RESULT:      -7.2     21.600     24.383
REMARK  4 active torsions:
REMARK  status: ('A' for Active; 'I' for Inactive)
REMARK    1  A    between atoms: C4_9  and  O1_1 
REMARK    2  A    between atoms: C7_12  and  O1_1 
REMARK    3  A    between atoms: C13_18  and  O4_4 
REMARK    4  A    between atoms: C13_18  and  C7_12 
ROOT
HETATM    1  O2  UNK     1       9.777   5.569   9.614  1.00  0.00    -0.275 OA
HETATM    2  O3  UNK     1       7.514   5.341   9.379  1.00  0.00    -0.260 OA
HETATM    3  C1  UNK     1      11.128   6.150   7.664  1.00  0.00     0.004 A 
HETATM    4  C2  UNK     1      11.026   5.848   9.023  1.00  0.00     0.092 A 
HETATM    5  C3  UNK     1       9.904   6.170   6.853  1.00  0.00    -0.043 A 
HETATM    6  C4  UNK     1      13.398   6.074   9.338  1.00  0.00     0.072 A 
HETATM    7  C5  UNK     1      12.138   5.807   9.864  1.00  0.00     0.075 A 
HETATM    8  C6  UNK     1      12.406   6.416   7.153  1.00  0.00     0.017 A 
HETATM    9  C8  UNK     1      13.532   6.379   7.985  1.00  0.00     0.038 A 
HETATM   10  C9  UNK     1       8.730   5.902   7.442  1.00  0.00     0.090 A 
HETATM   11  C10 UNK     1       9.982   6.490   5.388  1.00  0.00     0.049 C 
HETATM   12  C11 UNK     1       8.604   5.583   8.874  1.00  0.00     0.288 A 
ENDROOT
BRANCH   6  13
HETATM   13  O1  UNK     1      14.495   6.040  10.142  1.00  0.00    -0.336 OA
BRANCH  13  14
HETATM   14  C7  UNK     1      15.421   7.121  10.024  1.00  0.00     0.222 C 
HETATM   15  C12 UNK     1      15.388   7.910  11.320  1.00  0.00     0.051 C 
BRANCH  14  16
HETATM   16  C13 UNK     1      16.797   6.546   9.765  1.00  0.00     0.170 C 
HETATM   17  O5  UNK     1      17.843   7.178   9.839  1.00  0.00    -0.648 OA
BRANCH  16  18
HETATM   18  O4  UNK     1      16.753   5.224   9.456  1.00  0.00    -0.774 OA
HETATM   19  H12 UNK     1      17.628   4.886   9.171  1.00  0.00     0.167 HD
ENDBRANCH  16  18
ENDBRANCH  14  16
ENDBRANCH  13  14
ENDBRANCH   6  13
TORSDOF 4
ENDMDL
MODEL 7
REMARK VINA RESULT:      -7.2      2.221      6.135
REMARK  4 active torsions:
REMARK  status: ('A' for Active; 'I' for Inactive)
REMARK    1  A    between atoms: C4_9  and  O1_1 
REMARK    2  A    between atoms: C7_12  and  O1_1 
REMARK    3  A    between atoms: C13_18  and  O4_4 
REMARK    4  A    between atoms: C13_18  and  C7_12 
ROOT
HETATM    1  O2  UNK     1      18.217   1.748  33.248  1.00  0.00    -0.275 OA
HETATM    2  O3  UNK     1      18.428  -0.463  33.795  1.00  0.00    -0.260 OA
HETATM    3  C1  UNK     1      18.796   2.481  30.992  1.00  0.00     0.004 A 
HETATM    4  C2  UNK     1      18.344   2.764  32.281  1.00  0.00     0.092 A 
HETATM    5  C3  UNK     1      19.143   1.093  30.657  1.00  0.00    -0.043 A 
HETATM    6  C4  UNK     1      18.097   5.101  31.771  1.00  0.00     0.072 A 
HETATM    7  C5  UNK     1      17.994   4.055  32.682  1.00  0.00     0.075 A 
HETATM    8  C6  UNK     1      18.894   3.548  30.089  1.00  0.00     0.017 A 
HETATM    9  C8  UNK     1      18.546   4.848  30.476  1.00  0.00     0.038 A 
HETATM   10  C9  UNK     1      19.012   0.146  31.596  1.00  0.00     0.090 A 
HETATM   11  C10 UNK     1      19.635   0.757  29.279  1.00  0.00     0.049 C 
HETATM   12  C11 UNK     1      18.534   0.429  32.961  1.00  0.00     0.288 A 
ENDROOT
BRANCH   6  13
HETATM   13  O1  UNK     1      17.760   6.366  32.141  1.00  0.00    -0.336 OA
BRANCH  13  14
HETATM   14  C7  UNK     1      16.407   6.588  32.536  1.00  0.00     0.222 C 
HETATM   15  C12 UNK     1      16.419   7.200  33.926  1.00  0.00     0.051 C 
BRANCH  14  16
HETATM   16  C13 UNK     1      15.762   7.519  31.532  1.00  0.00     0.170 C 
HETATM   17  O5  UNK     1      16.343   8.420  30.942  1.00  0.00    -0.648 OA
BRANCH  16  18
HETATM   18  O4  UNK     1      14.449   7.231  31.333  1.00  0.00    -0.774 OA
HETATM   19  H12 UNK     1      14.084   6.675  32.054  1.00  0.00     0.167 HD
ENDBRANCH  16  18
ENDBRANCH  14  16
ENDBRANCH  13  14
ENDBRANCH   6  13
TORSDOF 4
ENDMDL
MODEL 8
REMARK VINA RESULT:      -7.0      2.240      6.862
REMARK  4 active torsions:
REMARK  status: ('A' for Active; 'I' for Inactive)
REMARK    1  A    between atoms: C4_9  and  O1_1 
REMARK    2  A    between atoms: C7_12  and  O1_1 
REMARK    3  A    between atoms: C13_18  and  O4_4 
REMARK    4  A    between atoms: C13_18  and  C7_12 
ROOT
HETATM    1  O2  UNK     1      19.583   0.940  29.451  1.00  0.00    -0.275 OA
HETATM    2  O3  UNK     1      20.539  -0.674  28.142  1.00  0.00    -0.260 OA
HETATM    3  C1  UNK     1      19.115   0.451  31.797  1.00  0.00     0.004 A 
HETATM    4  C2  UNK     1      19.091   1.329  30.713  1.00  0.00     0.092 A 
HETATM    5  C3  UNK     1      19.664  -0.897  31.601  1.00  0.00    -0.043 A 
HETATM    6  C4  UNK     1      18.088   3.068  32.034  1.00  0.00     0.072 A 
HETATM    7  C5  UNK     1      18.587   2.626  30.813  1.00  0.00     0.075 A 
HETATM    8  C6  UNK     1      18.607   0.915  33.018  1.00  0.00     0.017 A 
HETATM    9  C8  UNK     1      18.098   2.214  33.136  1.00  0.00     0.038 A 
HETATM   10  C9  UNK     1      20.126  -1.240  30.390  1.00  0.00     0.090 A 
HETATM   11  C10 UNK     1      19.701  -1.865  32.748  1.00  0.00     0.049 C 
HETATM   12  C11 UNK     1      20.110  -0.325  29.235  1.00  0.00     0.288 A 
ENDROOT
BRANCH   6  13
HETATM   13  O1  UNK     1      17.593   4.330  32.154  1.00  0.00    -0.336 OA
BRANCH  13  14
HETATM   14  C7  UNK     1      18.539   5.389  32.295  1.00  0.00     0.222 C 
HETATM   15  C12 UNK     1      18.181   6.474  31.295  1.00  0.00     0.051 C 
BRANCH  14  16
HETATM   16  C13 UNK     1      18.471   5.906  33.716  1.00  0.00     0.170 C 
HETATM   17  O5  UNK     1      17.633   6.696  34.132  1.00  0.00    -0.648 OA
BRANCH  16  18
HETATM   18  O4  UNK     1      19.442   5.376  34.504  1.00  0.00    -0.774 OA
HETATM   19  H12 UNK     1      20.089   4.854  33.984  1.00  0.00     0.167 HD
ENDBRANCH  16  18
ENDBRANCH  14  16
ENDBRANCH  13  14
ENDBRANCH   6  13
TORSDOF 4
ENDMDL
MODEL 9
REMARK VINA RESULT:      -7.0      1.725      2.141
REMARK  4 active torsions:
REMARK  status: ('A' for Active; 'I' for Inactive)
REMARK    1  A    between atoms: C4_9  and  O1_1 
REMARK    2  A    between atoms: C7_12  and  O1_1 
REMARK    3  A    between atoms: C13_18  and  O4_4 
REMARK    4  A    between atoms: C13_18  and  C7_12 
ROOT
HETATM    1  O2  UNK     1      16.196   8.353  33.001  1.00  0.00    -0.275 OA
HETATM    2  O3  UNK     1      15.550  10.461  33.611  1.00  0.00    -0.260 OA
HETATM    3  C1  UNK     1      18.509   7.660  33.367  1.00  0.00     0.004 A 
HETATM    4  C2  UNK     1      17.217   7.386  32.916  1.00  0.00     0.092 A 
HETATM    5  C3  UNK     1      18.791   8.986  33.934  1.00  0.00    -0.043 A 
HETATM    6  C4  UNK     1      17.831   5.158  32.256  1.00  0.00     0.072 A 
HETATM    7  C5  UNK     1      16.865   6.153  32.365  1.00  0.00     0.075 A 
HETATM    8  C6  UNK     1      19.467   6.645  33.248  1.00  0.00     0.017 A 
HETATM    9  C8  UNK     1      19.130   5.403  32.697  1.00  0.00     0.038 A 
HETATM   10  C9  UNK     1      17.800   9.886  34.003  1.00  0.00     0.090 A 
HETATM   11  C10 UNK     1      20.171   9.312  34.425  1.00  0.00     0.049 C 
HETATM   12  C11 UNK     1      16.431   9.612  33.533  1.00  0.00     0.288 A 
ENDROOT
BRANCH   6  13
HETATM   13  O1  UNK     1      17.508   3.948  31.721  1.00  0.00    -0.336 OA
BRANCH  13  14
HETATM   14  C7  UNK     1      18.502   2.926  31.781  1.00  0.00     0.222 C 
HETATM   15  C12 UNK     1      18.173   2.019  32.953  1.00  0.00     0.051 C 
BRANCH  14  16
HETATM   16  C13 UNK     1      18.484   2.164  30.473  1.00  0.00     0.170 C 
HETATM   17  O5  UNK     1      17.508   2.058  29.740  1.00  0.00    -0.648 OA
BRANCH  16  18
HETATM   18  O4  UNK     1      19.691   1.616  30.179  1.00  0.00    -0.774 OA
HETATM   19  H12 UNK     1      19.759   1.368  29.233  1.00  0.00     0.167 HD
ENDBRANCH  16  18
ENDBRANCH  14  16
ENDBRANCH  13  14
ENDBRANCH   6  13
TORSDOF 4
ENDMDL
MODEL 10
REMARK VINA RESULT:      -7.0      3.974      6.631
REMARK  4 active torsions:
REMARK  status: ('A' for Active; 'I' for Inactive)
REMARK    1  A    between atoms: C4_9  and  O1_1 
REMARK    2  A    between atoms: C7_12  and  O1_1 
REMARK    3  A    between atoms: C13_18  and  O4_4 
REMARK    4  A    between atoms: C13_18  and  C7_12 
ROOT
HETATM    1  O2  UNK     1      18.873   0.361  30.737  1.00  0.00    -0.275 OA
HETATM    2  O3  UNK     1      19.118   1.189  28.619  1.00  0.00    -0.260 OA
HETATM    3  C1  UNK     1      18.358   1.895  32.566  1.00  0.00     0.004 A 
HETATM    4  C2  UNK     1      18.611   0.604  32.100  1.00  0.00     0.092 A 
HETATM    5  C3  UNK     1      18.371   3.006  31.606  1.00  0.00    -0.043 A 
HETATM    6  C4  UNK     1      18.363  -0.330  34.301  1.00  0.00     0.072 A 
HETATM    7  C5  UNK     1      18.617  -0.507  32.945  1.00  0.00     0.075 A 
HETATM    8  C6  UNK     1      18.105   2.052  33.936  1.00  0.00     0.017 A 
HETATM    9  C8  UNK     1      18.107   0.948  34.796  1.00  0.00     0.038 A 
HETATM   10  C9  UNK     1      18.623   2.745  30.315  1.00  0.00     0.090 A 
HETATM   11  C10 UNK     1      18.104   4.406  32.077  1.00  0.00     0.049 C 
HETATM   12  C11 UNK     1      18.890   1.389  29.807  1.00  0.00     0.288 A 
ENDROOT
BRANCH   6  13
HETATM   13  O1  UNK     1      18.364  -1.399  35.142  1.00  0.00    -0.336 OA
BRANCH  13  14
HETATM   14  C7  UNK     1      19.470  -1.524  36.035  1.00  0.00     0.222 C 
HETATM   15  C12 UNK     1      18.979  -2.208  37.298  1.00  0.00     0.051 C 
BRANCH  14  16
HETATM   16  C13 UNK     1      20.548  -2.339  35.351  1.00  0.00     0.170 C 
HETATM   17  O5  UNK     1      21.704  -1.971  35.189  1.00  0.00    -0.648 OA
BRANCH  16  18
HETATM   18  O4  UNK     1      20.095  -3.554  34.948  1.00  0.00    -0.774 OA
HETATM   19  H12 UNK     1      20.127  -3.650  33.972  1.00  0.00     0.167 HD
ENDBRANCH  16  18
ENDBRANCH  14  16
ENDBRANCH  13  14
ENDBRANCH   6  13
TORSDOF 4
ENDMDL
