MODEL 1
REMARK VINA RESULT:      -8.4      0.000      0.000
REMARK  8 active torsions:
REMARK  status: ('A' for Active; 'I' for Inactive)
REMARK    1  A    between atoms: C2_8  and  O1_1 
REMARK    2  A    between atoms: C9_15  and  O1_1 
REMARK    3  A    between atoms: C3_9  and  O2_2 
REMARK    4  A    between atoms: C15_21  and  N1_6 
REMARK    5  A    between atoms: C1_7  and  C2_8 
REMARK    6  A    between atoms: C5_11  and  C8_14 
REMARK    7  A    between atoms: C10_16  and  C13_19 
REMARK    8  A    between atoms: C13_19  and  C14_20 
ROOT
HETATM    1  C1  UNK     1      17.872   5.360  32.321  1.00  0.00     0.000 A 
HETATM    2  C3  UNK     1      18.483   5.983  31.233  1.00  0.00     0.076 A 
HETATM    3  C4  UNK     1      16.723   5.914  32.887  1.00  0.00     0.023 A 
HETATM    4  C5  UNK     1      16.187   7.090  32.365  1.00  0.00    -0.035 A 
HETATM    5  C6  UNK     1      17.947   7.159  30.712  1.00  0.00     0.038 A 
HETATM    6  C7  UNK     1      16.799   7.714  31.277  1.00  0.00     0.014 A 
ENDROOT
BRANCH   1   7
HETATM    7  C2  UNK     1      18.433   4.100  32.893  1.00  0.00     0.217 C 
BRANCH   7   8
HETATM    8  O1  UNK     1      17.651   2.996  32.457  1.00  0.00    -0.347 OA
BRANCH   8   9
HETATM    9  C9  UNK     1      18.215   2.173  31.516  1.00  0.00     0.069 A 
HETATM   10  C11 UNK     1      18.966   1.069  31.916  1.00  0.00     0.039 A 
HETATM   11  C16 UNK     1      19.539   0.231  30.959  1.00  0.00     0.039 A 
HETATM   12  C15 UNK     1      19.360   0.498  29.601  1.00  0.00     0.103 A 
HETATM   13  C17 UNK     1      18.608   1.604  29.202  1.00  0.00     0.039 A 
HETATM   14  C12 UNK     1      18.036   2.441  30.158  1.00  0.00     0.039 A 
BRANCH  12  15
HETATM   15  N1  UNK     1      19.942  -0.354  28.627  1.00  0.00    -0.116 N 
HETATM   16  O4  UNK     1      19.276  -0.657  27.608  1.00  0.00    -0.532 OA
HETATM   17  O5  UNK     1      21.107  -0.782  28.812  1.00  0.00    -0.532 OA
ENDBRANCH  12  15
ENDBRANCH   8   9
ENDBRANCH   7   8
ENDBRANCH   1   7
BRANCH   2  18
HETATM   18  O2  UNK     1      19.606   5.454  30.670  1.00  0.00    -0.355 OA
HETATM   19  C18 UNK     1      20.859   5.929  31.159  1.00  0.00     0.210 C 
ENDBRANCH   2  18
BRANCH   4  20
HETATM   20  C8  UNK     1      14.974   7.678  32.962  1.00  0.00     0.015 C 
HETATM   21  C10 UNK     1      14.965   8.464  34.048  1.00  0.00     0.056 C 
BRANCH  21  22
HETATM   22  C13 UNK     1      16.246   8.809  34.754  1.00  0.00     0.182 C 
HETATM   23  O3  UNK     1      16.745   8.021  35.572  1.00  0.00    -0.288 OA
BRANCH  22  24
HETATM   24  C14 UNK     1      16.899  10.069  34.435  1.00  0.00     0.014 A 
HETATM   25  C19 UNK     1      16.182  11.263  34.505  1.00  0.00     0.015 A 
HETATM   26  C21 UNK     1      16.808  12.472  34.200  1.00  0.00     0.001 A 
HETATM   27  C23 UNK     1      18.151  12.485  33.825  1.00  0.00     0.000 A 
HETATM   28  C22 UNK     1      18.869  11.291  33.756  1.00  0.00     0.001 A 
HETATM   29  C20 UNK     1      18.242  10.082  34.060  1.00  0.00     0.015 A 
ENDBRANCH  22  24
ENDBRANCH  21  22
ENDBRANCH   4  20
TORSDOF 8
ENDMDL
MODEL 2
REMARK VINA RESULT:      -8.2     13.885     19.736
REMARK  8 active torsions:
REMARK  status: ('A' for Active; 'I' for Inactive)
REMARK    1  A    between atoms: C2_8  and  O1_1 
REMARK    2  A    between atoms: C9_15  and  O1_1 
REMARK    3  A    between atoms: C3_9  and  O2_2 
REMARK    4  A    between atoms: C15_21  and  N1_6 
REMARK    5  A    between atoms: C1_7  and  C2_8 
REMARK    6  A    between atoms: C5_11  and  C8_14 
REMARK    7  A    between atoms: C10_16  and  C13_19 
REMARK    8  A    between atoms: C13_19  and  C14_20 
ROOT
HETATM    1  C1  UNK     1      19.307  -2.578  15.758  1.00  0.00     0.000 A 
HETATM    2  C3  UNK     1      20.601  -2.938  16.132  1.00  0.00     0.076 A 
HETATM    3  C4  UNK     1      18.791  -3.005  14.533  1.00  0.00     0.023 A 
HETATM    4  C5  UNK     1      19.569  -3.790  13.684  1.00  0.00    -0.035 A 
HETATM    5  C6  UNK     1      21.380  -3.723  15.283  1.00  0.00     0.038 A 
HETATM    6  C7  UNK     1      20.865  -4.149  14.059  1.00  0.00     0.014 A 
ENDROOT
BRANCH   1   7
HETATM    7  C2  UNK     1      18.460  -1.737  16.655  1.00  0.00     0.217 C 
BRANCH   7   8
HETATM    8  O1  UNK     1      18.882  -0.383  16.568  1.00  0.00    -0.347 OA
BRANCH   8   9
HETATM    9  C9  UNK     1      19.111   0.270  17.751  1.00  0.00     0.069 A 
HETATM   10  C11 UNK     1      19.385  -0.458  18.908  1.00  0.00     0.039 A 
HETATM   11  C16 UNK     1      19.618   0.206  20.112  1.00  0.00     0.039 A 
HETATM   12  C15 UNK     1      19.577   1.600  20.159  1.00  0.00     0.103 A 
HETATM   13  C17 UNK     1      19.302   2.328  19.001  1.00  0.00     0.039 A 
HETATM   14  C12 UNK     1      19.069   1.664  17.798  1.00  0.00     0.039 A 
BRANCH  12  15
HETATM   15  N1  UNK     1      19.815   2.277  21.384  1.00  0.00    -0.116 N 
HETATM   16  O4  UNK     1      18.840   2.745  22.020  1.00  0.00    -0.532 OA
HETATM   17  O5  UNK     1      20.995   2.388  21.797  1.00  0.00    -0.532 OA
ENDBRANCH  12  15
ENDBRANCH   8   9
ENDBRANCH   7   8
ENDBRANCH   1   7
BRANCH   2  18
HETATM   18  O2  UNK     1      21.120  -2.529  17.324  1.00  0.00    -0.355 OA
HETATM   19  C18 UNK     1      22.311  -3.178  17.768  1.00  0.00     0.210 C 
ENDBRANCH   2  18
BRANCH   4  20
HETATM   20  C8  UNK     1      19.027  -4.241  12.391  1.00  0.00     0.015 C 
HETATM   21  C10 UNK     1      18.676  -5.505  12.112  1.00  0.00     0.056 C 
BRANCH  21  22
HETATM   22  C13 UNK     1      18.821  -6.585  13.147  1.00  0.00     0.182 C 
HETATM   23  O3  UNK     1      19.775  -7.376  13.101  1.00  0.00    -0.288 OA
BRANCH  22  24
HETATM   24  C14 UNK     1      17.837  -6.662  14.215  1.00  0.00     0.014 A 
HETATM   25  C19 UNK     1      18.202  -6.344  15.523  1.00  0.00     0.015 A 
HETATM   26  C21 UNK     1      17.258  -6.418  16.549  1.00  0.00     0.001 A 
HETATM   27  C23 UNK     1      15.950  -6.811  16.265  1.00  0.00     0.000 A 
HETATM   28  C22 UNK     1      15.585  -7.129  14.956  1.00  0.00     0.001 A 
HETATM   29  C20 UNK     1      16.530  -7.055  13.931  1.00  0.00     0.015 A 
ENDBRANCH  22  24
ENDBRANCH  21  22
ENDBRANCH   4  20
TORSDOF 8
ENDMDL
MODEL 3
REMARK VINA RESULT:      -8.2      1.483      2.106
REMARK  8 active torsions:
REMARK  status: ('A' for Active; 'I' for Inactive)
REMARK    1  A    between atoms: C2_8  and  O1_1 
REMARK    2  A    between atoms: C9_15  and  O1_1 
REMARK    3  A    between atoms: C3_9  and  O2_2 
REMARK    4  A    between atoms: C15_21  and  N1_6 
REMARK    5  A    between atoms: C1_7  and  C2_8 
REMARK    6  A    between atoms: C5_11  and  C8_14 
REMARK    7  A    between atoms: C10_16  and  C13_19 
REMARK    8  A    between atoms: C13_19  and  C14_20 
ROOT
HETATM    1  C1  UNK     1      17.984   5.791  32.688  1.00  0.00     0.000 A 
HETATM    2  C3  UNK     1      18.955   6.199  33.603  1.00  0.00     0.076 A 
HETATM    3  C4  UNK     1      16.658   6.192  32.853  1.00  0.00     0.023 A 
HETATM    4  C5  UNK     1      16.303   7.001  33.931  1.00  0.00    -0.035 A 
HETATM    5  C6  UNK     1      18.600   7.009  34.681  1.00  0.00     0.038 A 
HETATM    6  C7  UNK     1      17.274   7.410  34.846  1.00  0.00     0.014 A 
ENDROOT
BRANCH   1   7
HETATM    7  C2  UNK     1      18.347   4.923  31.529  1.00  0.00     0.217 C 
BRANCH   7   8
HETATM    8  O1  UNK     1      17.800   3.626  31.723  1.00  0.00    -0.347 OA
BRANCH   8   9
HETATM    9  C9  UNK     1      18.303   2.620  30.938  1.00  0.00     0.069 A 
HETATM   10  C11 UNK     1      19.045   1.590  31.515  1.00  0.00     0.039 A 
HETATM   11  C16 UNK     1      19.556   0.567  30.718  1.00  0.00     0.039 A 
HETATM   12  C15 UNK     1      19.325   0.573  29.341  1.00  0.00     0.103 A 
HETATM   13  C17 UNK     1      18.584   1.604  28.764  1.00  0.00     0.039 A 
HETATM   14  C12 UNK     1      18.073   2.628  29.562  1.00  0.00     0.039 A 
BRANCH  12  15
HETATM   15  N1  UNK     1      19.845  -0.469  28.529  1.00  0.00    -0.116 N 
HETATM   16  O4  UNK     1      20.977  -0.941  28.796  1.00  0.00    -0.532 OA
HETATM   17  O5  UNK     1      19.158  -0.889  27.567  1.00  0.00    -0.532 OA
ENDBRANCH  12  15
ENDBRANCH   8   9
ENDBRANCH   7   8
ENDBRANCH   1   7
BRANCH   2  18
HETATM   18  O2  UNK     1      20.254   5.815  33.457  1.00  0.00    -0.355 OA
HETATM   19  C18 UNK     1      21.119   6.711  32.762  1.00  0.00     0.210 C 
ENDBRANCH   2  18
BRANCH   4  20
HETATM   20  C8  UNK     1      14.903   7.426  34.107  1.00  0.00     0.015 C 
HETATM   21  C10 UNK     1      14.421   8.626  33.748  1.00  0.00     0.056 C 
BRANCH  21  22
HETATM   22  C13 UNK     1      15.319   9.653  33.118  1.00  0.00     0.182 C 
HETATM   23  O3  UNK     1      15.650   9.554  31.927  1.00  0.00    -0.288 OA
BRANCH  22  24
HETATM   24  C14 UNK     1      15.766  10.776  33.927  1.00  0.00     0.014 A 
HETATM   25  C19 UNK     1      17.125  11.081  34.005  1.00  0.00     0.015 A 
HETATM   26  C21 UNK     1      17.554  12.159  34.781  1.00  0.00     0.001 A 
HETATM   27  C23 UNK     1      16.624  12.931  35.477  1.00  0.00     0.000 A 
HETATM   28  C22 UNK     1      15.264  12.626  35.397  1.00  0.00     0.001 A 
HETATM   29  C20 UNK     1      14.836  11.548  34.622  1.00  0.00     0.015 A 
ENDBRANCH  22  24
ENDBRANCH  21  22
ENDBRANCH   4  20
TORSDOF 8
ENDMDL
MODEL 4
REMARK VINA RESULT:      -8.2      6.452     10.246
REMARK  8 active torsions:
REMARK  status: ('A' for Active; 'I' for Inactive)
REMARK    1  A    between atoms: C2_8  and  O1_1 
REMARK    2  A    between atoms: C9_15  and  O1_1 
REMARK    3  A    between atoms: C3_9  and  O2_2 
REMARK    4  A    between atoms: C15_21  and  N1_6 
REMARK    5  A    between atoms: C1_7  and  C2_8 
REMARK    6  A    between atoms: C5_11  and  C8_14 
REMARK    7  A    between atoms: C10_16  and  C13_19 
REMARK    8  A    between atoms: C13_19  and  C14_20 
ROOT
HETATM    1  C1  UNK     1      19.831  -1.896  35.197  1.00  0.00     0.000 A 
HETATM    2  C3  UNK     1      18.864  -0.898  35.315  1.00  0.00     0.076 A 
HETATM    3  C4  UNK     1      20.125  -2.439  33.945  1.00  0.00     0.023 A 
HETATM    4  C5  UNK     1      19.451  -1.984  32.813  1.00  0.00    -0.035 A 
HETATM    5  C6  UNK     1      18.190  -0.443  34.182  1.00  0.00     0.038 A 
HETATM    6  C7  UNK     1      18.483  -0.986  32.931  1.00  0.00     0.014 A 
ENDROOT
BRANCH   1   7
HETATM    7  C2  UNK     1      20.561  -2.396  36.400  1.00  0.00     0.217 C 
BRANCH   7   8
HETATM    8  O1  UNK     1      19.796  -3.419  37.023  1.00  0.00    -0.347 OA
BRANCH   8   9
HETATM    9  C9  UNK     1      20.332  -4.681  37.017  1.00  0.00     0.069 A 
HETATM   10  C11 UNK     1      21.256  -5.052  37.993  1.00  0.00     0.039 A 
HETATM   11  C16 UNK     1      21.799  -6.336  37.987  1.00  0.00     0.039 A 
HETATM   12  C15 UNK     1      21.418  -7.251  37.005  1.00  0.00     0.103 A 
HETATM   13  C17 UNK     1      20.494  -6.879  36.028  1.00  0.00     0.039 A 
HETATM   14  C12 UNK     1      19.950  -5.595  36.034  1.00  0.00     0.039 A 
BRANCH  12  15
HETATM   15  N1  UNK     1      21.970  -8.558  36.999  1.00  0.00    -0.116 N 
HETATM   16  O4  UNK     1      21.196  -9.546  37.016  1.00  0.00    -0.532 OA
HETATM   17  O5  UNK     1      23.218  -8.690  36.978  1.00  0.00    -0.532 OA
ENDBRANCH  12  15
ENDBRANCH   8   9
ENDBRANCH   7   8
ENDBRANCH   1   7
BRANCH   2  18
HETATM   18  O2  UNK     1      18.565  -0.359  36.530  1.00  0.00    -0.355 OA
HETATM   19  C18 UNK     1      17.273  -0.644  37.064  1.00  0.00     0.210 C 
ENDBRANCH   2  18
BRANCH   4  20
HETATM   20  C8  UNK     1      19.759  -2.555  31.490  1.00  0.00     0.015 C 
HETATM   21  C10 UNK     1      20.224  -1.852  30.447  1.00  0.00     0.056 C 
BRANCH  21  22
HETATM   22  C13 UNK     1      20.469  -0.375  30.569  1.00  0.00     0.182 C 
HETATM   23  O3  UNK     1      21.467   0.049  31.173  1.00  0.00    -0.288 OA
BRANCH  22  24
HETATM   24  C14 UNK     1      19.531   0.542  29.942  1.00  0.00     0.014 A 
HETATM   25  C19 UNK     1      19.014   0.253  28.679  1.00  0.00     0.015 A 
HETATM   26  C21 UNK     1      18.112   1.133  28.077  1.00  0.00     0.001 A 
HETATM   27  C23 UNK     1      17.730   2.299  28.738  1.00  0.00     0.000 A 
HETATM   28  C22 UNK     1      18.247   2.587  30.002  1.00  0.00     0.001 A 
HETATM   29  C20 UNK     1      19.148   1.708  30.604  1.00  0.00     0.015 A 
ENDBRANCH  22  24
ENDBRANCH  21  22
ENDBRANCH   4  20
TORSDOF 8
ENDMDL
MODEL 5
REMARK VINA RESULT:      -8.1     17.310     20.050
REMARK  8 active torsions:
REMARK  status: ('A' for Active; 'I' for Inactive)
REMARK    1  A    between atoms: C2_8  and  O1_1 
REMARK    2  A    between atoms: C9_15  and  O1_1 
REMARK    3  A    between atoms: C3_9  and  O2_2 
REMARK    4  A    between atoms: C15_21  and  N1_6 
REMARK    5  A    between atoms: C1_7  and  C2_8 
REMARK    6  A    between atoms: C5_11  and  C8_14 
REMARK    7  A    between atoms: C10_16  and  C13_19 
REMARK    8  A    between atoms: C13_19  and  C14_20 
ROOT
HETATM    1  C1  UNK     1      29.776  -9.915  38.822  1.00  0.00     0.000 A 
HETATM    2  C3  UNK     1      29.324 -10.540  39.984  1.00  0.00     0.076 A 
HETATM    3  C4  UNK     1      28.987  -8.949  38.198  1.00  0.00     0.023 A 
HETATM    4  C5  UNK     1      27.745  -8.609  38.734  1.00  0.00    -0.035 A 
HETATM    5  C6  UNK     1      28.083 -10.201  40.521  1.00  0.00     0.038 A 
HETATM    6  C7  UNK     1      27.293  -9.236  39.896  1.00  0.00     0.014 A 
ENDROOT
BRANCH   1   7
HETATM    7  C2  UNK     1      31.102 -10.267  38.234  1.00  0.00     0.217 C 
BRANCH   7   8
HETATM    8  O1  UNK     1      31.183  -9.751  36.912  1.00  0.00    -0.347 OA
BRANCH   8   9
HETATM    9  C9  UNK     1      32.225  -8.902  36.643  1.00  0.00     0.069 A 
HETATM   10  C11 UNK     1      32.760  -8.840  35.357  1.00  0.00     0.039 A 
HETATM   11  C16 UNK     1      33.819  -7.976  35.083  1.00  0.00     0.039 A 
HETATM   12  C15 UNK     1      34.344  -7.172  36.096  1.00  0.00     0.103 A 
HETATM   13  C17 UNK     1      33.809  -7.235  37.383  1.00  0.00     0.039 A 
HETATM   14  C12 UNK     1      32.749  -8.099  37.657  1.00  0.00     0.039 A 
BRANCH  12  15
HETATM   15  N1  UNK     1      35.422  -6.291  35.818  1.00  0.00    -0.116 N 
HETATM   16  O4  UNK     1      36.449  -6.745  35.257  1.00  0.00    -0.532 OA
HETATM   17  O5  UNK     1      35.318  -5.083  36.140  1.00  0.00    -0.532 OA
ENDBRANCH  12  15
ENDBRANCH   8   9
ENDBRANCH   7   8
ENDBRANCH   1   7
BRANCH   2  18
HETATM   18  O2  UNK     1      30.083 -11.487  40.606  1.00  0.00    -0.355 OA
HETATM   19  C18 UNK     1      29.982 -11.566  42.027  1.00  0.00     0.210 C 
ENDBRANCH   2  18
BRANCH   4  20
HETATM   20  C8  UNK     1      26.910  -7.590  38.076  1.00  0.00     0.015 C 
HETATM   21  C10 UNK     1      27.237  -6.294  37.967  1.00  0.00     0.056 C 
BRANCH  21  22
HETATM   22  C13 UNK     1      28.530  -5.780  38.533  1.00  0.00     0.182 C 
HETATM   23  O3  UNK     1      28.682  -5.677  39.760  1.00  0.00    -0.288 OA
BRANCH  22  24
HETATM   24  C14 UNK     1      29.605  -5.436  37.616  1.00  0.00     0.014 A 
HETATM   25  C19 UNK     1      30.565  -4.497  37.989  1.00  0.00     0.015 A 
HETATM   26  C21 UNK     1      31.597  -4.166  37.108  1.00  0.00     0.001 A 
HETATM   27  C23 UNK     1      31.666  -4.775  35.856  1.00  0.00     0.000 A 
HETATM   28  C22 UNK     1      30.705  -5.716  35.483  1.00  0.00     0.001 A 
HETATM   29  C20 UNK     1      29.673  -6.046  36.363  1.00  0.00     0.015 A 
ENDBRANCH  22  24
ENDBRANCH  21  22
ENDBRANCH   4  20
TORSDOF 8
ENDMDL
MODEL 6
REMARK VINA RESULT:      -8.1     16.284     19.347
REMARK  8 active torsions:
REMARK  status: ('A' for Active; 'I' for Inactive)
REMARK    1  A    between atoms: C2_8  and  O1_1 
REMARK    2  A    between atoms: C9_15  and  O1_1 
REMARK    3  A    between atoms: C3_9  and  O2_2 
REMARK    4  A    between atoms: C15_21  and  N1_6 
REMARK    5  A    between atoms: C1_7  and  C2_8 
REMARK    6  A    between atoms: C5_11  and  C8_14 
REMARK    7  A    between atoms: C10_16  and  C13_19 
REMARK    8  A    between atoms: C13_19  and  C14_20 
ROOT
HETATM    1  C1  UNK     1      31.981  -6.765  33.847  1.00  0.00     0.000 A 
HETATM    2  C3  UNK     1      32.383  -8.070  33.563  1.00  0.00     0.076 A 
HETATM    3  C4  UNK     1      30.638  -6.406  33.720  1.00  0.00     0.023 A 
HETATM    4  C5  UNK     1      29.700  -7.351  33.307  1.00  0.00    -0.035 A 
HETATM    5  C6  UNK     1      31.445  -9.015  33.150  1.00  0.00     0.038 A 
HETATM    6  C7  UNK     1      30.103  -8.656  33.022  1.00  0.00     0.014 A 
ENDROOT
BRANCH   1   7
HETATM    7  C2  UNK     1      32.972  -5.741  34.289  1.00  0.00     0.217 C 
BRANCH   7   8
HETATM    8  O1  UNK     1      33.221  -5.895  35.680  1.00  0.00    -0.347 OA
BRANCH   8   9
HETATM    9  C9  UNK     1      32.240  -5.463  36.535  1.00  0.00     0.069 A 
HETATM   10  C11 UNK     1      31.808  -4.138  36.488  1.00  0.00     0.039 A 
HETATM   11  C16 UNK     1      30.809  -3.699  37.356  1.00  0.00     0.039 A 
HETATM   12  C15 UNK     1      30.242  -4.585  38.273  1.00  0.00     0.103 A 
HETATM   13  C17 UNK     1      30.675  -5.911  38.320  1.00  0.00     0.039 A 
HETATM   14  C12 UNK     1      31.673  -6.350  37.451  1.00  0.00     0.039 A 
BRANCH  12  15
HETATM   15  N1  UNK     1      29.225  -4.139  39.157  1.00  0.00    -0.116 N 
HETATM   16  O4  UNK     1      28.025  -4.375  38.873  1.00  0.00    -0.532 OA
HETATM   17  O5  UNK     1      29.553  -3.518  40.197  1.00  0.00    -0.532 OA
ENDBRANCH  12  15
ENDBRANCH   8   9
ENDBRANCH   7   8
ENDBRANCH   1   7
BRANCH   2  18
HETATM   18  O2  UNK     1      33.690  -8.437  33.682  1.00  0.00    -0.355 OA
HETATM   19  C18 UNK     1      33.977  -9.834  33.639  1.00  0.00     0.210 C 
ENDBRANCH   2  18
BRANCH   4  20
HETATM   20  C8  UNK     1      28.282  -6.974  33.172  1.00  0.00     0.015 C 
HETATM   21  C10 UNK     1      27.719  -6.525  32.040  1.00  0.00     0.056 C 
BRANCH  21  22
HETATM   22  C13 UNK     1      28.536  -6.373  30.787  1.00  0.00     0.182 C 
HETATM   23  O3  UNK     1      29.047  -5.281  30.498  1.00  0.00    -0.288 OA
BRANCH  22  24
HETATM   24  C14 UNK     1      28.737  -7.539  29.941  1.00  0.00     0.014 A 
HETATM   25  C19 UNK     1      27.718  -8.481  29.800  1.00  0.00     0.015 A 
HETATM   26  C21 UNK     1      27.910  -9.600  28.988  1.00  0.00     0.001 A 
HETATM   27  C23 UNK     1      29.121  -9.775  28.319  1.00  0.00     0.000 A 
HETATM   28  C22 UNK     1      30.140  -8.832  28.459  1.00  0.00     0.001 A 
HETATM   29  C20 UNK     1      29.947  -7.714  29.272  1.00  0.00     0.015 A 
ENDBRANCH  22  24
ENDBRANCH  21  22
ENDBRANCH   4  20
TORSDOF 8
ENDMDL
MODEL 7
REMARK VINA RESULT:      -8.0      3.496      9.511
REMARK  8 active torsions:
REMARK  status: ('A' for Active; 'I' for Inactive)
REMARK    1  A    between atoms: C2_8  and  O1_1 
REMARK    2  A    between atoms: C9_15  and  O1_1 
REMARK    3  A    between atoms: C3_9  and  O2_2 
REMARK    4  A    between atoms: C15_21  and  N1_6 
REMARK    5  A    between atoms: C1_7  and  C2_8 
REMARK    6  A    between atoms: C5_11  and  C8_14 
REMARK    7  A    between atoms: C10_16  and  C13_19 
REMARK    8  A    between atoms: C13_19  and  C14_20 
ROOT
HETATM    1  C1  UNK     1      18.138   6.110  32.837  1.00  0.00     0.000 A 
HETATM    2  C3  UNK     1      19.445   6.466  33.171  1.00  0.00     0.076 A 
HETATM    3  C4  UNK     1      17.878   5.465  31.627  1.00  0.00     0.023 A 
HETATM    4  C5  UNK     1      18.925   5.177  30.752  1.00  0.00    -0.035 A 
HETATM    5  C6  UNK     1      20.491   6.178  32.296  1.00  0.00     0.038 A 
HETATM    6  C7  UNK     1      20.232   5.533  31.086  1.00  0.00     0.014 A 
ENDROOT
BRANCH   1   7
HETATM    7  C2  UNK     1      17.006   6.412  33.762  1.00  0.00     0.217 C 
BRANCH   7   8
HETATM    8  O1  UNK     1      16.078   7.268  33.107  1.00  0.00    -0.347 OA
BRANCH   8   9
HETATM    9  C9  UNK     1      15.840   8.484  33.693  1.00  0.00     0.069 A 
HETATM   10  C11 UNK     1      14.557   8.806  34.135  1.00  0.00     0.039 A 
HETATM   11  C16 UNK     1      14.315  10.043  34.731  1.00  0.00     0.039 A 
HETATM   12  C15 UNK     1      15.356  10.959  34.887  1.00  0.00     0.103 A 
HETATM   13  C17 UNK     1      16.639  10.636  34.444  1.00  0.00     0.039 A 
HETATM   14  C12 UNK     1      16.882   9.400  33.847  1.00  0.00     0.039 A 
BRANCH  12  15
HETATM   15  N1  UNK     1      15.110  12.218  35.495  1.00  0.00    -0.116 N 
HETATM   16  O4  UNK     1      14.064  12.843  35.197  1.00  0.00    -0.532 OA
HETATM   17  O5  UNK     1      15.947  12.671  36.313  1.00  0.00    -0.532 OA
ENDBRANCH  12  15
ENDBRANCH   8   9
ENDBRANCH   7   8
ENDBRANCH   1   7
BRANCH   2  18
HETATM   18  O2  UNK     1      19.715   7.098  34.348  1.00  0.00    -0.355 OA
HETATM   19  C18 UNK     1      20.090   8.472  34.273  1.00  0.00     0.210 C 
ENDBRANCH   2  18
BRANCH   4  20
HETATM   20  C8  UNK     1      18.652   4.496  29.474  1.00  0.00     0.015 C 
HETATM   21  C10 UNK     1      18.438   3.178  29.345  1.00  0.00     0.056 C 
BRANCH  21  22
HETATM   22  C13 UNK     1      18.464   2.277  30.547  1.00  0.00     0.182 C 
HETATM   23  O3  UNK     1      17.868   2.599  31.587  1.00  0.00    -0.288 OA
BRANCH  22  24
HETATM   24  C14 UNK     1      19.176   1.013  30.455  1.00  0.00     0.014 A 
HETATM   25  C19 UNK     1      19.815   0.658  29.268  1.00  0.00     0.015 A 
HETATM   26  C21 UNK     1      20.499  -0.556  29.179  1.00  0.00     0.001 A 
HETATM   27  C23 UNK     1      20.542  -1.413  30.279  1.00  0.00     0.000 A 
HETATM   28  C22 UNK     1      19.902  -1.057  31.467  1.00  0.00     0.001 A 
HETATM   29  C20 UNK     1      19.219   0.156  31.555  1.00  0.00     0.015 A 
ENDBRANCH  22  24
ENDBRANCH  21  22
ENDBRANCH   4  20
TORSDOF 8
ENDMDL
MODEL 8
REMARK VINA RESULT:      -7.9      6.295      9.023
REMARK  8 active torsions:
REMARK  status: ('A' for Active; 'I' for Inactive)
REMARK    1  A    between atoms: C2_8  and  O1_1 
REMARK    2  A    between atoms: C9_15  and  O1_1 
REMARK    3  A    between atoms: C3_9  and  O2_2 
REMARK    4  A    between atoms: C15_21  and  N1_6 
REMARK    5  A    between atoms: C1_7  and  C2_8 
REMARK    6  A    between atoms: C5_11  and  C8_14 
REMARK    7  A    between atoms: C10_16  and  C13_19 
REMARK    8  A    between atoms: C13_19  and  C14_20 
ROOT
HETATM    1  C1  UNK     1      19.919  -2.280  35.075  1.00  0.00     0.000 A 
HETATM    2  C3  UNK     1      20.190  -2.353  33.709  1.00  0.00     0.076 A 
HETATM    3  C4  UNK     1      18.874  -1.477  35.537  1.00  0.00     0.023 A 
HETATM    4  C5  UNK     1      18.102  -0.749  34.633  1.00  0.00    -0.035 A 
HETATM    5  C6  UNK     1      19.418  -1.625  32.805  1.00  0.00     0.038 A 
HETATM    6  C7  UNK     1      18.374  -0.823  33.266  1.00  0.00     0.014 A 
ENDROOT
BRANCH   1   7
HETATM    7  C2  UNK     1      20.736  -3.052  36.057  1.00  0.00     0.217 C 
BRANCH   7   8
HETATM    8  O1  UNK     1      19.926  -4.052  36.661  1.00  0.00    -0.347 OA
BRANCH   8   9
HETATM    9  C9  UNK     1      20.261  -5.356  36.403  1.00  0.00     0.069 A 
HETATM   10  C11 UNK     1      19.819  -5.971  35.233  1.00  0.00     0.039 A 
HETATM   11  C16 UNK     1      20.160  -7.297  34.970  1.00  0.00     0.039 A 
HETATM   12  C15 UNK     1      20.944  -8.010  35.879  1.00  0.00     0.103 A 
HETATM   13  C17 UNK     1      21.385  -7.394  37.050  1.00  0.00     0.039 A 
HETATM   14  C12 UNK     1      21.044  -6.068  37.313  1.00  0.00     0.039 A 
BRANCH  12  15
HETATM   15  N1  UNK     1      21.292  -9.360  35.611  1.00  0.00    -0.116 N 
HETATM   16  O4  UNK     1      21.268 -10.192  36.550  1.00  0.00    -0.532 OA
HETATM   17  O5  UNK     1      21.616  -9.683  34.443  1.00  0.00    -0.532 OA
ENDBRANCH  12  15
ENDBRANCH   8   9
ENDBRANCH   7   8
ENDBRANCH   1   7
BRANCH   2  18
HETATM   18  O2  UNK     1      21.207  -3.131  33.242  1.00  0.00    -0.355 OA
HETATM   19  C18 UNK     1      21.149  -3.516  31.870  1.00  0.00     0.210 C 
ENDBRANCH   2  18
BRANCH   4  20
HETATM   20  C8  UNK     1      17.000   0.098  35.118  1.00  0.00     0.015 C 
HETATM   21  C10 UNK     1      17.070   1.430  35.260  1.00  0.00     0.056 C 
BRANCH  21  22
HETATM   22  C13 UNK     1      18.332   2.171  34.917  1.00  0.00     0.182 C 
HETATM   23  O3  UNK     1      19.358   2.013  35.597  1.00  0.00    -0.288 OA
BRANCH  22  24
HETATM   24  C14 UNK     1      18.331   3.050  33.759  1.00  0.00     0.014 A 
HETATM   25  C19 UNK     1      18.414   4.431  33.933  1.00  0.00     0.015 A 
HETATM   26  C21 UNK     1      18.413   5.276  32.822  1.00  0.00     0.001 A 
HETATM   27  C23 UNK     1      18.329   4.738  31.538  1.00  0.00     0.000 A 
HETATM   28  C22 UNK     1      18.246   3.355  31.364  1.00  0.00     0.001 A 
HETATM   29  C20 UNK     1      18.247   2.512  32.475  1.00  0.00     0.015 A 
ENDBRANCH  22  24
ENDBRANCH  21  22
ENDBRANCH   4  20
TORSDOF 8
ENDMDL
MODEL 9
REMARK VINA RESULT:      -7.9     16.452     19.730
REMARK  8 active torsions:
REMARK  status: ('A' for Active; 'I' for Inactive)
REMARK    1  A    between atoms: C2_8  and  O1_1 
REMARK    2  A    between atoms: C9_15  and  O1_1 
REMARK    3  A    between atoms: C3_9  and  O2_2 
REMARK    4  A    between atoms: C15_21  and  N1_6 
REMARK    5  A    between atoms: C1_7  and  C2_8 
REMARK    6  A    between atoms: C5_11  and  C8_14 
REMARK    7  A    between atoms: C10_16  and  C13_19 
REMARK    8  A    between atoms: C13_19  and  C14_20 
ROOT
HETATM    1  C1  UNK     1      32.973  -7.932  35.070  1.00  0.00     0.000 A 
HETATM    2  C3  UNK     1      32.979  -6.752  34.326  1.00  0.00     0.076 A 
HETATM    3  C4  UNK     1      32.448  -9.102  34.519  1.00  0.00     0.023 A 
HETATM    4  C5  UNK     1      31.928  -9.091  33.225  1.00  0.00    -0.035 A 
HETATM    5  C6  UNK     1      32.460  -6.741  33.032  1.00  0.00     0.038 A 
HETATM    6  C7  UNK     1      31.934  -7.910  32.482  1.00  0.00     0.014 A 
ENDROOT
BRANCH   1   7
HETATM    7  C2  UNK     1      33.524  -7.962  36.457  1.00  0.00     0.217 C 
BRANCH   7   8
HETATM    8  O1  UNK     1      32.504  -8.367  37.360  1.00  0.00    -0.347 OA
BRANCH   8   9
HETATM    9  C9  UNK     1      31.667  -7.387  37.826  1.00  0.00     0.069 A 
HETATM   10  C11 UNK     1      30.308  -7.651  37.992  1.00  0.00     0.039 A 
HETATM   11  C16 UNK     1      29.456  -6.655  38.467  1.00  0.00     0.039 A 
HETATM   12  C15 UNK     1      29.963  -5.392  38.777  1.00  0.00     0.103 A 
HETATM   13  C17 UNK     1      31.323  -5.128  38.611  1.00  0.00     0.039 A 
HETATM   14  C12 UNK     1      32.175  -6.125  38.136  1.00  0.00     0.039 A 
BRANCH  12  15
HETATM   15  N1  UNK     1      29.097  -4.378  39.261  1.00  0.00    -0.116 N 
HETATM   16  O4  UNK     1      27.908  -4.350  38.859  1.00  0.00    -0.532 OA
HETATM   17  O5  UNK     1      29.543  -3.536  40.078  1.00  0.00    -0.532 OA
ENDBRANCH  12  15
ENDBRANCH   8   9
ENDBRANCH   7   8
ENDBRANCH   1   7
BRANCH   2  18
HETATM   18  O2  UNK     1      33.487  -5.602  34.850  1.00  0.00    -0.355 OA
HETATM   19  C18 UNK     1      32.652  -4.446  34.805  1.00  0.00     0.210 C 
ENDBRANCH   2  18
BRANCH   4  20
HETATM   20  C8  UNK     1      31.373 -10.324  32.642  1.00  0.00     0.015 C 
HETATM   21  C10 UNK     1      30.070 -10.641  32.631  1.00  0.00     0.056 C 
BRANCH  21  22
HETATM   22  C13 UNK     1      29.053  -9.717  33.240  1.00  0.00     0.182 C 
HETATM   23  O3  UNK     1      28.712  -9.850  34.426  1.00  0.00    -0.288 OA
BRANCH  22  24
HETATM   24  C14 UNK     1      28.502  -8.650  32.420  1.00  0.00     0.014 A 
HETATM   25  C19 UNK     1      28.206  -8.885  31.078  1.00  0.00     0.015 A 
HETATM   26  C21 UNK     1      27.676  -7.862  30.290  1.00  0.00     0.001 A 
HETATM   27  C23 UNK     1      27.444  -6.604  30.846  1.00  0.00     0.000 A 
HETATM   28  C22 UNK     1      27.740  -6.369  32.190  1.00  0.00     0.001 A 
HETATM   29  C20 UNK     1      28.270  -7.393  32.976  1.00  0.00     0.015 A 
ENDBRANCH  22  24
ENDBRANCH  21  22
ENDBRANCH   4  20
TORSDOF 8
ENDMDL
MODEL 10
REMARK VINA RESULT:      -7.9     22.608     24.528
REMARK  8 active torsions:
REMARK  status: ('A' for Active; 'I' for Inactive)
REMARK    1  A    between atoms: C2_8  and  O1_1 
REMARK    2  A    between atoms: C9_15  and  O1_1 
REMARK    3  A    between atoms: C3_9  and  O2_2 
REMARK    4  A    between atoms: C15_21  and  N1_6 
REMARK    5  A    between atoms: C1_7  and  C2_8 
REMARK    6  A    between atoms: C5_11  and  C8_14 
REMARK    7  A    between atoms: C10_16  and  C13_19 
REMARK    8  A    between atoms: C13_19  and  C14_20 
ROOT
HETATM    1  C1  UNK     1      12.841   7.230   9.422  1.00  0.00     0.000 A 
HETATM    2  C3  UNK     1      13.514   6.011   9.505  1.00  0.00     0.076 A 
HETATM    3  C4  UNK     1      11.765   7.374   8.545  1.00  0.00     0.023 A 
HETATM    4  C5  UNK     1      11.364   6.301   7.751  1.00  0.00    -0.035 A 
HETATM    5  C6  UNK     1      13.113   4.938   8.711  1.00  0.00     0.038 A 
HETATM    6  C7  UNK     1      12.038   5.082   7.834  1.00  0.00     0.014 A 
ENDROOT
BRANCH   1   7
HETATM    7  C2  UNK     1      13.258   8.390  10.264  1.00  0.00     0.217 C 
BRANCH   7   8
HETATM    8  O1  UNK     1      13.521   9.508   9.428  1.00  0.00    -0.347 OA
BRANCH   8   9
HETATM    9  C9  UNK     1      14.834   9.875   9.281  1.00  0.00     0.069 A 
HETATM   10  C11 UNK     1      15.179  10.897   8.398  1.00  0.00     0.039 A 
HETATM   11  C16 UNK     1      16.514  11.270   8.249  1.00  0.00     0.039 A 
HETATM   12  C15 UNK     1      17.506  10.620   8.984  1.00  0.00     0.103 A 
HETATM   13  C17 UNK     1      17.161   9.597   9.867  1.00  0.00     0.039 A 
HETATM   14  C12 UNK     1      15.826   9.224  10.016  1.00  0.00     0.039 A 
BRANCH  12  15
HETATM   15  N1  UNK     1      18.866  11.000   8.834  1.00  0.00    -0.116 N 
HETATM   16  O4  UNK     1      19.539  11.271   9.858  1.00  0.00    -0.532 OA
HETATM   17  O5  UNK     1      19.356  11.056   7.680  1.00  0.00    -0.532 OA
ENDBRANCH  12  15
ENDBRANCH   8   9
ENDBRANCH   7   8
ENDBRANCH   1   7
BRANCH   2  18
HETATM   18  O2  UNK     1      14.567   5.854  10.356  1.00  0.00    -0.355 OA
HETATM   19  C18 UNK     1      15.818   5.486   9.777  1.00  0.00     0.210 C 
ENDBRANCH   2  18
BRANCH   4  20
HETATM   20  C8  UNK     1      10.229   6.451   6.824  1.00  0.00     0.015 C 
HETATM   21  C10 UNK     1       8.945   6.252   7.155  1.00  0.00     0.056 C 
BRANCH  21  22
HETATM   22  C13 UNK     1       8.569   5.845   8.552  1.00  0.00     0.182 C 
HETATM   23  O3  UNK     1       8.750   4.680   8.938  1.00  0.00    -0.288 OA
BRANCH  22  24
HETATM   24  C14 UNK     1       8.018   6.851   9.446  1.00  0.00     0.014 A 
HETATM   25  C19 UNK     1       8.648   8.089   9.575  1.00  0.00     0.015 A 
HETATM   26  C21 UNK     1       8.119   9.054  10.433  1.00  0.00     0.001 A 
HETATM   27  C23 UNK     1       6.962   8.780  11.161  1.00  0.00     0.000 A 
HETATM   28  C22 UNK     1       6.332   7.542  11.032  1.00  0.00     0.001 A 
HETATM   29  C20 UNK     1       6.861   6.577  10.175  1.00  0.00     0.015 A 
ENDBRANCH  22  24
ENDBRANCH  21  22
ENDBRANCH   4  20
TORSDOF 8
ENDMDL
