MODEL 1
REMARK VINA RESULT:      -7.1      0.000      0.000
REMARK  2 active torsions:
REMARK  status: ('A' for Active; 'I' for Inactive)
REMARK    1  A    between atoms: C12_15  and  O2_2 
REMARK    2  A    between atoms: C4_7  and  O2_2 
ROOT
HETATM    1  O1  UNK     1      19.291  -0.390  32.825  1.00  0.00    -0.274 OA
HETATM    2  O3  UNK     1      20.120  -2.483  33.228  1.00  0.00    -0.260 OA
HETATM    3  C1  UNK     1      19.442   0.540  30.572  1.00  0.00     0.005 A 
HETATM    4  C2  UNK     1      19.058   0.654  31.908  1.00  0.00     0.099 A 
HETATM    5  C3  UNK     1      18.426   1.794  32.408  1.00  0.00     0.006 A 
HETATM    6  C4  UNK     1      18.168   2.858  31.550  1.00  0.00     0.077 A 
HETATM    7  C5  UNK     1      20.102  -0.698  30.132  1.00  0.00    -0.043 A 
HETATM    8  C6  UNK     1      19.174   1.623  29.723  1.00  0.00     0.017 A 
HETATM    9  C7  UNK     1      18.541   2.772  30.210  1.00  0.00     0.038 A 
HETATM   10  C8  UNK     1      18.028   1.877  33.845  1.00  0.00     0.054 C 
HETATM   11  C9  UNK     1      20.311  -1.673  31.026  1.00  0.00     0.090 A 
HETATM   12  C10 UNK     1      20.528  -0.850  28.701  1.00  0.00     0.049 C 
HETATM   13  C11 UNK     1      19.911  -1.569  32.439  1.00  0.00     0.288 A 
ENDROOT
BRANCH   6  14
HETATM   14  O2  UNK     1      17.553   3.987  31.999  1.00  0.00    -0.351 OA
BRANCH  14  15
HETATM   15  C12 UNK     1      18.327   5.185  32.016  1.00  0.00     0.171 C 
HETATM   16  C13 UNK     1      18.638   5.550  33.452  1.00  0.00     0.034 C 
ENDBRANCH  14  15
ENDBRANCH   6  14
TORSDOF 2
ENDMDL
MODEL 2
REMARK VINA RESULT:      -6.8      1.703      2.802
REMARK  2 active torsions:
REMARK  status: ('A' for Active; 'I' for Inactive)
REMARK    1  A    between atoms: C12_15  and  O2_2 
REMARK    2  A    between atoms: C4_7  and  O2_2 
ROOT
HETATM    1  O1  UNK     1      19.648   0.903  29.541  1.00  0.00    -0.274 OA
HETATM    2  O3  UNK     1      20.628  -0.683  28.217  1.00  0.00    -0.260 OA
HETATM    3  C1  UNK     1      19.147   0.369  31.871  1.00  0.00     0.005 A 
HETATM    4  C2  UNK     1      19.136   1.266  30.803  1.00  0.00     0.099 A 
HETATM    5  C3  UNK     1      18.625   2.560  30.920  1.00  0.00     0.006 A 
HETATM    6  C4  UNK     1      18.106   2.976  32.142  1.00  0.00     0.077 A 
HETATM    7  C5  UNK     1      19.706  -0.974  31.658  1.00  0.00    -0.043 A 
HETATM    8  C6  UNK     1      18.620   0.807  33.094  1.00  0.00     0.017 A 
HETATM    9  C7  UNK     1      18.104   2.101  33.226  1.00  0.00     0.038 A 
HETATM   10  C8  UNK     1      18.633   3.491  29.752  1.00  0.00     0.054 C 
HETATM   11  C9  UNK     1      20.185  -1.291  30.448  1.00  0.00     0.090 A 
HETATM   12  C10 UNK     1      19.731  -1.961  32.787  1.00  0.00     0.049 C 
HETATM   13  C11 UNK     1      20.182  -0.356  29.310  1.00  0.00     0.288 A 
ENDROOT
BRANCH   6  14
HETATM   14  O2  UNK     1      17.599   4.231  32.296  1.00  0.00    -0.351 OA
BRANCH  14  15
HETATM   15  C12 UNK     1      18.205   5.056  33.289  1.00  0.00     0.171 C 
HETATM   16  C13 UNK     1      19.245   5.937  32.631  1.00  0.00     0.034 C 
ENDBRANCH  14  15
ENDBRANCH   6  14
TORSDOF 2
ENDMDL
MODEL 3
REMARK VINA RESULT:      -6.5      2.045      4.842
REMARK  2 active torsions:
REMARK  status: ('A' for Active; 'I' for Inactive)
REMARK    1  A    between atoms: C12_15  and  O2_2 
REMARK    2  A    between atoms: C4_7  and  O2_2 
ROOT
HETATM    1  O1  UNK     1      18.428   1.394  31.581  1.00  0.00    -0.274 OA
HETATM    2  O3  UNK     1      18.135   2.901  29.887  1.00  0.00    -0.260 OA
HETATM    3  C1  UNK     1      19.782  -0.600  31.186  1.00  0.00     0.005 A 
HETATM    4  C2  UNK     1      18.997   0.185  32.031  1.00  0.00     0.099 A 
HETATM    5  C3  UNK     1      18.732  -0.175  33.353  1.00  0.00     0.006 A 
HETATM    6  C4  UNK     1      19.266  -1.359  33.853  1.00  0.00     0.077 A 
HETATM    7  C5  UNK     1      20.009  -0.142  29.808  1.00  0.00    -0.043 A 
HETATM    8  C6  UNK     1      20.312  -1.788  31.709  1.00  0.00     0.017 A 
HETATM    9  C7  UNK     1      20.055  -2.162  33.032  1.00  0.00     0.038 A 
HETATM   10  C8  UNK     1      17.886   0.693  34.226  1.00  0.00     0.054 C 
HETATM   11  C9  UNK     1      19.456   1.011  29.409  1.00  0.00     0.090 A 
HETATM   12  C10 UNK     1      20.850  -0.965  28.876  1.00  0.00     0.049 C 
HETATM   13  C11 UNK     1      18.625   1.852  30.287  1.00  0.00     0.288 A 
ENDROOT
BRANCH   6  14
HETATM   14  O2  UNK     1      19.032  -1.745  35.138  1.00  0.00    -0.351 OA
BRANCH  14  15
HETATM   15  C12 UNK     1      20.143  -2.250  35.875  1.00  0.00     0.171 C 
HETATM   16  C13 UNK     1      19.762  -3.577  36.495  1.00  0.00     0.034 C 
ENDBRANCH  14  15
ENDBRANCH   6  14
TORSDOF 2
ENDMDL
MODEL 4
REMARK VINA RESULT:      -6.5      1.942      3.654
REMARK  2 active torsions:
REMARK  status: ('A' for Active; 'I' for Inactive)
REMARK    1  A    between atoms: C12_15  and  O2_2 
REMARK    2  A    between atoms: C4_7  and  O2_2 
ROOT
HETATM    1  O1  UNK     1      18.508   0.637  31.987  1.00  0.00    -0.274 OA
HETATM    2  O3  UNK     1      18.680  -1.604  32.406  1.00  0.00    -0.260 OA
HETATM    3  C1  UNK     1      18.313   2.192  33.861  1.00  0.00     0.005 A 
HETATM    4  C2  UNK     1      18.381   1.948  32.489  1.00  0.00     0.099 A 
HETATM    5  C3  UNK     1      18.328   2.976  31.545  1.00  0.00     0.006 A 
HETATM    6  C4  UNK     1      18.203   4.291  31.981  1.00  0.00     0.077 A 
HETATM    7  C5  UNK     1      18.377   1.049  34.783  1.00  0.00    -0.043 A 
HETATM    8  C6  UNK     1      18.188   3.524  34.280  1.00  0.00     0.017 A 
HETATM    9  C7  UNK     1      18.134   4.564  33.346  1.00  0.00     0.038 A 
HETATM   10  C8  UNK     1      18.404   2.674  30.085  1.00  0.00     0.054 C 
HETATM   11  C9  UNK     1      18.498  -0.186  34.277  1.00  0.00     0.090 A 
HETATM   12  C10 UNK     1      18.306   1.278  36.264  1.00  0.00     0.049 C 
HETATM   13  C11 UNK     1      18.570  -0.460  32.832  1.00  0.00     0.288 A 
ENDROOT
BRANCH   6  14
HETATM   14  O2  UNK     1      18.150   5.321  31.092  1.00  0.00    -0.351 OA
BRANCH  14  15
HETATM   15  C12 UNK     1      19.194   6.290  31.159  1.00  0.00     0.171 C 
HETATM   16  C13 UNK     1      20.305   5.884  30.215  1.00  0.00     0.034 C 
ENDBRANCH  14  15
ENDBRANCH   6  14
TORSDOF 2
ENDMDL
MODEL 5
REMARK VINA RESULT:      -6.5      3.509      7.421
REMARK  2 active torsions:
REMARK  status: ('A' for Active; 'I' for Inactive)
REMARK    1  A    between atoms: C12_15  and  O2_2 
REMARK    2  A    between atoms: C4_7  and  O2_2 
ROOT
HETATM    1  O1  UNK     1      18.945  -0.213  33.900  1.00  0.00    -0.274 OA
HETATM    2  O3  UNK     1      18.148   1.684  32.903  1.00  0.00    -0.260 OA
HETATM    3  C1  UNK     1      18.418  -0.640  36.246  1.00  0.00     0.005 A 
HETATM    4  C2  UNK     1      19.039  -1.016  35.055  1.00  0.00     0.099 A 
HETATM    5  C3  UNK     1      19.779  -2.194  34.938  1.00  0.00     0.006 A 
HETATM    6  C4  UNK     1      19.907  -3.027  36.045  1.00  0.00     0.077 A 
HETATM    7  C5  UNK     1      17.658   0.617  36.279  1.00  0.00    -0.043 A 
HETATM    8  C6  UNK     1      18.558  -1.494  37.350  1.00  0.00     0.017 A 
HETATM    9  C7  UNK     1      19.297  -2.677  37.248  1.00  0.00     0.038 A 
HETATM   10  C8  UNK     1      20.428  -2.561  33.644  1.00  0.00     0.054 C 
HETATM   11  C9  UNK     1      17.586   1.360  35.166  1.00  0.00     0.090 A 
HETATM   12  C10 UNK     1      16.979   1.048  37.546  1.00  0.00     0.049 C 
HETATM   13  C11 UNK     1      18.235   0.978  33.900  1.00  0.00     0.288 A 
ENDROOT
BRANCH   6  14
HETATM   14  O2  UNK     1      20.619  -4.185  35.970  1.00  0.00    -0.351 OA
BRANCH  14  15
HETATM   15  C12 UNK     1      19.952  -5.383  36.363  1.00  0.00     0.171 C 
HETATM   16  C13 UNK     1      19.881  -6.320  35.177  1.00  0.00     0.034 C 
ENDBRANCH  14  15
ENDBRANCH   6  14
TORSDOF 2
ENDMDL
MODEL 6
REMARK VINA RESULT:      -6.5      3.715      8.533
REMARK  2 active torsions:
REMARK  status: ('A' for Active; 'I' for Inactive)
REMARK    1  A    between atoms: C12_15  and  O2_2 
REMARK    2  A    between atoms: C4_7  and  O2_2 
ROOT
HETATM    1  O1  UNK     1      16.739   9.230  33.298  1.00  0.00    -0.274 OA
HETATM    2  O3  UNK     1      16.435  11.423  33.867  1.00  0.00    -0.260 OA
HETATM    3  C1  UNK     1      18.933   8.206  33.619  1.00  0.00     0.005 A 
HETATM    4  C2  UNK     1      17.602   8.118  33.212  1.00  0.00     0.099 A 
HETATM    5  C3  UNK     1      17.053   6.940  32.703  1.00  0.00     0.006 A 
HETATM    6  C4  UNK     1      17.856   5.810  32.594  1.00  0.00     0.077 A 
HETATM    7  C5  UNK     1      19.427   9.487  34.144  1.00  0.00    -0.043 A 
HETATM    8  C6  UNK     1      19.726   7.055  33.502  1.00  0.00     0.017 A 
HETATM    9  C7  UNK     1      19.190   5.868  32.994  1.00  0.00     0.038 A 
HETATM   10  C8  UNK     1      15.622   6.887  32.278  1.00  0.00     0.054 C 
HETATM   11  C9  UNK     1      18.584  10.526  34.214  1.00  0.00     0.090 A 
HETATM   12  C10 UNK     1      20.854   9.612  34.590  1.00  0.00     0.049 C 
HETATM   13  C11 UNK     1      17.176  10.451  33.789  1.00  0.00     0.288 A 
ENDROOT
BRANCH   6  14
HETATM   14  O2  UNK     1      17.357   4.641  32.104  1.00  0.00    -0.351 OA
BRANCH  14  15
HETATM   15  C12 UNK     1      18.253   3.534  32.029  1.00  0.00     0.171 C 
HETATM   16  C13 UNK     1      18.578   3.259  30.577  1.00  0.00     0.034 C 
ENDBRANCH  14  15
ENDBRANCH   6  14
TORSDOF 2
ENDMDL
MODEL 7
REMARK VINA RESULT:      -6.3      5.096      8.237
REMARK  2 active torsions:
REMARK  status: ('A' for Active; 'I' for Inactive)
REMARK    1  A    between atoms: C12_15  and  O2_2 
REMARK    2  A    between atoms: C4_7  and  O2_2 
ROOT
HETATM    1  O1  UNK     1      15.745   6.618  32.385  1.00  0.00    -0.274 OA
HETATM    2  O3  UNK     1      13.535   6.916  31.883  1.00  0.00    -0.260 OA
HETATM    3  C1  UNK     1      17.000   8.456  33.391  1.00  0.00     0.005 A 
HETATM    4  C2  UNK     1      16.942   7.150  32.906  1.00  0.00     0.099 A 
HETATM    5  C3  UNK     1      18.052   6.303  32.908  1.00  0.00     0.006 A 
HETATM    6  C4  UNK     1      19.262   6.773  33.410  1.00  0.00     0.077 A 
HETATM    7  C5  UNK     1      15.781   9.278  33.350  1.00  0.00    -0.043 A 
HETATM    8  C6  UNK     1      18.228   8.910  33.893  1.00  0.00     0.017 A 
HETATM    9  C7  UNK     1      19.349   8.073  33.902  1.00  0.00     0.038 A 
HETATM   10  C8  UNK     1      17.949   4.910  32.381  1.00  0.00     0.054 C 
HETATM   11  C9  UNK     1      14.658   8.746  32.850  1.00  0.00     0.090 A 
HETATM   12  C10 UNK     1      15.812  10.687  33.864  1.00  0.00     0.049 C 
HETATM   13  C11 UNK     1      14.580   7.368  32.334  1.00  0.00     0.288 A 
ENDROOT
BRANCH   6  14
HETATM   14  O2  UNK     1      20.367   5.976  33.431  1.00  0.00    -0.351 OA
BRANCH  14  15
HETATM   15  C12 UNK     1      21.470   6.378  32.622  1.00  0.00     0.171 C 
HETATM   16  C13 UNK     1      21.222   5.938  31.195  1.00  0.00     0.034 C 
ENDBRANCH  14  15
ENDBRANCH   6  14
TORSDOF 2
ENDMDL
MODEL 8
REMARK VINA RESULT:      -6.3      5.260      6.766
REMARK  2 active torsions:
REMARK  status: ('A' for Active; 'I' for Inactive)
REMARK    1  A    between atoms: C12_15  and  O2_2 
REMARK    2  A    between atoms: C4_7  and  O2_2 
ROOT
HETATM    1  O1  UNK     1      17.912   6.040  31.108  1.00  0.00    -0.274 OA
HETATM    2  O3  UNK     1      18.761   4.939  29.293  1.00  0.00    -0.260 OA
HETATM    3  C1  UNK     1      19.432   6.794  32.865  1.00  0.00     0.005 A 
HETATM    4  C2  UNK     1      18.143   6.681  32.342  1.00  0.00     0.099 A 
HETATM    5  C3  UNK     1      17.023   7.189  33.000  1.00  0.00     0.006 A 
HETATM    6  C4  UNK     1      17.189   7.832  34.223  1.00  0.00     0.077 A 
HETATM    7  C5  UNK     1      20.554   6.229  32.103  1.00  0.00    -0.043 A 
HETATM    8  C6  UNK     1      19.578   7.446  34.098  1.00  0.00     0.017 A 
HETATM    9  C7  UNK     1      18.464   7.961  34.769  1.00  0.00     0.038 A 
HETATM   10  C8  UNK     1      15.660   7.048  32.406  1.00  0.00     0.054 C 
HETATM   11  C9  UNK     1      20.304   5.626  30.933  1.00  0.00     0.090 A 
HETATM   12  C10 UNK     1      21.951   6.335  32.640  1.00  0.00     0.049 C 
HETATM   13  C11 UNK     1      18.951   5.498  30.366  1.00  0.00     0.288 A 
ENDROOT
BRANCH   6  14
HETATM   14  O2  UNK     1      16.120   8.343  34.896  1.00  0.00    -0.351 OA
BRANCH  14  15
HETATM   15  C12 UNK     1      15.889   9.746  34.775  1.00  0.00     0.171 C 
HETATM   16  C13 UNK     1      14.404   9.988  34.607  1.00  0.00     0.034 C 
ENDBRANCH  14  15
ENDBRANCH   6  14
TORSDOF 2
ENDMDL
MODEL 9
REMARK VINA RESULT:      -6.3      2.299      5.228
REMARK  2 active torsions:
REMARK  status: ('A' for Active; 'I' for Inactive)
REMARK    1  A    between atoms: C12_15  and  O2_2 
REMARK    2  A    between atoms: C4_7  and  O2_2 
ROOT
HETATM    1  O1  UNK     1      18.687   0.956  31.096  1.00  0.00    -0.274 OA
HETATM    2  O3  UNK     1      18.745   1.906  29.018  1.00  0.00    -0.260 OA
HETATM    3  C1  UNK     1      18.304   2.373  33.048  1.00  0.00     0.005 A 
HETATM    4  C2  UNK     1      18.535   1.117  32.489  1.00  0.00     0.099 A 
HETATM    5  C3  UNK     1      18.627  -0.040  33.264  1.00  0.00     0.006 A 
HETATM    6  C4  UNK     1      18.485   0.056  34.645  1.00  0.00     0.077 A 
HETATM    7  C5  UNK     1      18.222   3.538  32.155  1.00  0.00    -0.043 A 
HETATM    8  C6  UNK     1      18.164   2.449  34.441  1.00  0.00     0.017 A 
HETATM    9  C7  UNK     1      18.254   1.298  35.231  1.00  0.00     0.038 A 
HETATM   10  C8  UNK     1      18.874  -1.368  32.627  1.00  0.00     0.054 C 
HETATM   11  C9  UNK     1      18.370   3.355  30.836  1.00  0.00     0.090 A 
HETATM   12  C10 UNK     1      17.975   4.903  32.727  1.00  0.00     0.049 C 
HETATM   13  C11 UNK     1      18.613   2.035  30.229  1.00  0.00     0.288 A 
ENDROOT
BRANCH   6  14
HETATM   14  O2  UNK     1      18.567  -1.050  35.436  1.00  0.00    -0.351 OA
BRANCH  14  15
HETATM   15  C12 UNK     1      17.483  -1.288  36.331  1.00  0.00     0.171 C 
HETATM   16  C13 UNK     1      18.016  -1.346  37.747  1.00  0.00     0.034 C 
ENDBRANCH  14  15
ENDBRANCH   6  14
TORSDOF 2
ENDMDL
MODEL 10
REMARK VINA RESULT:      -6.3      1.355      5.437
REMARK  2 active torsions:
REMARK  status: ('A' for Active; 'I' for Inactive)
REMARK    1  A    between atoms: C12_15  and  O2_2 
REMARK    2  A    between atoms: C4_7  and  O2_2 
ROOT
HETATM    1  O1  UNK     1      17.932   4.215  33.548  1.00  0.00    -0.274 OA
HETATM    2  O3  UNK     1      17.537   6.308  34.378  1.00  0.00    -0.260 OA
HETATM    3  C1  UNK     1      18.610   3.963  31.215  1.00  0.00     0.005 A 
HETATM    4  C2  UNK     1      18.302   3.404  32.456  1.00  0.00     0.099 A 
HETATM    5  C3  UNK     1      18.344   2.028  32.686  1.00  0.00     0.006 A 
HETATM    6  C4  UNK     1      18.703   1.177  31.646  1.00  0.00     0.077 A 
HETATM    7  C5  UNK     1      18.541   5.423  31.063  1.00  0.00    -0.043 A 
HETATM    8  C6  UNK     1      18.970   3.088  30.180  1.00  0.00     0.017 A 
HETATM    9  C7  UNK     1      19.015   1.707  30.396  1.00  0.00     0.038 A 
HETATM   10  C8  UNK     1      18.008   1.469  34.030  1.00  0.00     0.054 C 
HETATM   11  C9  UNK     1      18.186   6.168  32.119  1.00  0.00     0.090 A 
HETATM   12  C10 UNK     1      18.865   6.053  29.741  1.00  0.00     0.049 C 
HETATM   13  C11 UNK     1      17.858   5.595  33.435  1.00  0.00     0.288 A 
ENDROOT
BRANCH   6  14
HETATM   14  O2  UNK     1      18.756  -0.171  31.831  1.00  0.00    -0.351 OA
BRANCH  14  15
HETATM   15  C12 UNK     1      19.848  -0.865  31.230  1.00  0.00     0.171 C 
HETATM   16  C13 UNK     1      20.274  -1.997  32.141  1.00  0.00     0.034 C 
ENDBRANCH  14  15
ENDBRANCH   6  14
TORSDOF 2
ENDMDL
