MODEL 1
REMARK VINA RESULT:      -8.3      0.000      0.000
REMARK  5 active torsions:
REMARK  status: ('A' for Active; 'I' for Inactive)
REMARK    1  A    between atoms: C5_11  and  O2_2 
REMARK    2  A    between atoms: C9_15  and  O3_3 
REMARK    3  A    between atoms: C13_19  and  O4_4 
REMARK    4  A    between atoms: C14_20  and  O6_6 
REMARK    5  A    between atoms: C3_9  and  C4_10 
ROOT
HETATM    1  O1  UNK     1      17.252   7.268  32.600  1.00  0.00    -0.306 OA
HETATM    2  O5  UNK     1      20.435   8.970  34.490  1.00  0.00    -0.287 OA
HETATM    3  C1  UNK     1      17.128   8.515  33.160  1.00  0.00     0.126 A 
HETATM    4  C2  UNK     1      18.175   9.155  33.820  1.00  0.00     0.051 A 
HETATM    5  C3  UNK     1      18.476   6.624  32.686  1.00  0.00     0.090 A 
HETATM    6  C5  UNK     1      15.886   9.142  33.050  1.00  0.00     0.136 A 
HETATM    7  C6  UNK     1      19.473   8.469  33.923  1.00  0.00     0.187 A 
HETATM    8  C7  UNK     1      19.556   7.132  33.301  1.00  0.00     0.093 A 
HETATM    9  C8  UNK     1      17.992  10.425  34.372  1.00  0.00     0.021 A 
HETATM   10  C9  UNK     1      15.700  10.411  33.600  1.00  0.00     0.104 A 
HETATM   11  C11 UNK     1      16.751  11.050  34.260  1.00  0.00     0.041 A 
ENDROOT
BRANCH   5  12
HETATM   12  C4  UNK     1      18.497   5.290  32.055  1.00  0.00     0.001 A 
HETATM   13  C10 UNK     1      18.127   4.160  32.787  1.00  0.00     0.054 A 
HETATM   14  C13 UNK     1      18.148   2.899  32.191  1.00  0.00     0.102 A 
HETATM   15  C14 UNK     1      18.540   2.765  30.859  1.00  0.00     0.101 A 
HETATM   16  C15 UNK     1      18.911   3.891  30.124  1.00  0.00     0.040 A 
HETATM   17  C12 UNK     1      18.890   5.151  30.721  1.00  0.00     0.017 A 
BRANCH  14  18
HETATM   18  O4  UNK     1      17.783   1.807  32.918  1.00  0.00    -0.353 OA
HETATM   19  C18 UNK     1      18.102   1.817  34.307  1.00  0.00     0.210 C 
ENDBRANCH  14  18
BRANCH  15  20
HETATM   20  O6  UNK     1      18.562   1.539  30.264  1.00  0.00    -0.353 OA
HETATM   21  C19 UNK     1      18.139   1.471  28.904  1.00  0.00     0.210 C 
ENDBRANCH  15  20
ENDBRANCH   5  12
BRANCH   6  22
HETATM   22  O2  UNK     1      14.857   8.522  32.406  1.00  0.00    -0.351 OA
HETATM   23  C16 UNK     1      14.064   7.619  33.174  1.00  0.00     0.210 C 
ENDBRANCH   6  22
BRANCH  10  24
HETATM   24  O3  UNK     1      14.493  11.037  33.500  1.00  0.00    -0.353 OA
HETATM   25  C17 UNK     1      13.714  11.135  34.690  1.00  0.00     0.210 C 
ENDBRANCH  10  24
TORSDOF 5
ENDMDL
MODEL 2
REMARK VINA RESULT:      -8.3      4.693      9.355
REMARK  5 active torsions:
REMARK  status: ('A' for Active; 'I' for Inactive)
REMARK    1  A    between atoms: C5_11  and  O2_2 
REMARK    2  A    between atoms: C9_15  and  O3_3 
REMARK    3  A    between atoms: C13_19  and  O4_4 
REMARK    4  A    between atoms: C14_20  and  O6_6 
REMARK    5  A    between atoms: C3_9  and  C4_10 
ROOT
HETATM    1  O1  UNK     1      19.085   0.104  34.278  1.00  0.00    -0.306 OA
HETATM    2  O5  UNK     1      16.221   0.547  37.142  1.00  0.00    -0.287 OA
HETATM    3  C1  UNK     1      19.015  -0.788  35.318  1.00  0.00     0.126 A 
HETATM    4  C2  UNK     1      18.061  -0.695  36.331  1.00  0.00     0.051 A 
HETATM    5  C3  UNK     1      18.159   1.135  34.228  1.00  0.00     0.090 A 
HETATM    6  C5  UNK     1      19.954  -1.819  35.337  1.00  0.00     0.136 A 
HETATM    7  C6  UNK     1      17.084   0.404  36.287  1.00  0.00     0.187 A 
HETATM    8  C7  UNK     1      17.199   1.334  35.145  1.00  0.00     0.093 A 
HETATM    9  C8  UNK     1      18.037  -1.632  37.367  1.00  0.00     0.021 A 
HETATM   10  C9  UNK     1      19.933  -2.757  36.370  1.00  0.00     0.104 A 
HETATM   11  C11 UNK     1      18.976  -2.663  37.383  1.00  0.00     0.041 A 
ENDROOT
BRANCH   5  12
HETATM   12  C4  UNK     1      18.327   2.037  33.071  1.00  0.00     0.001 A 
HETATM   13  C10 UNK     1      18.625   1.514  31.810  1.00  0.00     0.054 A 
HETATM   14  C13 UNK     1      18.785   2.366  30.717  1.00  0.00     0.102 A 
HETATM   15  C14 UNK     1      18.648   3.744  30.882  1.00  0.00     0.101 A 
HETATM   16  C15 UNK     1      18.352   4.270  32.139  1.00  0.00     0.040 A 
HETATM   17  C12 UNK     1      18.192   3.418  33.232  1.00  0.00     0.017 A 
BRANCH  14  18
HETATM   18  O4  UNK     1      19.073   1.841  29.494  1.00  0.00    -0.353 OA
HETATM   19  C18 UNK     1      17.969   1.451  28.681  1.00  0.00     0.210 C 
ENDBRANCH  14  18
BRANCH  15  20
HETATM   20  O6  UNK     1      18.800   4.586  29.822  1.00  0.00    -0.353 OA
HETATM   21  C19 UNK     1      19.531   5.789  30.049  1.00  0.00     0.210 C 
ENDBRANCH  15  20
ENDBRANCH   5  12
BRANCH   6  22
HETATM   22  O2  UNK     1      20.890  -1.916  34.351  1.00  0.00    -0.351 OA
HETATM   23  C16 UNK     1      20.520  -2.634  33.175  1.00  0.00     0.210 C 
ENDBRANCH   6  22
BRANCH  10  24
HETATM   24  O3  UNK     1      20.843  -3.771  36.403  1.00  0.00    -0.353 OA
HETATM   25  C17 UNK     1      20.691  -4.744  37.433  1.00  0.00     0.210 C 
ENDBRANCH  10  24
TORSDOF 5
ENDMDL
MODEL 3
REMARK VINA RESULT:      -8.3      1.907      8.017
REMARK  5 active torsions:
REMARK  status: ('A' for Active; 'I' for Inactive)
REMARK    1  A    between atoms: C5_11  and  O2_2 
REMARK    2  A    between atoms: C9_15  and  O3_3 
REMARK    3  A    between atoms: C13_19  and  O4_4 
REMARK    4  A    between atoms: C14_20  and  O6_6 
REMARK    5  A    between atoms: C3_9  and  C4_10 
ROOT
HETATM    1  O1  UNK     1      18.116   3.146  33.181  1.00  0.00    -0.306 OA
HETATM    2  O5  UNK     1      19.219   1.655  29.553  1.00  0.00    -0.287 OA
HETATM    3  C1  UNK     1      18.335   1.799  33.033  1.00  0.00     0.126 A 
HETATM    4  C2  UNK     1      18.714   1.224  31.821  1.00  0.00     0.051 A 
HETATM    5  C3  UNK     1      18.290   3.969  32.079  1.00  0.00     0.090 A 
HETATM    6  C5  UNK     1      18.160   0.997  34.161  1.00  0.00     0.136 A 
HETATM    7  C6  UNK     1      18.890   2.092  30.647  1.00  0.00     0.187 A 
HETATM    8  C7  UNK     1      18.647   3.534  30.859  1.00  0.00     0.093 A 
HETATM    9  C8  UNK     1      18.923  -0.154  31.729  1.00  0.00     0.021 A 
HETATM   10  C9  UNK     1      18.368  -0.379  34.072  1.00  0.00     0.104 A 
HETATM   11  C11 UNK     1      18.748  -0.954  32.858  1.00  0.00     0.041 A 
ENDROOT
BRANCH   5  12
HETATM   12  C4  UNK     1      18.026   5.396  32.348  1.00  0.00     0.001 A 
HETATM   13  C10 UNK     1      16.824   5.977  31.938  1.00  0.00     0.054 A 
HETATM   14  C13 UNK     1      16.574   7.326  32.192  1.00  0.00     0.102 A 
HETATM   15  C14 UNK     1      17.527   8.097  32.857  1.00  0.00     0.101 A 
HETATM   16  C15 UNK     1      18.728   7.521  33.267  1.00  0.00     0.040 A 
HETATM   17  C12 UNK     1      18.978   6.172  33.013  1.00  0.00     0.017 A 
BRANCH  14  18
HETATM   18  O4  UNK     1      15.397   7.877  31.788  1.00  0.00    -0.353 OA
HETATM   19  C18 UNK     1      14.201   7.323  32.331  1.00  0.00     0.210 C 
ENDBRANCH  14  18
BRANCH  15  20
HETATM   20  O6  UNK     1      17.294   9.416  33.113  1.00  0.00    -0.353 OA
HETATM   21  C19 UNK     1      18.261  10.104  33.902  1.00  0.00     0.210 C 
ENDBRANCH  15  20
ENDBRANCH   5  12
BRANCH   6  22
HETATM   22  O2  UNK     1      17.788   1.554  35.349  1.00  0.00    -0.351 OA
HETATM   23  C16 UNK     1      18.834   1.942  36.237  1.00  0.00     0.210 C 
ENDBRANCH   6  22
BRANCH  10  24
HETATM   24  O3  UNK     1      18.201  -1.176  35.165  1.00  0.00    -0.353 OA
HETATM   25  C17 UNK     1      19.378  -1.739  35.742  1.00  0.00     0.210 C 
ENDBRANCH  10  24
TORSDOF 5
ENDMDL
MODEL 4
REMARK VINA RESULT:      -8.0      3.457      9.058
REMARK  5 active torsions:
REMARK  status: ('A' for Active; 'I' for Inactive)
REMARK    1  A    between atoms: C5_11  and  O2_2 
REMARK    2  A    between atoms: C9_15  and  O3_3 
REMARK    3  A    between atoms: C13_19  and  O4_4 
REMARK    4  A    between atoms: C14_20  and  O6_6 
REMARK    5  A    between atoms: C3_9  and  C4_10 
ROOT
HETATM    1  O1  UNK     1      18.885   0.650  34.451  1.00  0.00    -0.306 OA
HETATM    2  O5  UNK     1      17.184   1.120  38.123  1.00  0.00    -0.287 OA
HETATM    3  C1  UNK     1      18.909  -0.384  35.353  1.00  0.00     0.126 A 
HETATM    4  C2  UNK     1      18.347  -0.291  36.625  1.00  0.00     0.051 A 
HETATM    5  C3  UNK     1      18.265   1.834  34.819  1.00  0.00     0.090 A 
HETATM    6  C5  UNK     1      19.533  -1.566  34.952  1.00  0.00     0.136 A 
HETATM    7  C6  UNK     1      17.697   0.967  37.023  1.00  0.00     0.187 A 
HETATM    8  C7  UNK     1      17.694   2.047  36.015  1.00  0.00     0.093 A 
HETATM    9  C8  UNK     1      18.401  -1.376  37.503  1.00  0.00     0.021 A 
HETATM   10  C9  UNK     1      19.589  -2.652  35.826  1.00  0.00     0.104 A 
HETATM   11  C11 UNK     1      19.024  -2.556  37.099  1.00  0.00     0.041 A 
ENDROOT
BRANCH   5  12
HETATM   12  C4  UNK     1      18.300   2.878  33.777  1.00  0.00     0.001 A 
HETATM   13  C10 UNK     1      18.368   4.226  34.135  1.00  0.00     0.054 A 
HETATM   14  C13 UNK     1      18.400   5.213  33.150  1.00  0.00     0.102 A 
HETATM   15  C14 UNK     1      18.364   4.854  31.802  1.00  0.00     0.101 A 
HETATM   16  C15 UNK     1      18.296   3.509  31.441  1.00  0.00     0.040 A 
HETATM   17  C12 UNK     1      18.264   2.522  32.426  1.00  0.00     0.017 A 
BRANCH  14  18
HETATM   18  O4  UNK     1      18.468   6.523  33.515  1.00  0.00    -0.353 OA
HETATM   19  C18 UNK     1      17.403   7.028  34.318  1.00  0.00     0.210 C 
ENDBRANCH  14  18
BRANCH  15  20
HETATM   20  O6  UNK     1      18.398   5.809  30.831  1.00  0.00    -0.353 OA
HETATM   21  C19 UNK     1      19.565   5.863  30.014  1.00  0.00     0.210 C 
ENDBRANCH  15  20
ENDBRANCH   5  12
BRANCH   6  22
HETATM   22  O2  UNK     1      20.086  -1.664  33.710  1.00  0.00    -0.351 OA
HETATM   23  C16 UNK     1      19.195  -1.612  32.598  1.00  0.00     0.210 C 
ENDBRANCH   6  22
BRANCH  10  24
HETATM   24  O3  UNK     1      20.195  -3.813  35.449  1.00  0.00    -0.353 OA
HETATM   25  C17 UNK     1      19.900  -4.977  36.218  1.00  0.00     0.210 C 
ENDBRANCH  10  24
TORSDOF 5
ENDMDL
MODEL 5
REMARK VINA RESULT:      -7.9      1.926      7.989
REMARK  5 active torsions:
REMARK  status: ('A' for Active; 'I' for Inactive)
REMARK    1  A    between atoms: C5_11  and  O2_2 
REMARK    2  A    between atoms: C9_15  and  O3_3 
REMARK    3  A    between atoms: C13_19  and  O4_4 
REMARK    4  A    between atoms: C14_20  and  O6_6 
REMARK    5  A    between atoms: C3_9  and  C4_10 
ROOT
HETATM    1  O1  UNK     1      18.064   3.193  33.201  1.00  0.00    -0.306 OA
HETATM    2  O5  UNK     1      19.222   1.799  29.552  1.00  0.00    -0.287 OA
HETATM    3  C1  UNK     1      18.309   1.854  33.027  1.00  0.00     0.126 A 
HETATM    4  C2  UNK     1      18.708   1.311  31.807  1.00  0.00     0.051 A 
HETATM    5  C3  UNK     1      18.232   4.042  32.118  1.00  0.00     0.090 A 
HETATM    6  C5  UNK     1      18.139   1.026  34.137  1.00  0.00     0.136 A 
HETATM    7  C6  UNK     1      18.876   2.207  30.652  1.00  0.00     0.187 A 
HETATM    8  C7  UNK     1      18.606   3.639  30.892  1.00  0.00     0.093 A 
HETATM    9  C8  UNK     1      18.942  -0.061  31.687  1.00  0.00     0.021 A 
HETATM   10  C9  UNK     1      18.373  -0.345  34.021  1.00  0.00     0.104 A 
HETATM   11  C11 UNK     1      18.773  -0.887  32.798  1.00  0.00     0.041 A 
ENDROOT
BRANCH   5  12
HETATM   12  C4  UNK     1      17.940   5.458  32.414  1.00  0.00     0.001 A 
HETATM   13  C10 UNK     1      18.579   6.099  33.478  1.00  0.00     0.054 A 
HETATM   14  C13 UNK     1      18.302   7.437  33.759  1.00  0.00     0.102 A 
HETATM   15  C14 UNK     1      17.384   8.138  32.977  1.00  0.00     0.101 A 
HETATM   16  C15 UNK     1      16.743   7.501  31.914  1.00  0.00     0.040 A 
HETATM   17  C12 UNK     1      17.020   6.163  31.633  1.00  0.00     0.017 A 
BRANCH  14  18
HETATM   18  O4  UNK     1      18.934   8.049  34.798  1.00  0.00    -0.353 OA
HETATM   19  C18 UNK     1      20.088   8.827  34.487  1.00  0.00     0.210 C 
ENDBRANCH  14  18
BRANCH  15  20
HETATM   20  O6  UNK     1      17.106   9.446  33.240  1.00  0.00    -0.353 OA
HETATM   21  C19 UNK     1      15.892   9.724  33.933  1.00  0.00     0.210 C 
ENDBRANCH  15  20
ENDBRANCH   5  12
BRANCH   6  22
HETATM   22  O2  UNK     1      17.749   1.550  35.333  1.00  0.00    -0.351 OA
HETATM   23  C16 UNK     1      18.781   1.940  36.237  1.00  0.00     0.210 C 
ENDBRANCH   6  22
BRANCH  10  24
HETATM   24  O3  UNK     1      18.213  -1.167  35.096  1.00  0.00    -0.353 OA
HETATM   25  C17 UNK     1      19.395  -1.709  35.679  1.00  0.00     0.210 C 
ENDBRANCH  10  24
TORSDOF 5
ENDMDL
MODEL 6
REMARK VINA RESULT:      -7.9     16.178     18.523
REMARK  5 active torsions:
REMARK  status: ('A' for Active; 'I' for Inactive)
REMARK    1  A    between atoms: C5_11  and  O2_2 
REMARK    2  A    between atoms: C9_15  and  O3_3 
REMARK    3  A    between atoms: C13_19  and  O4_4 
REMARK    4  A    between atoms: C14_20  and  O6_6 
REMARK    5  A    between atoms: C3_9  and  C4_10 
ROOT
HETATM    1  O1  UNK     1      24.536  -8.582  37.080  1.00  0.00    -0.306 OA
HETATM    2  O5  UNK     1      25.161 -12.370  35.717  1.00  0.00    -0.287 OA
HETATM    3  C1  UNK     1      23.475  -9.335  36.644  1.00  0.00     0.126 A 
HETATM    4  C2  UNK     1      23.618 -10.637  36.166  1.00  0.00     0.051 A 
HETATM    5  C3  UNK     1      25.803  -9.146  37.053  1.00  0.00     0.090 A 
HETATM    6  C5  UNK     1      22.212  -8.744  36.691  1.00  0.00     0.136 A 
HETATM    7  C6  UNK     1      24.962 -11.234  36.126  1.00  0.00     0.187 A 
HETATM    8  C7  UNK     1      26.069 -10.385  36.610  1.00  0.00     0.093 A 
HETATM    9  C8  UNK     1      22.502 -11.357  35.734  1.00  0.00     0.021 A 
HETATM   10  C9  UNK     1      21.095  -9.461  36.260  1.00  0.00     0.104 A 
HETATM   11  C11 UNK     1      21.241 -10.765  35.783  1.00  0.00     0.041 A 
ENDROOT
BRANCH   5  12
HETATM   12  C4  UNK     1      26.869  -8.249  37.540  1.00  0.00     0.001 A 
HETATM   13  C10 UNK     1      27.694  -7.580  36.633  1.00  0.00     0.054 A 
HETATM   14  C13 UNK     1      28.702  -6.733  37.093  1.00  0.00     0.102 A 
HETATM   15  C14 UNK     1      28.888  -6.552  38.464  1.00  0.00     0.101 A 
HETATM   16  C15 UNK     1      28.066  -7.217  39.373  1.00  0.00     0.040 A 
HETATM   17  C12 UNK     1      27.058  -8.065  38.913  1.00  0.00     0.017 A 
BRANCH  14  18
HETATM   18  O4  UNK     1      29.497  -6.088  36.196  1.00  0.00    -0.353 OA
HETATM   19  C18 UNK     1      29.369  -6.465  34.827  1.00  0.00     0.210 C 
ENDBRANCH  14  18
BRANCH  15  20
HETATM   20  O6  UNK     1      29.868  -5.725  38.926  1.00  0.00    -0.353 OA
HETATM   21  C19 UNK     1      29.505  -4.370  39.181  1.00  0.00     0.210 C 
ENDBRANCH  15  20
ENDBRANCH   5  12
BRANCH   6  22
HETATM   22  O2  UNK     1      22.065  -7.471  37.156  1.00  0.00    -0.351 OA
HETATM   23  C16 UNK     1      21.864  -7.314  38.559  1.00  0.00     0.210 C 
ENDBRANCH   6  22
BRANCH  10  24
HETATM   24  O3  UNK     1      19.855  -8.898  36.300  1.00  0.00    -0.353 OA
HETATM   25  C17 UNK     1      18.955  -9.383  37.294  1.00  0.00     0.210 C 
ENDBRANCH  10  24
TORSDOF 5
ENDMDL
MODEL 7
REMARK VINA RESULT:      -7.7      1.171      2.348
REMARK  5 active torsions:
REMARK  status: ('A' for Active; 'I' for Inactive)
REMARK    1  A    between atoms: C5_11  and  O2_2 
REMARK    2  A    between atoms: C9_15  and  O3_3 
REMARK    3  A    between atoms: C13_19  and  O4_4 
REMARK    4  A    between atoms: C14_20  and  O6_6 
REMARK    5  A    between atoms: C3_9  and  C4_10 
ROOT
HETATM    1  O1  UNK     1      17.021   6.188  33.547  1.00  0.00    -0.306 OA
HETATM    2  O5  UNK     1      20.364   8.472  34.003  1.00  0.00    -0.287 OA
HETATM    3  C1  UNK     1      16.905   7.547  33.694  1.00  0.00     0.126 A 
HETATM    4  C2  UNK     1      18.006   8.387  33.854  1.00  0.00     0.051 A 
HETATM    5  C3  UNK     1      18.290   5.629  33.547  1.00  0.00     0.090 A 
HETATM    6  C5  UNK     1      15.616   8.082  33.681  1.00  0.00     0.136 A 
HETATM    7  C6  UNK     1      19.353   7.796  33.865  1.00  0.00     0.187 A 
HETATM    8  C7  UNK     1      19.425   6.330  33.699  1.00  0.00     0.093 A 
HETATM    9  C8  UNK     1      17.829   9.765  34.000  1.00  0.00     0.021 A 
HETATM   10  C9  UNK     1      15.435   9.457  33.827  1.00  0.00     0.104 A 
HETATM   11  C11 UNK     1      16.539  10.297  33.986  1.00  0.00     0.041 A 
ENDROOT
BRANCH   5  12
HETATM   12  C4  UNK     1      18.299   4.162  33.386  1.00  0.00     0.001 A 
HETATM   13  C10 UNK     1      18.348   3.595  32.111  1.00  0.00     0.054 A 
HETATM   14  C13 UNK     1      18.355   2.208  31.958  1.00  0.00     0.102 A 
HETATM   15  C14 UNK     1      18.313   1.384  33.083  1.00  0.00     0.101 A 
HETATM   16  C15 UNK     1      18.264   1.946  34.358  1.00  0.00     0.040 A 
HETATM   17  C12 UNK     1      18.256   3.332  34.510  1.00  0.00     0.017 A 
BRANCH  14  18
HETATM   18  O4  UNK     1      18.405   1.671  30.708  1.00  0.00    -0.353 OA
HETATM   19  C18 UNK     1      17.998   2.507  29.627  1.00  0.00     0.210 C 
ENDBRANCH  14  18
BRANCH  15  20
HETATM   20  O6  UNK     1      18.322   0.028  32.947  1.00  0.00    -0.353 OA
HETATM   21  C19 UNK     1      18.041  -0.742  34.114  1.00  0.00     0.210 C 
ENDBRANCH  15  20
ENDBRANCH   5  12
BRANCH   6  22
HETATM   22  O2  UNK     1      14.535   7.266  33.526  1.00  0.00    -0.351 OA
HETATM   23  C16 UNK     1      13.993   7.153  32.212  1.00  0.00     0.210 C 
ENDBRANCH   6  22
BRANCH  10  24
HETATM   24  O3  UNK     1      14.183   9.995  33.815  1.00  0.00    -0.353 OA
HETATM   25  C17 UNK     1      13.863  10.913  34.858  1.00  0.00     0.210 C 
ENDBRANCH  10  24
TORSDOF 5
ENDMDL
MODEL 8
REMARK VINA RESULT:      -7.5      8.083     13.930
REMARK  5 active torsions:
REMARK  status: ('A' for Active; 'I' for Inactive)
REMARK    1  A    between atoms: C5_11  and  O2_2 
REMARK    2  A    between atoms: C9_15  and  O3_3 
REMARK    3  A    between atoms: C13_19  and  O4_4 
REMARK    4  A    between atoms: C14_20  and  O6_6 
REMARK    5  A    between atoms: C3_9  and  C4_10 
ROOT
HETATM    1  O1  UNK     1      19.280  -5.056  36.978  1.00  0.00    -0.306 OA
HETATM    2  O5  UNK     1      23.070  -5.180  38.467  1.00  0.00    -0.287 OA
HETATM    3  C1  UNK     1      19.834  -6.259  37.338  1.00  0.00     0.126 A 
HETATM    4  C2  UNK     1      21.124  -6.372  37.854  1.00  0.00     0.051 A 
HETATM    5  C3  UNK     1      20.033  -3.904  37.145  1.00  0.00     0.090 A 
HETATM    6  C5  UNK     1      19.049  -7.399  37.166  1.00  0.00     0.136 A 
HETATM    7  C6  UNK     1      21.930  -5.154  38.022  1.00  0.00     0.187 A 
HETATM    8  C7  UNK     1      21.287  -3.885  37.625  1.00  0.00     0.093 A 
HETATM    9  C8  UNK     1      21.637  -7.624  38.202  1.00  0.00     0.021 A 
HETATM   10  C9  UNK     1      19.558  -8.650  37.514  1.00  0.00     0.104 A 
HETATM   11  C11 UNK     1      20.850  -8.762  38.031  1.00  0.00     0.041 A 
ENDROOT
BRANCH   5  12
HETATM   12  C4  UNK     1      19.343  -2.670  36.724  1.00  0.00     0.001 A 
HETATM   13  C10 UNK     1      19.555  -2.147  35.446  1.00  0.00     0.054 A 
HETATM   14  C13 UNK     1      18.904  -0.980  35.048  1.00  0.00     0.102 A 
HETATM   15  C14 UNK     1      18.038  -0.331  35.928  1.00  0.00     0.101 A 
HETATM   16  C15 UNK     1      17.823  -0.849  37.205  1.00  0.00     0.040 A 
HETATM   17  C12 UNK     1      18.475  -2.016  37.603  1.00  0.00     0.017 A 
BRANCH  14  18
HETATM   18  O4  UNK     1      19.120  -0.484  33.799  1.00  0.00    -0.353 OA
HETATM   19  C18 UNK     1      18.927  -1.377  32.705  1.00  0.00     0.210 C 
ENDBRANCH  14  18
BRANCH  15  20
HETATM   20  O6  UNK     1      17.393   0.809  35.551  1.00  0.00    -0.353 OA
HETATM   21  C19 UNK     1      17.996   2.047  35.921  1.00  0.00     0.210 C 
ENDBRANCH  15  20
ENDBRANCH   5  12
BRANCH   6  22
HETATM   22  O2  UNK     1      17.786  -7.295  36.662  1.00  0.00    -0.351 OA
HETATM   23  C16 UNK     1      17.636  -7.461  35.253  1.00  0.00     0.210 C 
ENDBRANCH   6  22
BRANCH  10  24
HETATM   24  O3  UNK     1      18.803  -9.774  37.353  1.00  0.00    -0.353 OA
HETATM   25  C17 UNK     1      19.445 -11.025  37.590  1.00  0.00     0.210 C 
ENDBRANCH  10  24
TORSDOF 5
ENDMDL
MODEL 9
REMARK VINA RESULT:      -7.4      6.715     10.825
REMARK  5 active torsions:
REMARK  status: ('A' for Active; 'I' for Inactive)
REMARK    1  A    between atoms: C5_11  and  O2_2 
REMARK    2  A    between atoms: C9_15  and  O3_3 
REMARK    3  A    between atoms: C13_19  and  O4_4 
REMARK    4  A    between atoms: C14_20  and  O6_6 
REMARK    5  A    between atoms: C3_9  and  C4_10 
ROOT
HETATM    1  O1  UNK     1      19.396  -2.520  35.148  1.00  0.00    -0.306 OA
HETATM    2  O5  UNK     1      18.043   0.188  37.875  1.00  0.00    -0.287 OA
HETATM    3  C1  UNK     1      18.983  -1.279  34.732  1.00  0.00     0.126 A 
HETATM    4  C2  UNK     1      18.510  -0.306  35.611  1.00  0.00     0.051 A 
HETATM    5  C3  UNK     1      19.350  -2.812  36.503  1.00  0.00     0.090 A 
HETATM    6  C5  UNK     1      19.049  -1.011  33.365  1.00  0.00     0.136 A 
HETATM    7  C6  UNK     1      18.449  -0.617  37.048  1.00  0.00     0.187 A 
HETATM    8  C7  UNK     1      18.909  -1.963  37.445  1.00  0.00     0.093 A 
HETATM    9  C8  UNK     1      18.101   0.940  35.131  1.00  0.00     0.021 A 
HETATM   10  C9  UNK     1      18.643   0.233  32.882  1.00  0.00     0.104 A 
HETATM   11  C11 UNK     1      18.170   1.206  33.764  1.00  0.00     0.041 A 
ENDROOT
BRANCH   5  12
HETATM   12  C4  UNK     1      19.813  -4.173  36.839  1.00  0.00     0.001 A 
HETATM   13  C10 UNK     1      19.065  -5.286  36.451  1.00  0.00     0.054 A 
HETATM   14  C13 UNK     1      19.502  -6.572  36.769  1.00  0.00     0.102 A 
HETATM   15  C14 UNK     1      20.691  -6.748  37.477  1.00  0.00     0.101 A 
HETATM   16  C15 UNK     1      21.441  -5.639  37.867  1.00  0.00     0.040 A 
HETATM   17  C12 UNK     1      21.004  -4.353  37.549  1.00  0.00     0.017 A 
BRANCH  14  18
HETATM   18  O4  UNK     1      18.762  -7.647  36.382  1.00  0.00    -0.353 OA
HETATM   19  C18 UNK     1      17.678  -7.400  35.489  1.00  0.00     0.210 C 
ENDBRANCH  14  18
BRANCH  15  20
HETATM   20  O6  UNK     1      21.130  -7.999  37.792  1.00  0.00    -0.353 OA
HETATM   21  C19 UNK     1      22.199  -8.527  37.010  1.00  0.00     0.210 C 
ENDBRANCH  15  20
ENDBRANCH   5  12
BRANCH   6  22
HETATM   22  O2  UNK     1      19.511  -1.959  32.500  1.00  0.00    -0.351 OA
HETATM   23  C16 UNK     1      20.919  -2.002  32.278  1.00  0.00     0.210 C 
ENDBRANCH   6  22
BRANCH  10  24
HETATM   24  O3  UNK     1      18.702   0.510  31.549  1.00  0.00    -0.353 OA
HETATM   25  C17 UNK     1      18.695   1.885  31.173  1.00  0.00     0.210 C 
ENDBRANCH  10  24
TORSDOF 5
ENDMDL
MODEL 10
REMARK VINA RESULT:      -7.3      1.787      7.802
REMARK  5 active torsions:
REMARK  status: ('A' for Active; 'I' for Inactive)
REMARK    1  A    between atoms: C5_11  and  O2_2 
REMARK    2  A    between atoms: C9_15  and  O3_3 
REMARK    3  A    between atoms: C13_19  and  O4_4 
REMARK    4  A    between atoms: C14_20  and  O6_6 
REMARK    5  A    between atoms: C3_9  and  C4_10 
ROOT
HETATM    1  O1  UNK     1      17.841   4.454  32.906  1.00  0.00    -0.306 OA
HETATM    2  O5  UNK     1      19.023   4.568  29.008  1.00  0.00    -0.287 OA
HETATM    3  C1  UNK     1      18.243   3.301  32.279  1.00  0.00     0.126 A 
HETATM    4  C2  UNK     1      18.660   3.269  30.950  1.00  0.00     0.051 A 
HETATM    5  C3  UNK     1      17.861   5.638  32.186  1.00  0.00     0.090 A 
HETATM    6  C5  UNK     1      18.221   2.126  33.032  1.00  0.00     0.136 A 
HETATM    7  C6  UNK     1      18.671   4.522  30.179  1.00  0.00     0.187 A 
HETATM    8  C7  UNK     1      18.234   5.735  30.900  1.00  0.00     0.093 A 
HETATM    9  C8  UNK     1      19.058   2.066  30.363  1.00  0.00     0.021 A 
HETATM   10  C9  UNK     1      18.618   0.922  32.449  1.00  0.00     0.104 A 
HETATM   11  C11 UNK     1      19.036   0.893  31.117  1.00  0.00     0.041 A 
ENDROOT
BRANCH   5  12
HETATM   12  C4  UNK     1      17.406   6.814  32.953  1.00  0.00     0.001 A 
HETATM   13  C10 UNK     1      18.279   7.878  33.193  1.00  0.00     0.054 A 
HETATM   14  C13 UNK     1      17.849   8.989  33.919  1.00  0.00     0.102 A 
HETATM   15  C14 UNK     1      16.544   9.038  34.409  1.00  0.00     0.101 A 
HETATM   16  C15 UNK     1      15.670   7.978  34.173  1.00  0.00     0.040 A 
HETATM   17  C12 UNK     1      16.099   6.868  33.446  1.00  0.00     0.017 A 
BRANCH  14  18
HETATM   18  O4  UNK     1      18.712  10.018  34.142  1.00  0.00    -0.353 OA
HETATM   19  C18 UNK     1      20.071   9.679  34.409  1.00  0.00     0.210 C 
ENDBRANCH  14  18
BRANCH  15  20
HETATM   20  O6  UNK     1      16.112  10.119  35.118  1.00  0.00    -0.353 OA
HETATM   21  C19 UNK     1      14.708  10.365  35.133  1.00  0.00     0.210 C 
ENDBRANCH  15  20
ENDBRANCH   5  12
BRANCH   6  22
HETATM   22  O2  UNK     1      17.814   2.150  34.333  1.00  0.00    -0.351 OA
HETATM   23  C16 UNK     1      18.832   2.244  35.327  1.00  0.00     0.210 C 
ENDBRANCH   6  22
BRANCH  10  24
HETATM   24  O3  UNK     1      18.603  -0.234  33.170  1.00  0.00    -0.353 OA
HETATM   25  C17 UNK     1      19.018  -1.421  32.500  1.00  0.00     0.210 C 
ENDBRANCH  10  24
TORSDOF 5
ENDMDL
