MODEL 1
REMARK VINA RESULT:      -9.2      0.000      0.000
REMARK  3 active torsions:
REMARK  status: ('A' for Active; 'I' for Inactive)
REMARK    1  A    between atoms: C19_26  and  O4_5 
REMARK    2  A    between atoms: C5_12  and  N1_6 
REMARK       I    between atoms: C6_13  and  N2_7 
REMARK    3  A    between atoms: C6_13  and  C9_16 
ROOT
HETATM    1  O1  UNK     1      27.628 -10.275  38.948  1.00  0.00    -0.267 OA
HETATM    2  N1  UNK     1      30.210  -6.918  36.576  1.00  0.00    -0.377 N 
HETATM    3  N2  UNK     1      28.374  -8.978  37.171  1.00  0.00    -0.345 N 
HETATM    4  C1  UNK     1      28.802  -6.772  36.175  1.00  0.00     0.143 C 
HETATM    5  C2  UNK     1      30.471  -7.818  37.711  1.00  0.00     0.143 C 
HETATM    6  C3  UNK     1      28.161  -8.146  35.983  1.00  0.00     0.146 C 
HETATM    7  C4  UNK     1      29.787  -9.167  37.495  1.00  0.00     0.146 C 
HETATM    8  C6  UNK     1      27.398  -9.582  37.955  1.00  0.00     0.260 C 
ENDROOT
BRANCH   8   9
HETATM    9  C9  UNK     1      25.986  -9.378  37.576  1.00  0.00     0.108 A 
HETATM   10  C13 UNK     1      25.418 -10.355  36.860  1.00  0.00     0.037 A 
HETATM   11  C16 UNK     1      24.030 -10.245  36.439  1.00  0.00     0.002 A 
HETATM   12  C17 UNK     1      23.309  -9.108  36.791  1.00  0.00     0.123 A 
HETATM   13  C18 UNK     1      23.396 -11.241  35.693  1.00  0.00     0.014 A 
HETATM   14  O2  UNK     1      23.912  -8.082  37.544  1.00  0.00    -0.271 OA
HETATM   15  C19 UNK     1      21.977  -8.941  36.420  1.00  0.00     0.102 A 
HETATM   16  C15 UNK     1      25.239  -8.160  37.963  1.00  0.00     0.304 A 
HETATM   17  O3  UNK     1      25.755  -7.262  38.618  1.00  0.00    -0.259 OA
HETATM   18  C21 UNK     1      21.352  -9.939  35.676  1.00  0.00     0.040 A 
HETATM   19  C20 UNK     1      22.060 -11.086  35.313  1.00  0.00     0.004 A 
BRANCH  15  20
HETATM   20  O4  UNK     1      21.283  -7.825  36.771  1.00  0.00    -0.353 OA
HETATM   21  C22 UNK     1      20.554  -7.160  35.738  1.00  0.00     0.210 C 
ENDBRANCH  15  20
ENDBRANCH   8   9
BRANCH   2  22
HETATM   22  C5  UNK     1      31.099  -5.857  36.369  1.00  0.00     0.037 A 
HETATM   23  C7  UNK     1      30.936  -4.600  37.001  1.00  0.00    -0.035 A 
HETATM   24  C10 UNK     1      31.831  -3.554  36.783  1.00  0.00     0.011 A 
HETATM   25  C11 UNK     1      29.782  -4.381  37.925  1.00  0.00     0.050 C 
HETATM   26  C14 UNK     1      32.918  -3.733  35.925  1.00  0.00     0.024 A 
HETATM   27  C12 UNK     1      33.107  -4.959  35.287  1.00  0.00     0.036 A 
HETATM   28 Cl1  UNK     1      34.446  -5.179  34.229  1.00  0.00    -0.084 Cl
HETATM   29  C8  UNK     1      32.211  -6.005  35.506  1.00  0.00     0.053 A 
ENDBRANCH   2  22
TORSDOF 3
ENDMDL
MODEL 2
REMARK VINA RESULT:      -9.0      7.224     10.348
REMARK  3 active torsions:
REMARK  status: ('A' for Active; 'I' for Inactive)
REMARK    1  A    between atoms: C19_26  and  O4_5 
REMARK    2  A    between atoms: C5_12  and  N1_6 
REMARK       I    between atoms: C6_13  and  N2_7 
REMARK    3  A    between atoms: C6_13  and  C9_16 
ROOT
HETATM    1  O1  UNK     1      20.722  -2.474  37.529  1.00  0.00    -0.267 OA
HETATM    2  N1  UNK     1      20.628  -7.245  36.642  1.00  0.00    -0.377 N 
HETATM    3  N2  UNK     1      19.951  -4.506  36.709  1.00  0.00    -0.345 N 
HETATM    4  C1  UNK     1      20.312  -6.547  35.387  1.00  0.00     0.143 C 
HETATM    5  C2  UNK     1      21.112  -6.405  37.749  1.00  0.00     0.143 C 
HETATM    6  C3  UNK     1      19.388  -5.361  35.660  1.00  0.00     0.146 C 
HETATM    7  C4  UNK     1      20.178  -5.215  37.967  1.00  0.00     0.146 C 
HETATM    8  C6  UNK     1      20.248  -3.152  36.616  1.00  0.00     0.260 C 
ENDROOT
BRANCH   8   9
HETATM    9  C9  UNK     1      19.982  -2.476  35.330  1.00  0.00     0.108 A 
HETATM   10  C13 UNK     1      20.560  -3.012  34.249  1.00  0.00     0.037 A 
HETATM   11  C16 UNK     1      20.357  -2.417  32.937  1.00  0.00     0.002 A 
HETATM   12  C17 UNK     1      19.556  -1.286  32.829  1.00  0.00     0.123 A 
HETATM   13  C18 UNK     1      20.940  -2.944  31.782  1.00  0.00     0.014 A 
HETATM   14  O2  UNK     1      18.949  -0.726  33.970  1.00  0.00    -0.271 OA
HETATM   15  C19 UNK     1      19.320  -0.668  31.602  1.00  0.00     0.102 A 
HETATM   16  C15 UNK     1      19.124  -1.273  35.239  1.00  0.00     0.304 A 
HETATM   17  O3  UNK     1      18.592  -0.778  36.226  1.00  0.00    -0.259 OA
HETATM   18  C21 UNK     1      19.906  -1.200  30.455  1.00  0.00     0.040 A 
HETATM   19  C20 UNK     1      20.714  -2.335  30.545  1.00  0.00     0.004 A 
BRANCH  15  20
HETATM   20  O4  UNK     1      18.535   0.437  31.510  1.00  0.00    -0.353 OA
HETATM   21  C22 UNK     1      18.901   1.417  30.538  1.00  0.00     0.210 C 
ENDBRANCH  15  20
ENDBRANCH   8   9
BRANCH   2  22
HETATM   22  C5  UNK     1      21.059  -8.577  36.600  1.00  0.00     0.037 A 
HETATM   23  C7  UNK     1      20.164  -9.665  36.747  1.00  0.00    -0.035 A 
HETATM   24  C10 UNK     1      20.611 -10.985  36.704  1.00  0.00     0.011 A 
HETATM   25  C11 UNK     1      18.708  -9.403  36.954  1.00  0.00     0.050 C 
HETATM   26  C14 UNK     1      21.966 -11.257  36.512  1.00  0.00     0.024 A 
HETATM   27  C12 UNK     1      22.873 -10.208  36.363  1.00  0.00     0.036 A 
HETATM   28 Cl1  UNK     1      24.544 -10.544  36.127  1.00  0.00    -0.084 Cl
HETATM   29  C8  UNK     1      22.426  -8.888  36.407  1.00  0.00     0.053 A 
ENDBRANCH   2  22
TORSDOF 3
ENDMDL
MODEL 3
REMARK VINA RESULT:      -8.9      1.027      1.702
REMARK  3 active torsions:
REMARK  status: ('A' for Active; 'I' for Inactive)
REMARK    1  A    between atoms: C19_26  and  O4_5 
REMARK    2  A    between atoms: C5_12  and  N1_6 
REMARK       I    between atoms: C6_13  and  N2_7 
REMARK    3  A    between atoms: C6_13  and  C9_16 
ROOT
HETATM    1  O1  UNK     1      27.754 -10.211  39.019  1.00  0.00    -0.267 OA
HETATM    2  N1  UNK     1      30.435  -7.364  36.145  1.00  0.00    -0.377 N 
HETATM    3  N2  UNK     1      28.522  -9.226  37.060  1.00  0.00    -0.345 N 
HETATM    4  C1  UNK     1      29.028  -7.213  35.744  1.00  0.00     0.143 C 
HETATM    5  C2  UNK     1      30.678  -8.098  37.397  1.00  0.00     0.143 C 
HETATM    6  C3  UNK     1      28.323  -8.568  35.765  1.00  0.00     0.146 C 
HETATM    7  C4  UNK     1      29.931  -9.431  37.391  1.00  0.00     0.146 C 
HETATM    8  C6  UNK     1      27.536  -9.663  37.937  1.00  0.00     0.260 C 
ENDROOT
BRANCH   8   9
HETATM    9  C9  UNK     1      26.127  -9.450  37.549  1.00  0.00     0.108 A 
HETATM   10  C13 UNK     1      25.540 -10.451  36.883  1.00  0.00     0.037 A 
HETATM   11  C16 UNK     1      24.153 -10.336  36.459  1.00  0.00     0.002 A 
HETATM   12  C17 UNK     1      23.454  -9.170  36.755  1.00  0.00     0.123 A 
HETATM   13  C18 UNK     1      23.500 -11.355  35.762  1.00  0.00     0.014 A 
HETATM   14  O2  UNK     1      24.077  -8.120  37.456  1.00  0.00    -0.271 OA
HETATM   15  C19 UNK     1      22.124  -8.996  36.378  1.00  0.00     0.102 A 
HETATM   16  C15 UNK     1      25.403  -8.202  37.877  1.00  0.00     0.304 A 
HETATM   17  O3  UNK     1      25.937  -7.282  38.487  1.00  0.00    -0.259 OA
HETATM   18  C21 UNK     1      21.480 -10.018  35.683  1.00  0.00     0.040 A 
HETATM   19  C20 UNK     1      22.166 -11.194  35.376  1.00  0.00     0.004 A 
BRANCH  15  20
HETATM   20  O4  UNK     1      21.453  -7.852  36.674  1.00  0.00    -0.353 OA
HETATM   21  C22 UNK     1      20.460  -7.420  35.742  1.00  0.00     0.210 C 
ENDBRANCH  15  20
ENDBRANCH   8   9
BRANCH   2  22
HETATM   22  C5  UNK     1      31.366  -6.387  35.772  1.00  0.00     0.037 A 
HETATM   23  C7  UNK     1      32.419  -6.655  34.864  1.00  0.00    -0.035 A 
HETATM   24  C10 UNK     1      33.339  -5.670  34.505  1.00  0.00     0.011 A 
HETATM   25  C11 UNK     1      32.556  -8.020  34.272  1.00  0.00     0.050 C 
HETATM   26  C14 UNK     1      33.232  -4.387  35.044  1.00  0.00     0.024 A 
HETATM   27  C12 UNK     1      32.207  -4.090  35.941  1.00  0.00     0.036 A 
HETATM   28 Cl1  UNK     1      32.077  -2.508  36.605  1.00  0.00    -0.084 Cl
HETATM   29  C8  UNK     1      31.288  -5.075  36.300  1.00  0.00     0.053 A 
ENDBRANCH   2  22
TORSDOF 3
ENDMDL
MODEL 4
REMARK VINA RESULT:      -8.9      1.254      2.081
REMARK  3 active torsions:
REMARK  status: ('A' for Active; 'I' for Inactive)
REMARK    1  A    between atoms: C19_26  and  O4_5 
REMARK    2  A    between atoms: C5_12  and  N1_6 
REMARK       I    between atoms: C6_13  and  N2_7 
REMARK    3  A    between atoms: C6_13  and  C9_16 
ROOT
HETATM    1  O1  UNK     1      27.874 -10.021  39.300  1.00  0.00    -0.267 OA
HETATM    2  N1  UNK     1      30.390  -6.798  36.685  1.00  0.00    -0.377 N 
HETATM    3  N2  UNK     1      28.546  -8.795  37.445  1.00  0.00    -0.345 N 
HETATM    4  C1  UNK     1      28.966  -6.630  36.359  1.00  0.00     0.143 C 
HETATM    5  C2  UNK     1      30.696  -7.671  37.831  1.00  0.00     0.143 C 
HETATM    6  C3  UNK     1      28.285  -7.993  36.246  1.00  0.00     0.146 C 
HETATM    7  C4  UNK     1      29.970  -9.008  37.695  1.00  0.00     0.146 C 
HETATM    8  C6  UNK     1      27.604  -9.353  38.301  1.00  0.00     0.260 C 
ENDROOT
BRANCH   8   9
HETATM    9  C9  UNK     1      26.177  -9.125  37.995  1.00  0.00     0.108 A 
HETATM   10  C13 UNK     1      25.556  -8.196  38.730  1.00  0.00     0.037 A 
HETATM   11  C16 UNK     1      24.149  -7.900  38.502  1.00  0.00     0.002 A 
HETATM   12  C17 UNK     1      23.467  -8.600  37.513  1.00  0.00     0.123 A 
HETATM   13  C18 UNK     1      23.461  -6.937  39.244  1.00  0.00     0.014 A 
HETATM   14  O2  UNK     1      24.126  -9.578  36.743  1.00  0.00    -0.271 OA
HETATM   15  C19 UNK     1      22.120  -8.365  37.245  1.00  0.00     0.102 A 
HETATM   16  C15 UNK     1      25.471  -9.882  36.936  1.00  0.00     0.304 A 
HETATM   17  O3  UNK     1      26.036 -10.735  36.261  1.00  0.00    -0.259 OA
HETATM   18  C21 UNK     1      21.441  -7.403  37.990  1.00  0.00     0.040 A 
HETATM   19  C20 UNK     1      22.109  -6.691  38.987  1.00  0.00     0.004 A 
BRANCH  15  20
HETATM   20  O4  UNK     1      21.464  -9.056  36.275  1.00  0.00    -0.353 OA
HETATM   21  C22 UNK     1      20.953  -8.305  35.173  1.00  0.00     0.210 C 
ENDBRANCH  15  20
ENDBRANCH   8   9
BRANCH   2  22
HETATM   22  C5  UNK     1      31.290  -5.765  36.396  1.00  0.00     0.037 A 
HETATM   23  C7  UNK     1      31.150  -4.466  36.943  1.00  0.00    -0.035 A 
HETATM   24  C10 UNK     1      32.055  -3.448  36.643  1.00  0.00     0.011 A 
HETATM   25  C11 UNK     1      30.010  -4.169  37.862  1.00  0.00     0.050 C 
HETATM   26  C14 UNK     1      33.129  -3.700  35.788  1.00  0.00     0.024 A 
HETATM   27  C12 UNK     1      33.295  -4.968  35.233  1.00  0.00     0.036 A 
HETATM   28 Cl1  UNK     1      34.619  -5.277  34.177  1.00  0.00    -0.084 Cl
HETATM   29  C8  UNK     1      32.390  -5.986  35.533  1.00  0.00     0.053 A 
ENDBRANCH   2  22
TORSDOF 3
ENDMDL
MODEL 5
REMARK VINA RESULT:      -8.8     33.014     35.044
REMARK  3 active torsions:
REMARK  status: ('A' for Active; 'I' for Inactive)
REMARK    1  A    between atoms: C19_26  and  O4_5 
REMARK    2  A    between atoms: C5_12  and  N1_6 
REMARK       I    between atoms: C6_13  and  N2_7 
REMARK    3  A    between atoms: C6_13  and  C9_16 
ROOT
HETATM    1  O1  UNK     1       9.783   5.498   7.001  1.00  0.00    -0.267 OA
HETATM    2  N1  UNK     1      13.436   8.157   8.775  1.00  0.00    -0.377 N 
HETATM    3  N2  UNK     1      10.852   7.242   8.103  1.00  0.00    -0.345 N 
HETATM    4  C1  UNK     1      12.415   8.034   9.827  1.00  0.00     0.143 C 
HETATM    5  C2  UNK     1      13.254   7.303   7.590  1.00  0.00     0.143 C 
HETATM    6  C3  UNK     1      11.017   8.170   9.225  1.00  0.00     0.146 C 
HETATM    7  C4  UNK     1      11.835   7.444   7.040  1.00  0.00     0.146 C 
HETATM    8  C6  UNK     1       9.881   6.257   7.967  1.00  0.00     0.260 C 
ENDROOT
BRANCH   8   9
HETATM    9  C9  UNK     1       8.898   6.104   9.058  1.00  0.00     0.108 A 
HETATM   10  C13 UNK     1       7.965   7.058   9.152  1.00  0.00     0.037 A 
HETATM   11  C16 UNK     1       6.953   6.995  10.195  1.00  0.00     0.002 A 
HETATM   12  C17 UNK     1       6.975   5.931  11.089  1.00  0.00     0.123 A 
HETATM   13  C18 UNK     1       5.960   7.968  10.329  1.00  0.00     0.014 A 
HETATM   14  O2  UNK     1       7.959   4.929  10.987  1.00  0.00    -0.271 OA
HETATM   15  C19 UNK     1       6.035   5.811  12.111  1.00  0.00     0.102 A 
HETATM   16  C15 UNK     1       8.940   4.961   9.998  1.00  0.00     0.304 A 
HETATM   17  O3  UNK     1       9.794   4.085   9.916  1.00  0.00    -0.259 OA
HETATM   18  C21 UNK     1       5.047   6.785  12.238  1.00  0.00     0.040 A 
HETATM   19  C20 UNK     1       5.010   7.862  11.349  1.00  0.00     0.004 A 
BRANCH  15  20
HETATM   20  O4  UNK     1       6.067   4.765  12.978  1.00  0.00    -0.353 OA
HETATM   21  C22 UNK     1       5.800   5.050  14.352  1.00  0.00     0.210 C 
ENDBRANCH  15  20
ENDBRANCH   8   9
BRANCH   2  22
HETATM   22  C5  UNK     1      14.743   8.516   9.123  1.00  0.00     0.037 A 
HETATM   23  C7  UNK     1      15.613   7.633   9.808  1.00  0.00    -0.035 A 
HETATM   24  C10 UNK     1      16.913   8.009  10.147  1.00  0.00     0.011 A 
HETATM   25  C11 UNK     1      15.137   6.266  10.179  1.00  0.00     0.050 C 
HETATM   26  C14 UNK     1      17.381   9.280   9.812  1.00  0.00     0.024 A 
HETATM   27  C12 UNK     1      16.550  10.173   9.138  1.00  0.00     0.036 A 
HETATM   28 Cl1  UNK     1      17.128  11.741   8.725  1.00  0.00    -0.084 Cl
HETATM   29  C8  UNK     1      15.251   9.798   8.798  1.00  0.00     0.053 A 
ENDBRANCH   2  22
TORSDOF 3
ENDMDL
MODEL 6
REMARK VINA RESULT:      -8.4     18.175     21.515
REMARK  3 active torsions:
REMARK  status: ('A' for Active; 'I' for Inactive)
REMARK    1  A    between atoms: C19_26  and  O4_5 
REMARK    2  A    between atoms: C5_12  and  N1_6 
REMARK       I    between atoms: C6_13  and  N2_7 
REMARK    3  A    between atoms: C6_13  and  C9_16 
ROOT
HETATM    1  O1  UNK     1      18.963  10.329  33.969  1.00  0.00    -0.267 OA
HETATM    2  N1  UNK     1      14.396  11.327  35.273  1.00  0.00    -0.377 N 
HETATM    3  N2  UNK     1      16.642  10.342  33.877  1.00  0.00    -0.345 N 
HETATM    4  C1  UNK     1      14.465   9.899  34.929  1.00  0.00     0.143 C 
HETATM    5  C2  UNK     1      15.683  12.033  35.379  1.00  0.00     0.143 C 
HETATM    6  C3  UNK     1      15.340   9.695  33.693  1.00  0.00     0.146 C 
HETATM    7  C4  UNK     1      16.539  11.776  34.140  1.00  0.00     0.146 C 
HETATM    8  C6  UNK     1      17.893   9.741  33.806  1.00  0.00     0.260 C 
ENDROOT
BRANCH   8   9
HETATM    9  C9  UNK     1      17.946   8.293  33.519  1.00  0.00     0.108 A 
HETATM   10  C13 UNK     1      18.366   7.948  32.296  1.00  0.00     0.037 A 
HETATM   11  C16 UNK     1      18.452   6.545  31.920  1.00  0.00     0.002 A 
HETATM   12  C17 UNK     1      18.089   5.576  32.849  1.00  0.00     0.123 A 
HETATM   13  C18 UNK     1      18.886   6.138  30.656  1.00  0.00     0.014 A 
HETATM   14  O2  UNK     1      17.647   5.945  34.134  1.00  0.00    -0.271 OA
HETATM   15  C19 UNK     1      18.149   4.216  32.552  1.00  0.00     0.102 A 
HETATM   16  C15 UNK     1      17.555   7.280  34.524  1.00  0.00     0.304 A 
HETATM   17  O3  UNK     1      17.169   7.592  35.645  1.00  0.00    -0.259 OA
HETATM   18  C21 UNK     1      18.583   3.819  31.289  1.00  0.00     0.040 A 
HETATM   19  C20 UNK     1      18.951   4.778  30.343  1.00  0.00     0.004 A 
BRANCH  15  20
HETATM   20  O4  UNK     1      17.791   3.279  33.469  1.00  0.00    -0.353 OA
HETATM   21  C22 UNK     1      18.184   1.930  33.210  1.00  0.00     0.210 C 
ENDBRANCH  15  20
ENDBRANCH   8   9
BRANCH   2  22
HETATM   22  C5  UNK     1      13.330  11.798  36.050  1.00  0.00     0.037 A 
HETATM   23  C7  UNK     1      12.221  12.471  35.482  1.00  0.00    -0.035 A 
HETATM   24  C10 UNK     1      11.169  12.934  36.271  1.00  0.00     0.011 A 
HETATM   25  C11 UNK     1      12.168  12.694  34.005  1.00  0.00     0.050 C 
HETATM   26  C14 UNK     1      11.194  12.738  37.653  1.00  0.00     0.024 A 
HETATM   27  C12 UNK     1      12.271  12.079  38.243  1.00  0.00     0.036 A 
HETATM   28 Cl1  UNK     1      12.302  11.838  39.947  1.00  0.00    -0.084 Cl
HETATM   29  C8  UNK     1      13.324  11.615  37.454  1.00  0.00     0.053 A 
ENDBRANCH   2  22
TORSDOF 3
ENDMDL
MODEL 7
REMARK VINA RESULT:      -8.3     33.615     35.074
REMARK  3 active torsions:
REMARK  status: ('A' for Active; 'I' for Inactive)
REMARK    1  A    between atoms: C19_26  and  O4_5 
REMARK    2  A    between atoms: C5_12  and  N1_6 
REMARK       I    between atoms: C6_13  and  N2_7 
REMARK    3  A    between atoms: C6_13  and  C9_16 
ROOT
HETATM    1  O1  UNK     1      15.480   6.556   9.885  1.00  0.00    -0.267 OA
HETATM    2  N1  UNK     1      16.381  11.326   9.896  1.00  0.00    -0.377 N 
HETATM    3  N2  UNK     1      15.488   8.757   9.141  1.00  0.00    -0.345 N 
HETATM    4  C1  UNK     1      14.975  11.133   9.507  1.00  0.00     0.143 C 
HETATM    5  C2  UNK     1      17.084  10.135  10.401  1.00  0.00     0.143 C 
HETATM    6  C3  UNK     1      14.847   9.940   8.560  1.00  0.00     0.146 C 
HETATM    7  C4  UNK     1      16.904   8.959   9.442  1.00  0.00     0.146 C 
HETATM    8  C6  UNK     1      14.898   7.524   9.394  1.00  0.00     0.260 C 
ENDROOT
BRANCH   8   9
HETATM    9  C9  UNK     1      13.470   7.363   9.054  1.00  0.00     0.108 A 
HETATM   10  C13 UNK     1      13.202   6.907   7.825  1.00  0.00     0.037 A 
HETATM   11  C16 UNK     1      11.824   6.714   7.398  1.00  0.00     0.002 A 
HETATM   12  C17 UNK     1      10.797   7.015   8.286  1.00  0.00     0.123 A 
HETATM   13  C18 UNK     1      11.498   6.240   6.126  1.00  0.00     0.014 A 
HETATM   14  O2  UNK     1      11.084   7.495   9.579  1.00  0.00    -0.271 OA
HETATM   15  C19 UNK     1       9.457   6.853   7.940  1.00  0.00     0.102 A 
HETATM   16  C15 UNK     1      12.393   7.688  10.016  1.00  0.00     0.304 A 
HETATM   17  O3  UNK     1      12.634   8.106  11.143  1.00  0.00    -0.259 OA
HETATM   18  C21 UNK     1       9.141   6.378   6.669  1.00  0.00     0.040 A 
HETATM   19  C20 UNK     1      10.159   6.073   5.763  1.00  0.00     0.004 A 
BRANCH  15  20
HETATM   20  O4  UNK     1       8.462   7.150   8.818  1.00  0.00    -0.353 OA
HETATM   21  C22 UNK     1       7.780   6.051   9.424  1.00  0.00     0.210 C 
ENDBRANCH  15  20
ENDBRANCH   8   9
BRANCH   2  22
HETATM   22  C5  UNK     1      16.801  12.576  10.364  1.00  0.00     0.037 A 
HETATM   23  C7  UNK     1      17.488  13.500   9.539  1.00  0.00    -0.035 A 
HETATM   24  C10 UNK     1      17.901  14.741  10.022  1.00  0.00     0.011 A 
HETATM   25  C11 UNK     1      17.784  13.144   8.117  1.00  0.00     0.050 C 
HETATM   26  C14 UNK     1      17.636  15.097  11.345  1.00  0.00     0.024 A 
HETATM   27  C12 UNK     1      16.961  14.211  12.184  1.00  0.00     0.036 A 
HETATM   28 Cl1  UNK     1      16.637  14.650  13.816  1.00  0.00    -0.084 Cl
HETATM   29  C8  UNK     1      16.549  12.969  11.701  1.00  0.00     0.053 A 
ENDBRANCH   2  22
TORSDOF 3
ENDMDL
MODEL 8
REMARK VINA RESULT:      -8.1     17.215     20.451
REMARK  3 active torsions:
REMARK  status: ('A' for Active; 'I' for Inactive)
REMARK    1  A    between atoms: C19_26  and  O4_5 
REMARK    2  A    between atoms: C5_12  and  N1_6 
REMARK       I    between atoms: C6_13  and  N2_7 
REMARK    3  A    between atoms: C6_13  and  C9_16 
ROOT
HETATM    1  O1  UNK     1      18.679  10.260  33.576  1.00  0.00    -0.267 OA
HETATM    2  N1  UNK     1      18.088   5.467  33.093  1.00  0.00    -0.377 N 
HETATM    3  N2  UNK     1      17.851   8.130  33.996  1.00  0.00    -0.345 N 
HETATM    4  C1  UNK     1      16.755   6.076  33.208  1.00  0.00     0.143 C 
HETATM    5  C2  UNK     1      19.215   6.397  32.913  1.00  0.00     0.143 C 
HETATM    6  C3  UNK     1      16.767   7.181  34.264  1.00  0.00     0.146 C 
HETATM    7  C4  UNK     1      19.171   7.503  33.967  1.00  0.00     0.146 C 
HETATM    8  C6  UNK     1      17.734   9.501  33.800  1.00  0.00     0.260 C 
ENDROOT
BRANCH   8   9
HETATM    9  C9  UNK     1      16.382  10.091  33.858  1.00  0.00     0.108 A 
HETATM   10  C13 UNK     1      16.111  10.844  34.930  1.00  0.00     0.037 A 
HETATM   11  C16 UNK     1      14.805  11.469  35.077  1.00  0.00     0.002 A 
HETATM   12  C17 UNK     1      13.848  11.267  34.088  1.00  0.00     0.123 A 
HETATM   13  C18 UNK     1      14.478  12.263  36.179  1.00  0.00     0.014 A 
HETATM   14  O2  UNK     1      14.139  10.474  32.961  1.00  0.00    -0.271 OA
HETATM   15  C19 UNK     1      12.579  11.837  34.167  1.00  0.00     0.102 A 
HETATM   16  C15 UNK     1      15.380   9.864  32.792  1.00  0.00     0.304 A 
HETATM   17  O3  UNK     1      15.624   9.175  31.808  1.00  0.00    -0.259 OA
HETATM   18  C21 UNK     1      12.262  12.628  35.270  1.00  0.00     0.040 A 
HETATM   19  C20 UNK     1      13.209  12.840  36.273  1.00  0.00     0.004 A 
BRANCH  15  20
HETATM   20  O4  UNK     1      11.654  11.632  33.193  1.00  0.00    -0.353 OA
HETATM   21  C22 UNK     1      10.649  12.634  33.029  1.00  0.00     0.210 C 
ENDBRANCH  15  20
ENDBRANCH   8   9
BRANCH   2  22
HETATM   22  C5  UNK     1      18.214   4.181  32.554  1.00  0.00     0.037 A 
HETATM   23  C7  UNK     1      18.364   3.031  33.368  1.00  0.00    -0.035 A 
HETATM   24  C10 UNK     1      18.489   1.758  32.813  1.00  0.00     0.011 A 
HETATM   25  C11 UNK     1      18.389   3.176  34.855  1.00  0.00     0.050 C 
HETATM   26  C14 UNK     1      18.468   1.596  31.427  1.00  0.00     0.024 A 
HETATM   27  C12 UNK     1      18.322   2.708  30.597  1.00  0.00     0.036 A 
HETATM   28 Cl1  UNK     1      18.297   2.507  28.888  1.00  0.00    -0.084 Cl
HETATM   29  C8  UNK     1      18.197   3.981  31.152  1.00  0.00     0.053 A 
ENDBRANCH   2  22
TORSDOF 3
ENDMDL
MODEL 9
REMARK VINA RESULT:      -8.0      4.124      9.191
REMARK  3 active torsions:
REMARK  status: ('A' for Active; 'I' for Inactive)
REMARK    1  A    between atoms: C19_26  and  O4_5 
REMARK    2  A    between atoms: C5_12  and  N1_6 
REMARK       I    between atoms: C6_13  and  N2_7 
REMARK    3  A    between atoms: C6_13  and  C9_16 
ROOT
HETATM    1  O1  UNK     1      30.736 -10.721  39.125  1.00  0.00    -0.267 OA
HETATM    2  N1  UNK     1      26.328  -9.321  37.655  1.00  0.00    -0.377 N 
HETATM    3  N2  UNK     1      29.044  -9.294  38.420  1.00  0.00    -0.345 N 
HETATM    4  C1  UNK     1      27.320  -8.680  36.780  1.00  0.00     0.143 C 
HETATM    5  C2  UNK     1      26.837 -10.365  38.559  1.00  0.00     0.143 C 
HETATM    6  C3  UNK     1      28.517  -8.200  37.599  1.00  0.00     0.146 C 
HETATM    7  C4  UNK     1      28.052  -9.856  39.335  1.00  0.00     0.146 C 
HETATM    8  C6  UNK     1      30.340  -9.797  38.414  1.00  0.00     0.260 C 
ENDROOT
BRANCH   8   9
HETATM    9  C9  UNK     1      31.311  -9.183  37.486  1.00  0.00     0.108 A 
HETATM   10  C13 UNK     1      32.140  -8.274  38.013  1.00  0.00     0.037 A 
HETATM   11  C16 UNK     1      33.132  -7.614  37.178  1.00  0.00     0.002 A 
HETATM   12  C17 UNK     1      33.201  -7.944  35.829  1.00  0.00     0.123 A 
HETATM   13  C18 UNK     1      34.017  -6.660  37.686  1.00  0.00     0.014 A 
HETATM   14  O2  UNK     1      32.327  -8.902  35.280  1.00  0.00    -0.271 OA
HETATM   15  C19 UNK     1      34.128  -7.349  34.975  1.00  0.00     0.102 A 
HETATM   16  C15 UNK     1      31.368  -9.551  36.054  1.00  0.00     0.304 A 
HETATM   17  O3  UNK     1      30.611 -10.383  35.567  1.00  0.00    -0.259 OA
HETATM   18  C21 UNK     1      35.008  -6.399  35.490  1.00  0.00     0.040 A 
HETATM   19  C20 UNK     1      34.952  -6.055  36.842  1.00  0.00     0.004 A 
BRANCH  15  20
HETATM   20  O4  UNK     1      34.186  -7.681  33.658  1.00  0.00    -0.353 OA
HETATM   21  C22 UNK     1      35.298  -7.187  32.911  1.00  0.00     0.210 C 
ENDBRANCH  15  20
ENDBRANCH   8   9
BRANCH   2  22
HETATM   22  C5  UNK     1      24.997  -9.421  37.231  1.00  0.00     0.037 A 
HETATM   23  C7  UNK     1      24.537 -10.498  36.434  1.00  0.00    -0.035 A 
HETATM   24  C10 UNK     1      23.208 -10.581  36.020  1.00  0.00     0.011 A 
HETATM   25  C11 UNK     1      25.489 -11.574  36.023  1.00  0.00     0.050 C 
HETATM   26  C14 UNK     1      22.299  -9.589  36.391  1.00  0.00     0.024 A 
HETATM   27  C12 UNK     1      22.720  -8.515  37.175  1.00  0.00     0.036 A 
HETATM   28 Cl1  UNK     1      21.598  -7.292  37.631  1.00  0.00    -0.084 Cl
HETATM   29  C8  UNK     1      24.049  -8.433  37.589  1.00  0.00     0.053 A 
ENDBRANCH   2  22
TORSDOF 3
ENDMDL
MODEL 10
REMARK VINA RESULT:      -8.0      5.373      9.502
REMARK  3 active torsions:
REMARK  status: ('A' for Active; 'I' for Inactive)
REMARK    1  A    between atoms: C19_26  and  O4_5 
REMARK    2  A    between atoms: C5_12  and  N1_6 
REMARK       I    between atoms: C6_13  and  N2_7 
REMARK    3  A    between atoms: C6_13  and  C9_16 
ROOT
HETATM    1  O1  UNK     1      34.732  -6.006  37.556  1.00  0.00    -0.267 OA
HETATM    2  N1  UNK     1      29.925  -6.653  37.736  1.00  0.00    -0.377 N 
HETATM    3  N2  UNK     1      32.505  -5.864  36.908  1.00  0.00    -0.345 N 
HETATM    4  C1  UNK     1      30.370  -6.953  36.367  1.00  0.00     0.143 C 
HETATM    5  C2  UNK     1      30.987  -6.476  38.740  1.00  0.00     0.143 C 
HETATM    6  C3  UNK     1      31.426  -5.944  35.920  1.00  0.00     0.146 C 
HETATM    7  C4  UNK     1      32.038  -5.486  38.241  1.00  0.00     0.146 C 
HETATM    8  C6  UNK     1      33.860  -6.085  36.689  1.00  0.00     0.260 C 
ENDROOT
BRANCH   8   9
HETATM    9  C9  UNK     1      34.285  -6.445  35.322  1.00  0.00     0.108 A 
HETATM   10  C13 UNK     1      34.344  -7.753  35.046  1.00  0.00     0.037 A 
HETATM   11  C16 UNK     1      34.752  -8.207  33.725  1.00  0.00     0.002 A 
HETATM   12  C17 UNK     1      35.080  -7.260  32.761  1.00  0.00     0.123 A 
HETATM   13  C18 UNK     1      34.827  -9.561  33.393  1.00  0.00     0.014 A 
HETATM   14  O2  UNK     1      35.017  -5.885  33.056  1.00  0.00    -0.271 OA
HETATM   15  C19 UNK     1      35.478  -7.628  31.477  1.00  0.00     0.102 A 
HETATM   16  C15 UNK     1      34.628  -5.420  34.311  1.00  0.00     0.304 A 
HETATM   17  O3  UNK     1      34.576  -4.220  34.559  1.00  0.00    -0.259 OA
HETATM   18  C21 UNK     1      35.550  -8.981  31.154  1.00  0.00     0.040 A 
HETATM   19  C20 UNK     1      35.225  -9.946  32.109  1.00  0.00     0.004 A 
BRANCH  15  20
HETATM   20  O4  UNK     1      35.796  -6.692  30.544  1.00  0.00    -0.353 OA
HETATM   21  C22 UNK     1      35.031  -6.690  29.337  1.00  0.00     0.210 C 
ENDBRANCH  15  20
ENDBRANCH   8   9
BRANCH   2  22
HETATM   22  C5  UNK     1      28.685  -7.129  38.178  1.00  0.00     0.037 A 
HETATM   23  C7  UNK     1      27.626  -6.259  38.537  1.00  0.00    -0.035 A 
HETATM   24  C10 UNK     1      26.397  -6.751  38.977  1.00  0.00     0.011 A 
HETATM   25  C11 UNK     1      27.821  -4.780  38.447  1.00  0.00     0.050 C 
HETATM   26  C14 UNK     1      26.190  -8.128  39.069  1.00  0.00     0.024 A 
HETATM   27  C12 UNK     1      27.212  -9.011  38.723  1.00  0.00     0.036 A 
HETATM   28 Cl1  UNK     1      26.956 -10.709  38.838  1.00  0.00    -0.084 Cl
HETATM   29  C8  UNK     1      28.441  -8.519  38.283  1.00  0.00     0.053 A 
ENDBRANCH   2  22
TORSDOF 3
ENDMDL
