MODEL 1
REMARK VINA RESULT:      -7.5      0.000      0.000
REMARK  9 active torsions:
REMARK  status: ('A' for Active; 'I' for Inactive)
REMARK    1  A    between atoms: C25_34  and  S1_1 
REMARK    2  A    between atoms: C26_35  and  S1_1 
REMARK    3  A    between atoms: C12_21  and  O2_3 
REMARK    4  A    between atoms: C14_23  and  O5_6 
REMARK    5  A    between atoms: C21_30  and  O5_6 
REMARK    6  A    between atoms: C12_21  and  C2_11 
REMARK    7  A    between atoms: C11_20  and  C6_15 
REMARK    8  A    between atoms: C14_23  and  C8_17 
REMARK    9  A    between atoms: C21_30  and  C25_34 
ROOT
HETATM    1  O1  UNK     1      29.100  -9.644  36.049  1.00  0.00    -0.292 OA
HETATM    2  N1  UNK     1      29.997  -5.305  37.706  1.00  0.00    -0.362 N 
HETATM    3  C1  UNK     1      27.500  -7.889  38.844  1.00  0.00     0.008 C 
HETATM    4  C2  UNK     1      28.084  -9.126  38.148  1.00  0.00     0.164 C 
HETATM    5  C3  UNK     1      28.571  -6.804  39.026  1.00  0.00     0.063 C 
HETATM    6  C4  UNK     1      29.484  -7.420  36.768  1.00  0.00     0.025 C 
HETATM    7  C5  UNK     1      29.365  -6.532  37.778  1.00  0.00     0.020 C 
HETATM    8  C6  UNK     1      30.271  -7.077  35.507  1.00  0.00     0.104 C 
HETATM    9  C7  UNK     1      28.889  -8.785  36.905  1.00  0.00     0.172 C 
HETATM   10  C8  UNK     1      31.030  -5.754  35.625  1.00  0.00     0.052 C 
HETATM   11  C9  UNK     1      26.284  -7.349  38.079  1.00  0.00     0.011 C 
HETATM   12  C10 UNK     1      30.849  -4.927  36.680  1.00  0.00     0.018 C 
HETATM   13  C13 UNK     1      31.507  -3.587  36.862  1.00  0.00     0.069 C 
HETATM   14  H9  UNK     1      29.881  -4.668  38.485  1.00  0.00     0.165 HD
ENDROOT
BRANCH   8  15
HETATM   15  C11 UNK     1      29.353  -7.046  34.314  1.00  0.00     0.029 A 
HETATM   16  C15 UNK     1      29.607  -7.994  33.200  1.00  0.00     0.194 A 
HETATM   17  O7  UNK     1      30.532  -8.795  33.225  1.00  0.00    -0.287 OA
HETATM   18  C17 UNK     1      28.681  -7.921  32.055  1.00  0.00     0.048 A 
HETATM   19  C18 UNK     1      27.643  -6.989  32.081  1.00  0.00     0.089 A 
HETATM   20  C19 UNK     1      28.835  -8.771  30.958  1.00  0.00     0.018 A 
HETATM   21  O4  UNK     1      27.444  -6.130  33.133  1.00  0.00    -0.321 OA
HETATM   22  C22 UNK     1      26.754  -6.902  31.010  1.00  0.00     0.038 A 
HETATM   23  C16 UNK     1      28.315  -6.209  34.192  1.00  0.00     0.154 A 
HETATM   24  C24 UNK     1      26.906  -7.750  29.912  1.00  0.00     0.003 A 
HETATM   25  C23 UNK     1      27.946  -8.683  29.887  1.00  0.00     0.001 A 
ENDBRANCH   8  15
BRANCH  10  26
HETATM   26  C14 UNK     1      31.999  -5.454  34.558  1.00  0.00     0.292 C 
HETATM   27  O6  UNK     1      31.788  -4.649  33.670  1.00  0.00    -0.259 OA
BRANCH  26  28
HETATM   28  O5  UNK     1      33.104  -6.212  34.758  1.00  0.00    -0.317 OA
BRANCH  28  29
HETATM   29  C21 UNK     1      34.332  -5.482  34.852  1.00  0.00     0.189 C 
BRANCH  29  30
HETATM   30  C25 UNK     1      35.216  -6.085  35.931  1.00  0.00     0.100 C 
BRANCH  30  31
HETATM   31  S1  UNK     1      34.375  -6.106  37.544  1.00  0.00    -0.167 SA
BRANCH  31  32
HETATM   32  C26 UNK     1      33.625  -7.745  37.425  1.00  0.00     0.069 C 
HETATM   33  C27 UNK     1      32.491  -7.886  38.423  1.00  0.00     0.016 C 
ENDBRANCH  31  32
ENDBRANCH  30  31
ENDBRANCH  29  30
ENDBRANCH  28  29
ENDBRANCH  26  28
ENDBRANCH  10  26
BRANCH   4  34
HETATM   34  C12 UNK     1      28.886  -9.933  39.124  1.00  0.00     0.270 C 
HETATM   35  O3  UNK     1      30.048 -10.270  38.944  1.00  0.00    -0.264 OA
BRANCH  34  36
HETATM   36  O2  UNK     1      28.119 -10.220  40.216  1.00  0.00    -0.326 OA
HETATM   37  C20 UNK     1      28.819 -10.797  41.323  1.00  0.00     0.213 C 
ENDBRANCH  34  36
ENDBRANCH   4  34
TORSDOF 9
ENDMDL
MODEL 2
REMARK VINA RESULT:      -7.5      2.895      4.491
REMARK  9 active torsions:
REMARK  status: ('A' for Active; 'I' for Inactive)
REMARK    1  A    between atoms: C25_34  and  S1_1 
REMARK    2  A    between atoms: C26_35  and  S1_1 
REMARK    3  A    between atoms: C12_21  and  O2_3 
REMARK    4  A    between atoms: C14_23  and  O5_6 
REMARK    5  A    between atoms: C21_30  and  O5_6 
REMARK    6  A    between atoms: C12_21  and  C2_11 
REMARK    7  A    between atoms: C11_20  and  C6_15 
REMARK    8  A    between atoms: C14_23  and  C8_17 
REMARK    9  A    between atoms: C21_30  and  C25_34 
ROOT
HETATM    1  O1  UNK     1      29.370  -9.815  35.666  1.00  0.00    -0.292 OA
HETATM    2  N1  UNK     1      33.806  -8.175  35.746  1.00  0.00    -0.362 N 
HETATM    3  C1  UNK     1      31.002  -7.763  38.230  1.00  0.00     0.008 C 
HETATM    4  C2  UNK     1      30.075  -8.888  37.752  1.00  0.00     0.164 C 
HETATM    5  C3  UNK     1      32.449  -8.015  37.785  1.00  0.00     0.063 C 
HETATM    6  C4  UNK     1      31.555  -8.901  35.611  1.00  0.00     0.025 C 
HETATM    7  C5  UNK     1      32.572  -8.383  36.332  1.00  0.00     0.020 C 
HETATM    8  C6  UNK     1      31.723  -9.220  34.129  1.00  0.00     0.104 C 
HETATM    9  C7  UNK     1      30.258  -9.225  36.282  1.00  0.00     0.172 C 
HETATM   10  C8  UNK     1      33.170  -9.076  33.653  1.00  0.00     0.052 C 
HETATM   11  C9  UNK     1      30.502  -6.395  37.749  1.00  0.00     0.011 C 
HETATM   12  C10 UNK     1      34.127  -8.548  34.451  1.00  0.00     0.018 C 
HETATM   13  C13 UNK     1      35.561  -8.319  34.060  1.00  0.00     0.069 C 
HETATM   14  H9  UNK     1      34.542  -7.784  36.323  1.00  0.00     0.165 HD
ENDROOT
BRANCH   8  15
HETATM   15  C11 UNK     1      30.815  -8.349  33.303  1.00  0.00     0.029 A 
HETATM   16  C15 UNK     1      29.790  -9.002  32.451  1.00  0.00     0.194 A 
HETATM   17  O7  UNK     1      29.661 -10.218  32.402  1.00  0.00    -0.287 OA
HETATM   18  C17 UNK     1      28.928  -8.103  31.660  1.00  0.00     0.048 A 
HETATM   19  C18 UNK     1      29.119  -6.724  31.755  1.00  0.00     0.089 A 
HETATM   20  C19 UNK     1      27.933  -8.620  30.828  1.00  0.00     0.018 A 
HETATM   21  O4  UNK     1      30.080  -6.162  32.557  1.00  0.00    -0.321 OA
HETATM   22  C22 UNK     1      28.315  -5.855  31.017  1.00  0.00     0.038 A 
HETATM   23  C16 UNK     1      30.875  -7.011  33.286  1.00  0.00     0.154 A 
HETATM   24  C24 UNK     1      27.320  -6.369  30.184  1.00  0.00     0.003 A 
HETATM   25  C23 UNK     1      27.131  -7.749  30.090  1.00  0.00     0.001 A 
ENDBRANCH   8  15
BRANCH  10  26
HETATM   26  C14 UNK     1      33.474  -9.586  32.307  1.00  0.00     0.292 C 
HETATM   27  O6  UNK     1      33.535 -10.772  32.039  1.00  0.00    -0.259 OA
BRANCH  26  28
HETATM   28  O5  UNK     1      33.659  -8.530  31.480  1.00  0.00    -0.317 OA
BRANCH  28  29
HETATM   29  C21 UNK     1      33.021  -8.638  30.203  1.00  0.00     0.189 C 
BRANCH  29  30
HETATM   30  C25 UNK     1      32.330  -7.331  29.852  1.00  0.00     0.100 C 
BRANCH  30  31
HETATM   31  S1  UNK     1      31.014  -7.584  28.621  1.00  0.00    -0.167 SA
BRANCH  31  32
HETATM   32  C26 UNK     1      30.919  -9.385  28.710  1.00  0.00     0.069 C 
HETATM   33  C27 UNK     1      29.788  -9.903  27.842  1.00  0.00     0.016 C 
ENDBRANCH  31  32
ENDBRANCH  30  31
ENDBRANCH  29  30
ENDBRANCH  28  29
ENDBRANCH  26  28
ENDBRANCH  10  26
BRANCH   4  34
HETATM   34  C12 UNK     1      30.243 -10.097  38.623  1.00  0.00     0.270 C 
HETATM   35  O3  UNK     1      31.225 -10.826  38.602  1.00  0.00    -0.264 OA
BRANCH  34  36
HETATM   36  O2  UNK     1      29.145 -10.240  39.420  1.00  0.00    -0.326 OA
HETATM   37  C20 UNK     1      27.977  -9.535  38.988  1.00  0.00     0.213 C 
ENDBRANCH  34  36
ENDBRANCH   4  34
TORSDOF 9
ENDMDL
MODEL 3
REMARK VINA RESULT:      -7.5      2.054      5.643
REMARK  9 active torsions:
REMARK  status: ('A' for Active; 'I' for Inactive)
REMARK    1  A    between atoms: C25_34  and  S1_1 
REMARK    2  A    between atoms: C26_35  and  S1_1 
REMARK    3  A    between atoms: C12_21  and  O2_3 
REMARK    4  A    between atoms: C14_23  and  O5_6 
REMARK    5  A    between atoms: C21_30  and  O5_6 
REMARK    6  A    between atoms: C12_21  and  C2_11 
REMARK    7  A    between atoms: C11_20  and  C6_15 
REMARK    8  A    between atoms: C14_23  and  C8_17 
REMARK    9  A    between atoms: C21_30  and  C25_34 
ROOT
HETATM    1  O1  UNK     1      31.318  -5.152  33.769  1.00  0.00    -0.292 OA
HETATM    2  N1  UNK     1      32.274  -8.477  36.995  1.00  0.00    -0.362 N 
HETATM    3  C1  UNK     1      34.589  -6.374  34.893  1.00  0.00     0.008 C 
HETATM    4  C2  UNK     1      33.605  -5.283  34.450  1.00  0.00     0.164 C 
HETATM    5  C3  UNK     1      34.106  -7.063  36.176  1.00  0.00     0.063 C 
HETATM    6  C4  UNK     1      31.759  -6.913  35.292  1.00  0.00     0.025 C 
HETATM    7  C5  UNK     1      32.660  -7.476  36.124  1.00  0.00     0.020 C 
HETATM    8  C6  UNK     1      30.313  -7.397  35.254  1.00  0.00     0.104 C 
HETATM    9  C7  UNK     1      32.161  -5.756  34.434  1.00  0.00     0.172 C 
HETATM   10  C8  UNK     1      29.996  -8.402  36.362  1.00  0.00     0.052 C 
HETATM   11  C9  UNK     1      34.827  -7.391  33.770  1.00  0.00     0.011 C 
HETATM   12  C10 UNK     1      30.968  -8.911  37.154  1.00  0.00     0.018 C 
HETATM   13  C13 UNK     1      30.766  -9.938  38.234  1.00  0.00     0.069 C 
HETATM   14  H9  UNK     1      32.983  -8.874  37.602  1.00  0.00     0.165 HD
ENDROOT
BRANCH   8  15
HETATM   15  C11 UNK     1      29.999  -7.992  33.907  1.00  0.00     0.029 A 
HETATM   16  C15 UNK     1      28.826  -7.475  33.159  1.00  0.00     0.194 A 
HETATM   17  O7  UNK     1      28.113  -6.584  33.602  1.00  0.00    -0.287 OA
HETATM   18  C17 UNK     1      28.562  -8.093  31.846  1.00  0.00     0.048 A 
HETATM   19  C18 UNK     1      29.409  -9.105  31.392  1.00  0.00     0.089 A 
HETATM   20  C19 UNK     1      27.482  -7.675  31.066  1.00  0.00     0.018 A 
HETATM   21  O4  UNK     1      30.484  -9.553  32.116  1.00  0.00    -0.321 OA
HETATM   22  C22 UNK     1      29.179  -9.704  30.153  1.00  0.00     0.038 A 
HETATM   23  C16 UNK     1      30.717  -8.969  33.336  1.00  0.00     0.154 A 
HETATM   24  C24 UNK     1      28.100  -9.288  29.371  1.00  0.00     0.003 A 
HETATM   25  C23 UNK     1      27.254  -8.276  29.828  1.00  0.00     0.001 A 
ENDBRANCH   8  15
BRANCH  10  26
HETATM   26  C14 UNK     1      28.577  -8.746  36.553  1.00  0.00     0.292 C 
HETATM   27  O6  UNK     1      28.097  -9.813  36.217  1.00  0.00    -0.259 OA
BRANCH  26  28
HETATM   28  O5  UNK     1      27.958  -7.697  37.143  1.00  0.00    -0.317 OA
BRANCH  28  29
HETATM   29  C21 UNK     1      27.691  -7.856  38.541  1.00  0.00     0.189 C 
BRANCH  29  30
HETATM   30  C25 UNK     1      28.327  -6.721  39.327  1.00  0.00     0.100 C 
BRANCH  30  31
HETATM   31  S1  UNK     1      27.833  -5.099  38.667  1.00  0.00    -0.167 SA
BRANCH  31  32
HETATM   32  C26 UNK     1      29.479  -4.369  38.515  1.00  0.00     0.069 C 
HETATM   33  C27 UNK     1      30.547  -5.444  38.581  1.00  0.00     0.016 C 
ENDBRANCH  31  32
ENDBRANCH  30  31
ENDBRANCH  29  30
ENDBRANCH  28  29
ENDBRANCH  26  28
ENDBRANCH  10  26
BRANCH   4  34
HETATM   34  C12 UNK     1      33.779  -4.059  35.298  1.00  0.00     0.270 C 
HETATM   35  O3  UNK     1      34.632  -3.205  35.104  1.00  0.00    -0.264 OA
BRANCH  34  36
HETATM   36  O2  UNK     1      32.849  -4.062  36.297  1.00  0.00    -0.326 OA
HETATM   37  C20 UNK     1      32.132  -2.836  36.471  1.00  0.00     0.213 C 
ENDBRANCH  34  36
ENDBRANCH   4  34
TORSDOF 9
ENDMDL
MODEL 4
REMARK VINA RESULT:      -7.5      1.929      2.282
REMARK  9 active torsions:
REMARK  status: ('A' for Active; 'I' for Inactive)
REMARK    1  A    between atoms: C25_34  and  S1_1 
REMARK    2  A    between atoms: C26_35  and  S1_1 
REMARK    3  A    between atoms: C12_21  and  O2_3 
REMARK    4  A    between atoms: C14_23  and  O5_6 
REMARK    5  A    between atoms: C21_30  and  O5_6 
REMARK    6  A    between atoms: C12_21  and  C2_11 
REMARK    7  A    between atoms: C11_20  and  C6_15 
REMARK    8  A    between atoms: C14_23  and  C8_17 
REMARK    9  A    between atoms: C21_30  and  C25_34 
ROOT
HETATM    1  O1  UNK     1      28.667  -9.743  36.243  1.00  0.00    -0.292 OA
HETATM    2  N1  UNK     1      31.440  -6.084  37.384  1.00  0.00    -0.362 N 
HETATM    3  C1  UNK     1      28.262  -7.333  38.979  1.00  0.00     0.008 C 
HETATM    4  C2  UNK     1      28.205  -8.736  38.361  1.00  0.00     0.164 C 
HETATM    5  C3  UNK     1      29.694  -6.781  38.962  1.00  0.00     0.063 C 
HETATM    6  C4  UNK     1      30.004  -7.842  36.706  1.00  0.00     0.025 C 
HETATM    7  C5  UNK     1      30.377  -6.932  37.630  1.00  0.00     0.020 C 
HETATM    8  C6  UNK     1      30.708  -7.926  35.355  1.00  0.00     0.104 C 
HETATM    9  C7  UNK     1      28.926  -8.828  37.026  1.00  0.00     0.172 C 
HETATM   10  C8  UNK     1      31.947  -7.032  35.277  1.00  0.00     0.052 C 
HETATM   11  C9  UNK     1      27.290  -6.379  38.272  1.00  0.00     0.011 C 
HETATM   12  C10 UNK     1      32.244  -6.149  36.258  1.00  0.00     0.018 C 
HETATM   13  C13 UNK     1      33.407  -5.195  36.251  1.00  0.00     0.069 C 
HETATM   14  H9  UNK     1      31.686  -5.415  38.105  1.00  0.00     0.165 HD
ENDROOT
BRANCH   8  15
HETATM   15  C11 UNK     1      29.748  -7.581  34.247  1.00  0.00     0.029 A 
HETATM   16  C15 UNK     1      29.575  -8.548  33.134  1.00  0.00     0.194 A 
HETATM   17  O7  UNK     1      30.183  -9.610  33.093  1.00  0.00    -0.287 OA
HETATM   18  C17 UNK     1      28.625  -8.162  32.074  1.00  0.00     0.048 A 
HETATM   19  C18 UNK     1      27.959  -6.940  32.173  1.00  0.00     0.089 A 
HETATM   20  C19 UNK     1      28.392  -9.004  30.985  1.00  0.00     0.018 A 
HETATM   21  O4  UNK     1      28.149  -6.075  33.221  1.00  0.00    -0.321 OA
HETATM   22  C22 UNK     1      27.056  -6.554  31.183  1.00  0.00     0.038 A 
HETATM   23  C16 UNK     1      29.037  -6.448  34.200  1.00  0.00     0.154 A 
HETATM   24  C24 UNK     1      26.821  -7.393  30.093  1.00  0.00     0.003 A 
HETATM   25  C23 UNK     1      27.488  -8.616  29.995  1.00  0.00     0.001 A 
ENDBRANCH   8  15
BRANCH  10  26
HETATM   26  C14 UNK     1      32.821  -7.220  34.108  1.00  0.00     0.292 C 
HETATM   27  O6  UNK     1      32.859  -6.444  33.170  1.00  0.00    -0.259 OA
BRANCH  26  28
HETATM   28  O5  UNK     1      33.529  -8.362  34.280  1.00  0.00    -0.317 OA
BRANCH  28  29
HETATM   29  C21 UNK     1      33.927  -9.019  33.072  1.00  0.00     0.189 C 
BRANCH  29  30
HETATM   30  C25 UNK     1      35.261  -9.718  33.274  1.00  0.00     0.100 C 
BRANCH  30  31
HETATM   31  S1  UNK     1      36.579  -8.929  32.298  1.00  0.00    -0.167 SA
BRANCH  31  32
HETATM   32  C26 UNK     1      36.585  -7.322  33.121  1.00  0.00     0.069 C 
HETATM   33  C27 UNK     1      36.997  -7.468  34.574  1.00  0.00     0.016 C 
ENDBRANCH  31  32
ENDBRANCH  30  31
ENDBRANCH  29  30
ENDBRANCH  28  29
ENDBRANCH  26  28
ENDBRANCH  10  26
BRANCH   4  34
HETATM   34  C12 UNK     1      28.718  -9.749  39.339  1.00  0.00     0.270 C 
HETATM   35  O3  UNK     1      29.773 -10.355  39.209  1.00  0.00    -0.264 OA
BRANCH  34  36
HETATM   36  O2  UNK     1      27.833  -9.877  40.369  1.00  0.00    -0.326 OA
HETATM   37  C20 UNK     1      26.492 -10.202  39.989  1.00  0.00     0.213 C 
ENDBRANCH  34  36
ENDBRANCH   4  34
TORSDOF 9
ENDMDL
MODEL 5
REMARK VINA RESULT:      -7.5      2.524      3.759
REMARK  9 active torsions:
REMARK  status: ('A' for Active; 'I' for Inactive)
REMARK    1  A    between atoms: C25_34  and  S1_1 
REMARK    2  A    between atoms: C26_35  and  S1_1 
REMARK    3  A    between atoms: C12_21  and  O2_3 
REMARK    4  A    between atoms: C14_23  and  O5_6 
REMARK    5  A    between atoms: C21_30  and  O5_6 
REMARK    6  A    between atoms: C12_21  and  C2_11 
REMARK    7  A    between atoms: C11_20  and  C6_15 
REMARK    8  A    between atoms: C14_23  and  C8_17 
REMARK    9  A    between atoms: C21_30  and  C25_34 
ROOT
HETATM    1  O1  UNK     1      28.814  -9.521  35.972  1.00  0.00    -0.292 OA
HETATM    2  N1  UNK     1      32.828  -7.182  36.863  1.00  0.00    -0.362 N 
HETATM    3  C1  UNK     1      29.506  -7.101  38.641  1.00  0.00     0.008 C 
HETATM    4  C2  UNK     1      28.885  -8.385  38.073  1.00  0.00     0.164 C 
HETATM    5  C3  UNK     1      31.037  -7.138  38.541  1.00  0.00     0.063 C 
HETATM    6  C4  UNK     1      30.797  -8.269  36.310  1.00  0.00     0.025 C 
HETATM    7  C5  UNK     1      31.537  -7.557  37.185  1.00  0.00     0.020 C 
HETATM    8  C6  UNK     1      31.341  -8.633  34.932  1.00  0.00     0.104 C 
HETATM    9  C7  UNK     1      29.444  -8.763  36.711  1.00  0.00     0.172 C 
HETATM   10  C8  UNK     1      32.820  -8.281  34.768  1.00  0.00     0.052 C 
HETATM   11  C9  UNK     1      28.932  -5.859  37.946  1.00  0.00     0.011 C 
HETATM   12  C10 UNK     1      33.484  -7.565  35.705  1.00  0.00     0.018 C 
HETATM   13  C13 UNK     1      34.920  -7.127  35.613  1.00  0.00     0.069 C 
HETATM   14  H9  UNK     1      33.349  -6.647  37.549  1.00  0.00     0.165 HD
ENDROOT
BRANCH   8  15
HETATM   15  C11 UNK     1      30.525  -7.964  33.858  1.00  0.00     0.029 A 
HETATM   16  C15 UNK     1      29.783  -8.818  32.897  1.00  0.00     0.194 A 
HETATM   17  O7  UNK     1      29.813 -10.041  32.953  1.00  0.00    -0.287 OA
HETATM   18  C17 UNK     1      29.002  -8.113  31.863  1.00  0.00     0.048 A 
HETATM   19  C18 UNK     1      29.004  -6.718  31.846  1.00  0.00     0.089 A 
HETATM   20  C19 UNK     1      28.269  -8.828  30.913  1.00  0.00     0.018 A 
HETATM   21  O4  UNK     1      29.705  -5.967  32.755  1.00  0.00    -0.321 OA
HETATM   22  C22 UNK     1      28.272  -6.030  30.878  1.00  0.00     0.038 A 
HETATM   23  C16 UNK     1      30.428  -6.637  33.712  1.00  0.00     0.154 A 
HETATM   24  C24 UNK     1      27.539  -6.741  29.928  1.00  0.00     0.003 A 
HETATM   25  C23 UNK     1      27.538  -8.138  29.946  1.00  0.00     0.001 A 
ENDBRANCH   8  15
BRANCH  10  26
HETATM   26  C14 UNK     1      33.492  -8.805  33.568  1.00  0.00     0.292 C 
HETATM   27  O6  UNK     1      33.768  -9.981  33.415  1.00  0.00    -0.259 OA
BRANCH  26  28
HETATM   28  O5  UNK     1      33.724  -7.773  32.722  1.00  0.00    -0.317 OA
BRANCH  28  29
HETATM   29  C21 UNK     1      33.872  -8.136  31.346  1.00  0.00     0.189 C 
BRANCH  29  30
HETATM   30  C25 UNK     1      32.548  -7.974  30.617  1.00  0.00     0.100 C 
BRANCH  30  31
HETATM   31  S1  UNK     1      32.063  -9.510  29.771  1.00  0.00    -0.167 SA
BRANCH  31  32
HETATM   32  C26 UNK     1      31.107  -8.774  28.426  1.00  0.00     0.069 C 
HETATM   33  C27 UNK     1      31.006  -7.271  28.604  1.00  0.00     0.016 C 
ENDBRANCH  31  32
ENDBRANCH  30  31
ENDBRANCH  29  30
ENDBRANCH  28  29
ENDBRANCH  26  28
ENDBRANCH  10  26
BRANCH   4  34
HETATM   34  C12 UNK     1      29.027  -9.504  39.062  1.00  0.00     0.270 C 
HETATM   35  O3  UNK     1      29.918 -10.341  39.026  1.00  0.00    -0.264 OA
BRANCH  34  36
HETATM   36  O2  UNK     1      28.021  -9.430  39.979  1.00  0.00    -0.326 OA
HETATM   37  C20 UNK     1      26.696  -9.424  39.439  1.00  0.00     0.213 C 
ENDBRANCH  34  36
ENDBRANCH   4  34
TORSDOF 9
ENDMDL
MODEL 6
REMARK VINA RESULT:      -7.4      3.072      5.686
REMARK  9 active torsions:
REMARK  status: ('A' for Active; 'I' for Inactive)
REMARK    1  A    between atoms: C25_34  and  S1_1 
REMARK    2  A    between atoms: C26_35  and  S1_1 
REMARK    3  A    between atoms: C12_21  and  O2_3 
REMARK    4  A    between atoms: C14_23  and  O5_6 
REMARK    5  A    between atoms: C21_30  and  O5_6 
REMARK    6  A    between atoms: C12_21  and  C2_11 
REMARK    7  A    between atoms: C11_20  and  C6_15 
REMARK    8  A    between atoms: C14_23  and  C8_17 
REMARK    9  A    between atoms: C21_30  and  C25_34 
ROOT
HETATM    1  O1  UNK     1      31.378  -5.739  37.082  1.00  0.00    -0.292 OA
HETATM    2  N1  UNK     1      27.874  -7.112  34.217  1.00  0.00    -0.362 N 
HETATM    3  C1  UNK     1      28.612  -8.041  37.793  1.00  0.00     0.008 C 
HETATM    4  C2  UNK     1      29.592  -6.915  38.149  1.00  0.00     0.164 C 
HETATM    5  C3  UNK     1      27.722  -7.643  36.608  1.00  0.00     0.063 C 
HETATM    6  C4  UNK     1      29.714  -6.507  35.580  1.00  0.00     0.025 C 
HETATM    7  C5  UNK     1      28.491  -7.063  35.452  1.00  0.00     0.020 C 
HETATM    8  C6  UNK     1      30.465  -5.969  34.367  1.00  0.00     0.104 C 
HETATM    9  C7  UNK     1      30.324  -6.359  36.938  1.00  0.00     0.172 C 
HETATM   10  C8  UNK     1      29.611  -5.958  33.099  1.00  0.00     0.052 C 
HETATM   11  C9  UNK     1      29.358  -9.352  37.515  1.00  0.00     0.011 C 
HETATM   12  C10 UNK     1      28.389  -6.538  33.065  1.00  0.00     0.018 C 
HETATM   13  C13 UNK     1      27.496  -6.625  31.858  1.00  0.00     0.069 C 
HETATM   14  H9  UNK     1      26.956  -7.539  34.164  1.00  0.00     0.165 HD
ENDROOT
BRANCH   8  15
HETATM   15  C11 UNK     1      31.724  -6.763  34.140  1.00  0.00     0.029 A 
HETATM   16  C15 UNK     1      33.025  -6.050  34.159  1.00  0.00     0.194 A 
HETATM   17  O7  UNK     1      33.105  -4.845  34.356  1.00  0.00    -0.287 OA
HETATM   18  C17 UNK     1      34.226  -6.875  33.929  1.00  0.00     0.048 A 
HETATM   19  C18 UNK     1      34.076  -8.244  33.711  1.00  0.00     0.089 A 
HETATM   20  C19 UNK     1      35.498  -6.297  33.929  1.00  0.00     0.018 A 
HETATM   21  O4  UNK     1      32.852  -8.864  33.701  1.00  0.00    -0.321 OA
HETATM   22  C22 UNK     1      35.198  -9.044  33.491  1.00  0.00     0.038 A 
HETATM   23  C16 UNK     1      31.743  -8.084  33.917  1.00  0.00     0.154 A 
HETATM   24  C24 UNK     1      36.470  -8.470  33.491  1.00  0.00     0.003 A 
HETATM   25  C23 UNK     1      36.618  -7.099  33.709  1.00  0.00     0.001 A 
ENDBRANCH   8  15
BRANCH  10  26
HETATM   26  C14 UNK     1      30.164  -5.242  31.938  1.00  0.00     0.292 C 
HETATM   27  O6  UNK     1      30.024  -4.046  31.761  1.00  0.00    -0.259 OA
BRANCH  26  28
HETATM   28  O5  UNK     1      30.821  -6.134  31.158  1.00  0.00    -0.317 OA
BRANCH  28  29
HETATM   29  C21 UNK     1      30.600  -5.990  29.751  1.00  0.00     0.189 C 
BRANCH  29  30
HETATM   30  C25 UNK     1      31.356  -7.067  28.991  1.00  0.00     0.100 C 
BRANCH  30  31
HETATM   31  S1  UNK     1      32.533  -7.940  30.070  1.00  0.00    -0.167 SA
BRANCH  31  32
HETATM   32  C26 UNK     1      34.059  -7.454  29.236  1.00  0.00     0.069 C 
HETATM   33  C27 UNK     1      35.101  -7.012  30.246  1.00  0.00     0.016 C 
ENDBRANCH  31  32
ENDBRANCH  30  31
ENDBRANCH  29  30
ENDBRANCH  28  29
ENDBRANCH  26  28
ENDBRANCH  10  26
BRANCH   4  34
HETATM   34  C12 UNK     1      28.881  -5.836  38.909  1.00  0.00     0.270 C 
HETATM   35  O3  UNK     1      28.079  -6.046  39.809  1.00  0.00    -0.264 OA
BRANCH  34  36
HETATM   36  O2  UNK     1      29.268  -4.616  38.438  1.00  0.00    -0.326 OA
HETATM   37  C20 UNK     1      29.564  -3.637  39.439  1.00  0.00     0.213 C 
ENDBRANCH  34  36
ENDBRANCH   4  34
TORSDOF 9
ENDMDL
MODEL 7
REMARK VINA RESULT:      -7.3      3.660      6.389
REMARK  9 active torsions:
REMARK  status: ('A' for Active; 'I' for Inactive)
REMARK    1  A    between atoms: C25_34  and  S1_1 
REMARK    2  A    between atoms: C26_35  and  S1_1 
REMARK    3  A    between atoms: C12_21  and  O2_3 
REMARK    4  A    between atoms: C14_23  and  O5_6 
REMARK    5  A    between atoms: C21_30  and  O5_6 
REMARK    6  A    between atoms: C12_21  and  C2_11 
REMARK    7  A    between atoms: C11_20  and  C6_15 
REMARK    8  A    between atoms: C14_23  and  C8_17 
REMARK    9  A    between atoms: C21_30  and  C25_34 
ROOT
HETATM    1  O1  UNK     1      33.439  -7.725  30.587  1.00  0.00    -0.292 OA
HETATM    2  N1  UNK     1      33.449  -9.562  34.946  1.00  0.00    -0.362 N 
HETATM    3  C1  UNK     1      34.717 -10.981  31.693  1.00  0.00     0.008 C 
HETATM    4  C2  UNK     1      34.767  -9.693  30.859  1.00  0.00     0.164 C 
HETATM    5  C3  UNK     1      34.766 -10.667  33.195  1.00  0.00     0.063 C 
HETATM    6  C4  UNK     1      33.308  -8.668  32.757  1.00  0.00     0.025 C 
HETATM    7  C5  UNK     1      33.806  -9.586  33.611  1.00  0.00     0.020 C 
HETATM    8  C6  UNK     1      32.306  -7.618  33.225  1.00  0.00     0.104 C 
HETATM    9  C7  UNK     1      33.787  -8.636  31.340  1.00  0.00     0.172 C 
HETATM   10  C8  UNK     1      32.114  -7.619  34.743  1.00  0.00     0.052 C 
HETATM   11  C9  UNK     1      33.482 -11.819  31.339  1.00  0.00     0.011 C 
HETATM   12  C10 UNK     1      32.657  -8.582  35.523  1.00  0.00     0.018 C 
HETATM   13  C13 UNK     1      32.486  -8.699  37.012  1.00  0.00     0.069 C 
HETATM   14  H9  UNK     1      33.845 -10.271  35.554  1.00  0.00     0.165 HD
ENDROOT
BRANCH   8  15
HETATM   15  C11 UNK     1      30.984  -7.816  32.533  1.00  0.00     0.029 A 
HETATM   16  C15 UNK     1      30.344  -6.646  31.880  1.00  0.00     0.194 A 
HETATM   17  O7  UNK     1      30.858  -5.535  31.886  1.00  0.00    -0.287 OA
HETATM   18  C17 UNK     1      29.049  -6.893  31.219  1.00  0.00     0.048 A 
HETATM   19  C18 UNK     1      28.511  -8.180  31.243  1.00  0.00     0.089 A 
HETATM   20  C19 UNK     1      28.369  -5.857  30.576  1.00  0.00     0.018 A 
HETATM   21  O4  UNK     1      29.137  -9.234  31.859  1.00  0.00    -0.321 OA
HETATM   22  C22 UNK     1      27.288  -8.438  30.624  1.00  0.00     0.038 A 
HETATM   23  C16 UNK     1      30.342  -8.989  32.471  1.00  0.00     0.154 A 
HETATM   24  C24 UNK     1      26.605  -7.405  29.981  1.00  0.00     0.003 A 
HETATM   25  C23 UNK     1      27.145  -6.117  29.958  1.00  0.00     0.001 A 
ENDBRANCH   8  15
BRANCH  10  26
HETATM   26  C14 UNK     1      31.353  -6.495  35.311  1.00  0.00     0.292 C 
HETATM   27  O6  UNK     1      30.136  -6.457  35.336  1.00  0.00    -0.259 OA
BRANCH  26  28
HETATM   28  O5  UNK     1      32.230  -5.572  35.770  1.00  0.00    -0.317 OA
BRANCH  28  29
HETATM   29  C21 UNK     1      32.428  -4.442  34.913  1.00  0.00     0.189 C 
BRANCH  29  30
HETATM   30  C25 UNK     1      33.900  -4.067  34.875  1.00  0.00     0.100 C 
BRANCH  30  31
HETATM   31  S1  UNK     1      34.914  -5.260  35.803  1.00  0.00    -0.167 SA
BRANCH  31  32
HETATM   32  C26 UNK     1      35.550  -6.205  34.401  1.00  0.00     0.069 C 
HETATM   33  C27 UNK     1      36.561  -7.235  34.868  1.00  0.00     0.016 C 
ENDBRANCH  31  32
ENDBRANCH  30  31
ENDBRANCH  29  30
ENDBRANCH  28  29
ENDBRANCH  26  28
ENDBRANCH  10  26
BRANCH   4  34
HETATM   34  C12 UNK     1      36.170  -9.167  30.810  1.00  0.00     0.270 C 
HETATM   35  O3  UNK     1      36.647  -8.407  31.641  1.00  0.00    -0.264 OA
BRANCH  34  36
HETATM   36  O2  UNK     1      36.805  -9.667  29.711  1.00  0.00    -0.326 OA
HETATM   37  C20 UNK     1      37.917 -10.526  29.982  1.00  0.00     0.213 C 
ENDBRANCH  34  36
ENDBRANCH   4  34
TORSDOF 9
ENDMDL
MODEL 8
REMARK VINA RESULT:      -7.3      3.898      7.680
REMARK  9 active torsions:
REMARK  status: ('A' for Active; 'I' for Inactive)
REMARK    1  A    between atoms: C25_34  and  S1_1 
REMARK    2  A    between atoms: C26_35  and  S1_1 
REMARK    3  A    between atoms: C12_21  and  O2_3 
REMARK    4  A    between atoms: C14_23  and  O5_6 
REMARK    5  A    between atoms: C21_30  and  O5_6 
REMARK    6  A    between atoms: C12_21  and  C2_11 
REMARK    7  A    between atoms: C11_20  and  C6_15 
REMARK    8  A    between atoms: C14_23  and  C8_17 
REMARK    9  A    between atoms: C21_30  and  C25_34 
ROOT
HETATM    1  O1  UNK     1      33.333  -9.480  34.586  1.00  0.00    -0.292 OA
HETATM    2  N1  UNK     1      33.288  -7.267  30.406  1.00  0.00    -0.362 N 
HETATM    3  C1  UNK     1      36.179  -8.429  32.525  1.00  0.00     0.008 C 
HETATM    4  C2  UNK     1      35.437  -9.397  33.455  1.00  0.00     0.164 C 
HETATM    5  C3  UNK     1      35.401  -8.213  31.220  1.00  0.00     0.063 C 
HETATM    6  C4  UNK     1      33.276  -8.255  32.559  1.00  0.00     0.025 C 
HETATM    7  C5  UNK     1      33.943  -7.914  31.436  1.00  0.00     0.020 C 
HETATM    8  C6  UNK     1      31.805  -7.893  32.741  1.00  0.00     0.104 C 
HETATM    9  C7  UNK     1      33.965  -9.053  33.619  1.00  0.00     0.172 C 
HETATM   10  C8  UNK     1      31.177  -7.311  31.474  1.00  0.00     0.052 C 
HETATM   11  C9  UNK     1      36.465  -7.097  33.231  1.00  0.00     0.011 C 
HETATM   12  C10 UNK     1      31.928  -7.003  30.391  1.00  0.00     0.018 C 
HETATM   13  C13 UNK     1      31.415  -6.382  29.121  1.00  0.00     0.069 C 
HETATM   14  H9  UNK     1      33.827  -7.027  29.581  1.00  0.00     0.165 HD
ENDROOT
BRANCH   8  15
HETATM   15  C11 UNK     1      31.645  -6.933  33.890  1.00  0.00     0.029 A 
HETATM   16  C15 UNK     1      30.728  -7.300  34.997  1.00  0.00     0.194 A 
HETATM   17  O7  UNK     1      30.104  -8.353  35.005  1.00  0.00    -0.287 OA
HETATM   18  C17 UNK     1      30.605  -6.324  36.096  1.00  0.00     0.048 A 
HETATM   19  C18 UNK     1      31.340  -5.139  36.034  1.00  0.00     0.089 A 
HETATM   20  C19 UNK     1      29.768  -6.577  37.184  1.00  0.00     0.018 A 
HETATM   21  O4  UNK     1      32.178  -4.840  34.990  1.00  0.00    -0.321 OA
HETATM   22  C22 UNK     1      31.241  -4.201  37.062  1.00  0.00     0.038 A 
HETATM   23  C16 UNK     1      32.282  -5.758  33.975  1.00  0.00     0.154 A 
HETATM   24  C24 UNK     1      30.404  -4.452  38.151  1.00  0.00     0.003 A 
HETATM   25  C23 UNK     1      29.669  -5.637  38.211  1.00  0.00     0.001 A 
ENDBRANCH   8  15
BRANCH  10  26
HETATM   26  C14 UNK     1      29.714  -7.152  31.478  1.00  0.00     0.292 C 
HETATM   27  O6  UNK     1      29.155  -6.123  31.811  1.00  0.00    -0.259 OA
BRANCH  26  28
HETATM   28  O5  UNK     1      29.156  -8.312  31.060  1.00  0.00    -0.317 OA
BRANCH  28  29
HETATM   29  C21 UNK     1      28.268  -8.192  29.943  1.00  0.00     0.189 C 
BRANCH  29  30
HETATM   30  C25 UNK     1      28.290  -9.469  29.119  1.00  0.00     0.100 C 
BRANCH  30  31
HETATM   31  S1  UNK     1      29.879  -9.676  28.257  1.00  0.00    -0.167 SA
BRANCH  31  32
HETATM   32  C26 UNK     1      30.528 -11.048  29.236  1.00  0.00     0.069 C 
HETATM   33  C27 UNK     1      31.849 -10.668  29.878  1.00  0.00     0.016 C 
ENDBRANCH  31  32
ENDBRANCH  30  31
ENDBRANCH  29  30
ENDBRANCH  28  29
ENDBRANCH  26  28
ENDBRANCH  10  26
BRANCH   4  34
HETATM   34  C12 UNK     1      35.627 -10.808  32.985  1.00  0.00     0.270 C 
HETATM   35  O3  UNK     1      34.710 -11.584  32.755  1.00  0.00    -0.264 OA
BRANCH  34  36
HETATM   36  O2  UNK     1      36.960 -11.071  32.861  1.00  0.00    -0.326 OA
HETATM   37  C20 UNK     1      37.504 -11.958  33.843  1.00  0.00     0.213 C 
ENDBRANCH  34  36
ENDBRANCH   4  34
TORSDOF 9
ENDMDL
MODEL 9
REMARK VINA RESULT:      -7.3      3.831      6.254
REMARK  9 active torsions:
REMARK  status: ('A' for Active; 'I' for Inactive)
REMARK    1  A    between atoms: C25_34  and  S1_1 
REMARK    2  A    between atoms: C26_35  and  S1_1 
REMARK    3  A    between atoms: C12_21  and  O2_3 
REMARK    4  A    between atoms: C14_23  and  O5_6 
REMARK    5  A    between atoms: C21_30  and  O5_6 
REMARK    6  A    between atoms: C12_21  and  C2_11 
REMARK    7  A    between atoms: C11_20  and  C6_15 
REMARK    8  A    between atoms: C14_23  and  C8_17 
REMARK    9  A    between atoms: C21_30  and  C25_34 
ROOT
HETATM    1  O1  UNK     1      31.427  -6.899  35.830  1.00  0.00    -0.292 OA
HETATM    2  N1  UNK     1      35.405  -8.674  33.987  1.00  0.00    -0.362 N 
HETATM    3  C1  UNK     1      34.754  -5.364  35.666  1.00  0.00     0.008 C 
HETATM    4  C2  UNK     1      33.419  -5.687  36.351  1.00  0.00     0.164 C 
HETATM    5  C3  UNK     1      35.541  -6.645  35.361  1.00  0.00     0.063 C 
HETATM    6  C4  UNK     1      33.368  -7.763  34.781  1.00  0.00     0.025 C 
HETATM    7  C5  UNK     1      34.714  -7.712  34.698  1.00  0.00     0.020 C 
HETATM    8  C6  UNK     1      32.575  -8.846  34.056  1.00  0.00     0.104 C 
HETATM    9  C7  UNK     1      32.639  -6.783  35.644  1.00  0.00     0.172 C 
HETATM   10  C8  UNK     1      33.470  -9.918  33.432  1.00  0.00     0.052 C 
HETATM   11  C9  UNK     1      34.534  -4.530  34.397  1.00  0.00     0.011 C 
HETATM   12  C10 UNK     1      34.816  -9.782  33.398  1.00  0.00     0.018 C 
HETATM   13  C13 UNK     1      35.776 -10.751  32.766  1.00  0.00     0.069 C 
HETATM   14  H9  UNK     1      36.416  -8.598  33.948  1.00  0.00     0.165 HD
ENDROOT
BRANCH   8  15
HETATM   15  C11 UNK     1      31.693  -8.228  33.004  1.00  0.00     0.029 A 
HETATM   16  C15 UNK     1      30.254  -8.592  32.983  1.00  0.00     0.194 A 
HETATM   17  O7  UNK     1      29.767  -9.373  33.791  1.00  0.00    -0.287 OA
HETATM   18  C17 UNK     1      29.435  -7.961  31.932  1.00  0.00     0.048 A 
HETATM   19  C18 UNK     1      30.042  -7.079  31.038  1.00  0.00     0.089 A 
HETATM   20  C19 UNK     1      28.070  -8.239  31.828  1.00  0.00     0.018 A 
HETATM   21  O4  UNK     1      31.378  -6.769  31.093  1.00  0.00    -0.321 OA
HETATM   22  C22 UNK     1      29.287  -6.469  30.035  1.00  0.00     0.038 A 
HETATM   23  C16 UNK     1      32.128  -7.365  32.077  1.00  0.00     0.154 A 
HETATM   24  C24 UNK     1      27.923  -6.745  29.930  1.00  0.00     0.003 A 
HETATM   25  C23 UNK     1      27.317  -7.628  30.825  1.00  0.00     0.001 A 
ENDBRANCH   8  15
BRANCH  10  26
HETATM   26  C14 UNK     1      32.797 -11.121  32.918  1.00  0.00     0.292 C 
HETATM   27  O6  UNK     1      32.412 -12.028  33.632  1.00  0.00    -0.259 OA
BRANCH  26  28
HETATM   28  O5  UNK     1      32.699 -11.014  31.571  1.00  0.00    -0.317 OA
BRANCH  28  29
HETATM   29  C21 UNK     1      31.716 -11.860  30.964  1.00  0.00     0.189 C 
BRANCH  29  30
HETATM   30  C25 UNK     1      30.682 -11.019  30.234  1.00  0.00     0.100 C 
BRANCH  30  31
HETATM   31  S1  UNK     1      31.469  -9.848  29.086  1.00  0.00    -0.167 SA
BRANCH  31  32
HETATM   32  C26 UNK     1      30.018  -9.446  28.089  1.00  0.00     0.069 C 
HETATM   33  C27 UNK     1      28.837 -10.308  28.495  1.00  0.00     0.016 C 
ENDBRANCH  31  32
ENDBRANCH  30  31
ENDBRANCH  29  30
ENDBRANCH  28  29
ENDBRANCH  26  28
ENDBRANCH  10  26
BRANCH   4  34
HETATM   34  C12 UNK     1      33.650  -6.014  37.796  1.00  0.00     0.270 C 
HETATM   35  O3  UNK     1      34.254  -7.003  38.187  1.00  0.00    -0.264 OA
BRANCH  34  36
HETATM   36  O2  UNK     1      33.086  -5.048  38.577  1.00  0.00    -0.326 OA
HETATM   37  C20 UNK     1      31.658  -4.976  38.527  1.00  0.00     0.213 C 
ENDBRANCH  34  36
ENDBRANCH   4  34
TORSDOF 9
ENDMDL
MODEL 10
REMARK VINA RESULT:      -7.3      2.655      6.582
REMARK  9 active torsions:
REMARK  status: ('A' for Active; 'I' for Inactive)
REMARK    1  A    between atoms: C25_34  and  S1_1 
REMARK    2  A    between atoms: C26_35  and  S1_1 
REMARK    3  A    between atoms: C12_21  and  O2_3 
REMARK    4  A    between atoms: C14_23  and  O5_6 
REMARK    5  A    between atoms: C21_30  and  O5_6 
REMARK    6  A    between atoms: C12_21  and  C2_11 
REMARK    7  A    between atoms: C11_20  and  C6_15 
REMARK    8  A    between atoms: C14_23  and  C8_17 
REMARK    9  A    between atoms: C21_30  and  C25_34 
ROOT
HETATM    1  O1  UNK     1      32.302  -7.692  36.791  1.00  0.00    -0.292 OA
HETATM    2  N1  UNK     1      30.910  -5.171  33.039  1.00  0.00    -0.362 N 
HETATM    3  C1  UNK     1      32.960  -4.164  36.036  1.00  0.00     0.008 C 
HETATM    4  C2  UNK     1      33.344  -5.555  36.557  1.00  0.00     0.164 C 
HETATM    5  C3  UNK     1      32.594  -4.215  34.547  1.00  0.00     0.063 C 
HETATM    6  C4  UNK     1      31.477  -6.426  34.966  1.00  0.00     0.025 C 
HETATM    7  C5  UNK     1      31.636  -5.324  34.204  1.00  0.00     0.020 C 
HETATM    8  C6  UNK     1      30.463  -7.502  34.592  1.00  0.00     0.104 C 
HETATM    9  C7  UNK     1      32.348  -6.633  36.164  1.00  0.00     0.172 C 
HETATM   10  C8  UNK     1      29.839  -7.273  33.214  1.00  0.00     0.052 C 
HETATM   11  C9  UNK     1      31.822  -3.559  36.869  1.00  0.00     0.011 C 
HETATM   12  C10 UNK     1      30.059  -6.133  32.519  1.00  0.00     0.018 C 
HETATM   13  C13 UNK     1      29.454  -5.793  31.185  1.00  0.00     0.069 C 
HETATM   14  H9  UNK     1      31.058  -4.327  32.497  1.00  0.00     0.165 HD
ENDROOT
BRANCH   8  15
HETATM   15  C11 UNK     1      29.388  -7.591  35.642  1.00  0.00     0.029 A 
HETATM   16  C15 UNK     1      29.308  -8.818  36.472  1.00  0.00     0.194 A 
HETATM   17  O7  UNK     1      30.087  -9.752  36.331  1.00  0.00    -0.287 OA
HETATM   18  C17 UNK     1      28.236  -8.855  37.485  1.00  0.00     0.048 A 
HETATM   19  C18 UNK     1      27.377  -7.762  37.601  1.00  0.00     0.089 A 
HETATM   20  C19 UNK     1      28.079  -9.966  38.316  1.00  0.00     0.018 A 
HETATM   21  O4  UNK     1      27.487  -6.645  36.812  1.00  0.00    -0.321 OA
HETATM   22  C22 UNK     1      26.356  -7.774  38.552  1.00  0.00     0.038 A 
HETATM   23  C16 UNK     1      28.489  -6.625  35.874  1.00  0.00     0.154 A 
HETATM   24  C24 UNK     1      26.197  -8.882  39.384  1.00  0.00     0.003 A 
HETATM   25  C23 UNK     1      27.056  -9.976  39.265  1.00  0.00     0.001 A 
ENDBRANCH   8  15
BRANCH  10  26
HETATM   26  C14 UNK     1      29.030  -8.374  32.667  1.00  0.00     0.292 C 
HETATM   27  O6  UNK     1      27.876  -8.240  32.303  1.00  0.00    -0.259 OA
BRANCH  26  28
HETATM   28  O5  UNK     1      29.789  -9.496  32.651  1.00  0.00    -0.317 OA
BRANCH  28  29
HETATM   29  C21 UNK     1      30.666  -9.622  31.527  1.00  0.00     0.189 C 
BRANCH  29  30
HETATM   30  C25 UNK     1      30.368 -10.907  30.773  1.00  0.00     0.100 C 
BRANCH  30  31
HETATM   31  S1  UNK     1      30.355 -10.635  28.974  1.00  0.00    -0.167 SA
BRANCH  31  32
HETATM   32  C26 UNK     1      29.380  -9.114  28.949  1.00  0.00     0.069 C 
HETATM   33  C27 UNK     1      27.898  -9.430  28.995  1.00  0.00     0.016 C 
ENDBRANCH  31  32
ENDBRANCH  30  31
ENDBRANCH  29  30
ENDBRANCH  28  29
ENDBRANCH  26  28
ENDBRANCH  10  26
BRANCH   4  34
HETATM   34  C12 UNK     1      34.736  -5.900  36.119  1.00  0.00     0.270 C 
HETATM   35  O3  UNK     1      35.747  -5.389  36.580  1.00  0.00    -0.264 OA
BRANCH  34  36
HETATM   36  O2  UNK     1      34.683  -6.855  35.146  1.00  0.00    -0.326 OA
HETATM   37  C20 UNK     1      35.458  -6.582  33.975  1.00  0.00     0.213 C 
ENDBRANCH  34  36
ENDBRANCH   4  34
TORSDOF 9
ENDMDL
