MODEL 1
REMARK VINA RESULT:      -8.2      0.000      0.000
REMARK  3 active torsions:
REMARK  status: ('A' for Active; 'I' for Inactive)
REMARK    1  A    between atoms: C9_13  and  O3_3 
REMARK    2  A    between atoms: C15_19  and  O4_4 
REMARK    3  A    between atoms: C3_7  and  C4_8 
ROOT
HETATM    1  O1  UNK     1      17.666   8.364  33.278  1.00  0.00    -0.309 OA
HETATM    2  O2  UNK     1      14.202   6.736  31.882  1.00  0.00    -0.287 OA
HETATM    3  C1  UNK     1      15.238   8.386  33.219  1.00  0.00     0.048 A 
HETATM    4  C2  UNK     1      16.459   8.894  33.658  1.00  0.00     0.093 A 
HETATM    5  C3  UNK     1      17.667   7.269  32.426  1.00  0.00     0.090 A 
HETATM    6  C5  UNK     1      15.236   7.231  32.308  1.00  0.00     0.187 A 
HETATM    7  C6  UNK     1      16.560   6.695  31.932  1.00  0.00     0.093 A 
HETATM    8  C7  UNK     1      14.039   8.968  33.638  1.00  0.00     0.021 A 
HETATM    9  C8  UNK     1      16.489   9.991  34.520  1.00  0.00     0.074 A 
HETATM   10  C9  UNK     1      15.293  10.574  34.942  1.00  0.00     0.068 A 
HETATM   11  C12 UNK     1      14.071  10.063  34.501  1.00  0.00     0.037 A 
ENDROOT
BRANCH   5  12
HETATM   12  C4  UNK     1      19.017   6.783  32.077  1.00  0.00    -0.002 A 
HETATM   13  C10 UNK     1      19.261   6.237  30.815  1.00  0.00     0.017 A 
HETATM   14  C13 UNK     1      20.536   5.777  30.485  1.00  0.00     0.037 A 
HETATM   15  C15 UNK     1      21.571   5.865  31.416  1.00  0.00     0.065 A 
HETATM   16  C14 UNK     1      21.332   6.410  32.677  1.00  0.00     0.037 A 
HETATM   17  C11 UNK     1      20.056   6.869  33.006  1.00  0.00     0.017 A 
BRANCH  15  18
HETATM   18  O4  UNK     1      22.817   5.418  31.094  1.00  0.00    -0.361 OA
HETATM   19  H10 UNK     1      23.437   6.168  31.120  1.00  0.00     0.217 HD
ENDBRANCH  15  18
ENDBRANCH   5  12
BRANCH  10  20
HETATM   20  O3  UNK     1      15.319  11.644  35.782  1.00  0.00    -0.361 OA
HETATM   21  H9  UNK     1      15.983  12.280  35.461  1.00  0.00     0.217 HD
ENDBRANCH  10  20
TORSDOF 3
ENDMDL
MODEL 2
REMARK VINA RESULT:      -8.1      6.706      9.714
REMARK  3 active torsions:
REMARK  status: ('A' for Active; 'I' for Inactive)
REMARK    1  A    between atoms: C9_13  and  O3_3 
REMARK    2  A    between atoms: C15_19  and  O4_4 
REMARK    3  A    between atoms: C3_7  and  C4_8 
ROOT
HETATM    1  O1  UNK     1      19.044  -0.138  32.738  1.00  0.00    -0.309 OA
HETATM    2  O2  UNK     1      18.682   2.833  29.974  1.00  0.00    -0.287 OA
HETATM    3  C1  UNK     1      19.369   0.625  30.455  1.00  0.00     0.048 A 
HETATM    4  C2  UNK     1      19.463  -0.348  31.449  1.00  0.00     0.093 A 
HETATM    5  C3  UNK     1      18.512   1.101  33.066  1.00  0.00     0.090 A 
HETATM    6  C5  UNK     1      18.797   1.935  30.797  1.00  0.00     0.187 A 
HETATM    7  C6  UNK     1      18.364   2.114  32.198  1.00  0.00     0.093 A 
HETATM    8  C7  UNK     1      19.810   0.353  29.158  1.00  0.00     0.021 A 
HETATM    9  C8  UNK     1      19.999  -1.601  31.151  1.00  0.00     0.074 A 
HETATM   10  C9  UNK     1      20.443  -1.875  29.856  1.00  0.00     0.068 A 
HETATM   11  C12 UNK     1      20.348  -0.899  28.863  1.00  0.00     0.037 A 
ENDROOT
BRANCH   5  12
HETATM   12  C4  UNK     1      18.088   1.217  34.476  1.00  0.00    -0.002 A 
HETATM   13  C10 UNK     1      16.922   0.584  34.912  1.00  0.00     0.017 A 
HETATM   14  C13 UNK     1      16.522   0.693  36.244  1.00  0.00     0.037 A 
HETATM   15  C15 UNK     1      17.287   1.436  37.143  1.00  0.00     0.065 A 
HETATM   16  C14 UNK     1      18.452   2.070  36.711  1.00  0.00     0.037 A 
HETATM   17  C11 UNK     1      18.851   1.960  35.379  1.00  0.00     0.017 A 
BRANCH  15  18
HETATM   18  O4  UNK     1      16.897   1.542  38.443  1.00  0.00    -0.361 OA
HETATM   19  H10 UNK     1      15.953   1.317  38.508  1.00  0.00     0.217 HD
ENDBRANCH  15  18
ENDBRANCH   5  12
BRANCH  10  20
HETATM   20  O3  UNK     1      20.966  -3.097  29.562  1.00  0.00    -0.361 OA
HETATM   21  H9  UNK     1      21.177  -3.557  30.394  1.00  0.00     0.217 HD
ENDBRANCH  10  20
TORSDOF 3
ENDMDL
MODEL 3
REMARK VINA RESULT:      -8.0      5.559      9.184
REMARK  3 active torsions:
REMARK  status: ('A' for Active; 'I' for Inactive)
REMARK    1  A    between atoms: C9_13  and  O3_3 
REMARK    2  A    between atoms: C15_19  and  O4_4 
REMARK    3  A    between atoms: C3_7  and  C4_8 
ROOT
HETATM    1  O1  UNK     1      19.560   1.225  31.412  1.00  0.00    -0.309 OA
HETATM    2  O2  UNK     1      19.074  -0.134  27.602  1.00  0.00    -0.287 OA
HETATM    3  C1  UNK     1      19.752  -0.596  29.818  1.00  0.00     0.048 A 
HETATM    4  C2  UNK     1      19.892  -0.068  31.100  1.00  0.00     0.093 A 
HETATM    5  C3  UNK     1      19.071   2.044  30.404  1.00  0.00     0.090 A 
HETATM    6  C5  UNK     1      19.226   0.265  28.749  1.00  0.00     0.187 A 
HETATM    7  C6  UNK     1      18.886   1.650  29.134  1.00  0.00     0.093 A 
HETATM    8  C7  UNK     1      20.105  -1.923  29.558  1.00  0.00     0.021 A 
HETATM    9  C8  UNK     1      20.387  -0.865  32.132  1.00  0.00     0.074 A 
HETATM   10  C9  UNK     1      20.742  -2.190  31.876  1.00  0.00     0.068 A 
HETATM   11  C12 UNK     1      20.601  -2.717  30.592  1.00  0.00     0.037 A 
ENDROOT
BRANCH   5  12
HETATM   12  C4  UNK     1      18.741   3.412  30.850  1.00  0.00    -0.002 A 
HETATM   13  C10 UNK     1      18.097   3.614  32.074  1.00  0.00     0.017 A 
HETATM   14  C13 UNK     1      17.784   4.906  32.495  1.00  0.00     0.037 A 
HETATM   15  C15 UNK     1      18.115   6.000  31.695  1.00  0.00     0.065 A 
HETATM   16  C14 UNK     1      18.758   5.802  30.473  1.00  0.00     0.037 A 
HETATM   17  C11 UNK     1      19.070   4.509  30.052  1.00  0.00     0.017 A 
BRANCH  15  18
HETATM   18  O4  UNK     1      17.812   7.262  32.107  1.00  0.00    -0.361 OA
HETATM   19  H10 UNK     1      18.375   7.894  31.627  1.00  0.00     0.217 HD
ENDBRANCH  15  18
ENDBRANCH   5  12
BRANCH  10  20
HETATM   20  O3  UNK     1      21.224  -2.970  32.882  1.00  0.00    -0.361 OA
HETATM   21  H9  UNK     1      21.469  -2.401  33.633  1.00  0.00     0.217 HD
ENDBRANCH  10  20
TORSDOF 3
ENDMDL
MODEL 4
REMARK VINA RESULT:      -7.7      8.376      9.844
REMARK  3 active torsions:
REMARK  status: ('A' for Active; 'I' for Inactive)
REMARK    1  A    between atoms: C9_13  and  O3_3 
REMARK    2  A    between atoms: C15_19  and  O4_4 
REMARK    3  A    between atoms: C3_7  and  C4_8 
ROOT
HETATM    1  O1  UNK     1      18.845  -0.564  34.006  1.00  0.00    -0.309 OA
HETATM    2  O2  UNK     1      20.451  -3.735  35.998  1.00  0.00    -0.287 OA
HETATM    3  C1  UNK     1      19.146  -1.768  36.094  1.00  0.00     0.048 A 
HETATM    4  C2  UNK     1      18.626  -0.708  35.353  1.00  0.00     0.093 A 
HETATM    5  C3  UNK     1      19.625  -1.512  33.359  1.00  0.00     0.090 A 
HETATM    6  C5  UNK     1      19.966  -2.779  35.410  1.00  0.00     0.187 A 
HETATM    7  C6  UNK     1      20.175  -2.577  33.962  1.00  0.00     0.093 A 
HETATM    8  C7  UNK     1      18.889  -1.864  37.464  1.00  0.00     0.021 A 
HETATM    9  C8  UNK     1      17.844   0.263  35.978  1.00  0.00     0.074 A 
HETATM   10  C9  UNK     1      17.586   0.170  37.346  1.00  0.00     0.068 A 
HETATM   11  C12 UNK     1      18.108  -0.891  38.087  1.00  0.00     0.037 A 
ENDROOT
BRANCH   5  12
HETATM   12  C4  UNK     1      19.792  -1.264  31.913  1.00  0.00    -0.002 A 
HETATM   13  C10 UNK     1      19.520  -0.000  31.382  1.00  0.00     0.017 A 
HETATM   14  C13 UNK     1      19.677   0.234  30.016  1.00  0.00     0.037 A 
HETATM   15  C15 UNK     1      20.107  -0.794  29.177  1.00  0.00     0.065 A 
HETATM   16  C14 UNK     1      20.379  -2.057  29.704  1.00  0.00     0.037 A 
HETATM   17  C11 UNK     1      20.221  -2.291  31.070  1.00  0.00     0.017 A 
BRANCH  15  18
HETATM   18  O4  UNK     1      20.262  -0.566  27.844  1.00  0.00    -0.361 OA
HETATM   19  H10 UNK     1      21.151  -0.856  27.576  1.00  0.00     0.217 HD
ENDBRANCH  15  18
ENDBRANCH   5  12
BRANCH  10  20
HETATM   20  O3  UNK     1      16.822   1.116  37.958  1.00  0.00    -0.361 OA
HETATM   21  H9  UNK     1      16.693   1.861  37.345  1.00  0.00     0.217 HD
ENDBRANCH  10  20
TORSDOF 3
ENDMDL
MODEL 5
REMARK VINA RESULT:      -7.7     15.758     18.557
REMARK  3 active torsions:
REMARK  status: ('A' for Active; 'I' for Inactive)
REMARK    1  A    between atoms: C9_13  and  O3_3 
REMARK    2  A    between atoms: C15_19  and  O4_4 
REMARK    3  A    between atoms: C3_7  and  C4_8 
ROOT
HETATM    1  O1  UNK     1      19.165  -1.040  17.631  1.00  0.00    -0.309 OA
HETATM    2  O2  UNK     1      19.175   2.367  15.397  1.00  0.00    -0.287 OA
HETATM    3  C1  UNK     1      19.161   1.388  17.547  1.00  0.00     0.048 A 
HETATM    4  C2  UNK     1      19.159   0.184  18.250  1.00  0.00     0.093 A 
HETATM    5  C3  UNK     1      19.166  -1.078  16.244  1.00  0.00     0.090 A 
HETATM    6  C5  UNK     1      19.170   1.351  16.077  1.00  0.00     0.187 A 
HETATM    7  C6  UNK     1      19.174   0.009  15.458  1.00  0.00     0.093 A 
HETATM    8  C7  UNK     1      19.155   2.605  18.231  1.00  0.00     0.021 A 
HETATM    9  C8  UNK     1      19.152   0.192  19.645  1.00  0.00     0.074 A 
HETATM   10  C9  UNK     1      19.145   1.407  20.332  1.00  0.00     0.068 A 
HETATM   11  C12 UNK     1      19.146   2.610  19.626  1.00  0.00     0.037 A 
ENDROOT
BRANCH   5  12
HETATM   12  C4  UNK     1      19.179  -2.444  15.683  1.00  0.00    -0.002 A 
HETATM   13  C10 UNK     1      20.369  -3.176  15.647  1.00  0.00     0.017 A 
HETATM   14  C13 UNK     1      20.381  -4.465  15.116  1.00  0.00     0.037 A 
HETATM   15  C15 UNK     1      19.205  -5.028  14.621  1.00  0.00     0.065 A 
HETATM   16  C14 UNK     1      18.015  -4.300  14.656  1.00  0.00     0.037 A 
HETATM   17  C11 UNK     1      18.003  -3.010  15.186  1.00  0.00     0.017 A 
BRANCH  15  18
HETATM   18  O4  UNK     1      19.217  -6.288  14.105  1.00  0.00    -0.361 OA
HETATM   19  H10 UNK     1      20.126  -6.511  13.842  1.00  0.00     0.217 HD
ENDBRANCH  15  18
ENDBRANCH   5  12
BRANCH  10  20
HETATM   20  O3  UNK     1      19.139   1.417  21.693  1.00  0.00    -0.361 OA
HETATM   21  H9  UNK     1      20.000   1.746  22.009  1.00  0.00     0.217 HD
ENDBRANCH  10  20
TORSDOF 3
ENDMDL
MODEL 6
REMARK VINA RESULT:      -7.6      6.828      9.105
REMARK  3 active torsions:
REMARK  status: ('A' for Active; 'I' for Inactive)
REMARK    1  A    between atoms: C9_13  and  O3_3 
REMARK    2  A    between atoms: C15_19  and  O4_4 
REMARK    3  A    between atoms: C3_7  and  C4_8 
ROOT
HETATM    1  O1  UNK     1      18.847   0.190  32.792  1.00  0.00    -0.309 OA
HETATM    2  O2  UNK     1      17.707   4.078  32.364  1.00  0.00    -0.287 OA
HETATM    3  C1  UNK     1      18.492   2.101  31.336  1.00  0.00     0.048 A 
HETATM    4  C2  UNK     1      18.867   0.776  31.552  1.00  0.00     0.093 A 
HETATM    5  C3  UNK     1      18.442   0.954  33.877  1.00  0.00     0.090 A 
HETATM    6  C5  UNK     1      18.053   2.911  32.482  1.00  0.00     0.187 A 
HETATM    7  C6  UNK     1      18.052   2.236  33.795  1.00  0.00     0.093 A 
HETATM    8  C7  UNK     1      18.531   2.645  30.050  1.00  0.00     0.021 A 
HETATM    9  C8  UNK     1      19.285  -0.014  30.481  1.00  0.00     0.074 A 
HETATM   10  C9  UNK     1      19.327   0.527  29.195  1.00  0.00     0.068 A 
HETATM   11  C12 UNK     1      18.951   1.853  28.981  1.00  0.00     0.037 A 
ENDROOT
BRANCH   5  12
HETATM   12  C4  UNK     1      18.452   0.224  35.161  1.00  0.00    -0.002 A 
HETATM   13  C10 UNK     1      19.000  -1.059  35.233  1.00  0.00     0.017 A 
HETATM   14  C13 UNK     1      19.009  -1.749  36.445  1.00  0.00     0.037 A 
HETATM   15  C15 UNK     1      18.473  -1.157  37.589  1.00  0.00     0.065 A 
HETATM   16  C14 UNK     1      17.925   0.125  37.520  1.00  0.00     0.037 A 
HETATM   17  C11 UNK     1      17.915   0.813  36.307  1.00  0.00     0.017 A 
BRANCH  15  18
HETATM   18  O4  UNK     1      18.483  -1.829  38.773  1.00  0.00    -0.361 OA
HETATM   19  H10 UNK     1      18.319  -1.198  39.495  1.00  0.00     0.217 HD
ENDBRANCH  15  18
ENDBRANCH   5  12
BRANCH  10  20
HETATM   20  O3  UNK     1      19.733  -0.243  28.148  1.00  0.00    -0.361 OA
HETATM   21  H9  UNK     1      19.502  -1.171  28.331  1.00  0.00     0.217 HD
ENDBRANCH  10  20
TORSDOF 3
ENDMDL
MODEL 7
REMARK VINA RESULT:      -7.6     15.329     19.038
REMARK  3 active torsions:
REMARK  status: ('A' for Active; 'I' for Inactive)
REMARK    1  A    between atoms: C9_13  and  O3_3 
REMARK    2  A    between atoms: C15_19  and  O4_4 
REMARK    3  A    between atoms: C3_7  and  C4_8 
ROOT
HETATM    1  O1  UNK     1      20.515  -1.910  17.831  1.00  0.00    -0.309 OA
HETATM    2  O2  UNK     1      17.814  -2.372  14.816  1.00  0.00    -0.287 OA
HETATM    3  C1  UNK     1      19.819  -3.099  15.831  1.00  0.00     0.048 A 
HETATM    4  C2  UNK     1      20.703  -2.888  16.888  1.00  0.00     0.093 A 
HETATM    5  C3  UNK     1      19.400  -1.091  17.721  1.00  0.00     0.090 A 
HETATM    6  C5  UNK     1      18.632  -2.240  15.716  1.00  0.00     0.187 A 
HETATM    7  C6  UNK     1      18.476  -1.200  16.753  1.00  0.00     0.093 A 
HETATM    8  C7  UNK     1      20.061  -4.113  14.901  1.00  0.00     0.021 A 
HETATM    9  C8  UNK     1      21.836  -3.691  17.021  1.00  0.00     0.074 A 
HETATM   10  C9  UNK     1      22.082  -4.703  16.093  1.00  0.00     0.068 A 
HETATM   11  C12 UNK     1      21.196  -4.913  15.035  1.00  0.00     0.037 A 
ENDROOT
BRANCH   5  12
HETATM   12  C4  UNK     1      19.291  -0.078  18.789  1.00  0.00    -0.002 A 
HETATM   13  C10 UNK     1      19.528  -0.434  20.119  1.00  0.00     0.017 A 
HETATM   14  C13 UNK     1      19.426   0.523  21.129  1.00  0.00     0.037 A 
HETATM   15  C15 UNK     1      19.088   1.839  20.811  1.00  0.00     0.065 A 
HETATM   16  C14 UNK     1      18.851   2.197  19.484  1.00  0.00     0.037 A 
HETATM   17  C11 UNK     1      18.953   1.239  18.475  1.00  0.00     0.017 A 
BRANCH  15  18
HETATM   18  O4  UNK     1      18.990   2.773  21.796  1.00  0.00    -0.361 OA
HETATM   19  H10 UNK     1      19.835   3.251  21.863  1.00  0.00     0.217 HD
ENDBRANCH  15  18
ENDBRANCH   5  12
BRANCH  10  20
HETATM   20  O3  UNK     1      23.186  -5.489  16.221  1.00  0.00    -0.361 OA
HETATM   21  H9  UNK     1      22.910  -6.422  16.216  1.00  0.00     0.217 HD
ENDBRANCH  10  20
TORSDOF 3
ENDMDL
MODEL 8
REMARK VINA RESULT:      -7.6      4.880      7.713
REMARK  3 active torsions:
REMARK  status: ('A' for Active; 'I' for Inactive)
REMARK    1  A    between atoms: C9_13  and  O3_3 
REMARK    2  A    between atoms: C15_19  and  O4_4 
REMARK    3  A    between atoms: C3_7  and  C4_8 
ROOT
HETATM    1  O1  UNK     1      18.135   2.779  32.917  1.00  0.00    -0.309 OA
HETATM    2  O2  UNK     1      19.404   1.283  29.346  1.00  0.00    -0.287 OA
HETATM    3  C1  UNK     1      18.868   0.868  31.609  1.00  0.00     0.048 A 
HETATM    4  C2  UNK     1      18.429   1.444  32.800  1.00  0.00     0.093 A 
HETATM    5  C3  UNK     1      18.291   3.590  31.802  1.00  0.00     0.090 A 
HETATM    6  C5  UNK     1      19.026   1.722  30.423  1.00  0.00     0.187 A 
HETATM    7  C6  UNK     1      18.701   3.152  30.601  1.00  0.00     0.093 A 
HETATM    8  C7  UNK     1      19.151  -0.499  31.549  1.00  0.00     0.021 A 
HETATM    9  C8  UNK     1      18.269   0.655  33.939  1.00  0.00     0.074 A 
HETATM   10  C9  UNK     1      18.551  -0.710  33.883  1.00  0.00     0.068 A 
HETATM   11  C12 UNK     1      18.991  -1.285  32.689  1.00  0.00     0.037 A 
ENDROOT
BRANCH   5  12
HETATM   12  C4  UNK     1      17.943   5.005  32.037  1.00  0.00    -0.002 A 
HETATM   13  C10 UNK     1      17.529   5.425  33.303  1.00  0.00     0.017 A 
HETATM   14  C13 UNK     1      17.200   6.762  33.525  1.00  0.00     0.037 A 
HETATM   15  C15 UNK     1      17.284   7.683  32.482  1.00  0.00     0.065 A 
HETATM   16  C14 UNK     1      17.698   7.268  31.216  1.00  0.00     0.037 A 
HETATM   17  C11 UNK     1      18.026   5.931  30.994  1.00  0.00     0.017 A 
BRANCH  15  18
HETATM   18  O4  UNK     1      16.964   8.989  32.699  1.00  0.00    -0.361 OA
HETATM   19  H10 UNK     1      16.001   9.062  32.812  1.00  0.00     0.217 HD
ENDBRANCH  15  18
ENDBRANCH   5  12
BRANCH  10  20
HETATM   20  O3  UNK     1      18.395  -1.483  34.992  1.00  0.00    -0.361 OA
HETATM   21  H9  UNK     1      18.757  -2.368  34.813  1.00  0.00     0.217 HD
ENDBRANCH  10  20
TORSDOF 3
ENDMDL
MODEL 9
REMARK VINA RESULT:      -7.6     23.142     25.124
REMARK  3 active torsions:
REMARK  status: ('A' for Active; 'I' for Inactive)
REMARK    1  A    between atoms: C9_13  and  O3_3 
REMARK    2  A    between atoms: C15_19  and  O4_4 
REMARK    3  A    between atoms: C3_7  and  C4_8 
ROOT
HETATM    1  O1  UNK     1      13.391   7.705   8.852  1.00  0.00    -0.309 OA
HETATM    2  O2  UNK     1      15.279   4.182   9.640  1.00  0.00    -0.287 OA
HETATM    3  C1  UNK     1      15.399   6.540   9.566  1.00  0.00     0.048 A 
HETATM    4  C2  UNK     1      14.694   7.708   9.280  1.00  0.00     0.093 A 
HETATM    5  C3  UNK     1      12.752   6.484   8.690  1.00  0.00     0.090 A 
HETATM    6  C5  UNK     1      14.722   5.245   9.404  1.00  0.00     0.187 A 
HETATM    7  C6  UNK     1      13.322   5.294   8.938  1.00  0.00     0.093 A 
HETATM    8  C7  UNK     1      16.725   6.604  10.001  1.00  0.00     0.021 A 
HETATM    9  C8  UNK     1      15.313   8.950   9.428  1.00  0.00     0.074 A 
HETATM   10  C9  UNK     1      16.638   9.018   9.861  1.00  0.00     0.068 A 
HETATM   11  C12 UNK     1      17.342   7.847  10.146  1.00  0.00     0.037 A 
ENDROOT
BRANCH   5  12
HETATM   12  C4  UNK     1      11.353   6.597   8.232  1.00  0.00    -0.002 A 
HETATM   13  C10 UNK     1      10.408   7.258   9.020  1.00  0.00     0.017 A 
HETATM   14  C13 UNK     1       9.086   7.363   8.588  1.00  0.00     0.037 A 
HETATM   15  C15 UNK     1       8.706   6.810   7.365  1.00  0.00     0.065 A 
HETATM   16  C14 UNK     1       9.647   6.149   6.575  1.00  0.00     0.037 A 
HETATM   17  C11 UNK     1      10.968   6.043   7.009  1.00  0.00     0.017 A 
BRANCH  15  18
HETATM   18  O4  UNK     1       7.416   6.915   6.942  1.00  0.00    -0.361 OA
HETATM   19  H10 UNK     1       6.829   6.552   7.628  1.00  0.00     0.217 HD
ENDBRANCH  15  18
ENDBRANCH   5  12
BRANCH  10  20
HETATM   20  O3  UNK     1      17.243  10.228  10.007  1.00  0.00    -0.361 OA
HETATM   21  H9  UNK     1      17.664  10.473   9.164  1.00  0.00     0.217 HD
ENDBRANCH  10  20
TORSDOF 3
ENDMDL
MODEL 10
REMARK VINA RESULT:      -7.5      6.058      7.975
REMARK  3 active torsions:
REMARK  status: ('A' for Active; 'I' for Inactive)
REMARK    1  A    between atoms: C9_13  and  O3_3 
REMARK    2  A    between atoms: C15_19  and  O4_4 
REMARK    3  A    between atoms: C3_7  and  C4_8 
ROOT
HETATM    1  O1  UNK     1      18.178   1.683  32.875  1.00  0.00    -0.309 OA
HETATM    2  O2  UNK     1      18.634   5.641  33.728  1.00  0.00    -0.287 OA
HETATM    3  C1  UNK     1      18.448   3.961  32.077  1.00  0.00     0.048 A 
HETATM    4  C2  UNK     1      18.289   2.594  31.855  1.00  0.00     0.093 A 
HETATM    5  C3  UNK     1      18.234   2.145  34.182  1.00  0.00     0.090 A 
HETATM    6  C5  UNK     1      18.499   4.455  33.461  1.00  0.00     0.187 A 
HETATM    7  C6  UNK     1      18.378   3.435  34.522  1.00  0.00     0.093 A 
HETATM    8  C7  UNK     1      18.555   4.843  30.999  1.00  0.00     0.021 A 
HETATM    9  C8  UNK     1      18.236   2.100  30.552  1.00  0.00     0.074 A 
HETATM   10  C9  UNK     1      18.344   2.978  29.473  1.00  0.00     0.068 A 
HETATM   11  C12 UNK     1      18.503   4.347  29.696  1.00  0.00     0.037 A 
ENDROOT
BRANCH   5  12
HETATM   12  C4  UNK     1      18.098   1.083  35.199  1.00  0.00    -0.002 A 
HETATM   13  C10 UNK     1      17.798   1.414  36.523  1.00  0.00     0.017 A 
HETATM   14  C13 UNK     1      17.670   0.411  37.483  1.00  0.00     0.037 A 
HETATM   15  C15 UNK     1      17.840  -0.926  37.123  1.00  0.00     0.065 A 
HETATM   16  C14 UNK     1      18.139  -1.260  35.802  1.00  0.00     0.037 A 
HETATM   17  C11 UNK     1      18.268  -0.257  34.842  1.00  0.00     0.017 A 
BRANCH  15  18
HETATM   18  O4  UNK     1      17.713  -1.906  38.061  1.00  0.00    -0.361 OA
HETATM   19  H10 UNK     1      17.553  -2.753  37.610  1.00  0.00     0.217 HD
ENDBRANCH  15  18
ENDBRANCH   5  12
BRANCH  10  20
HETATM   20  O3  UNK     1      18.291   2.499  28.200  1.00  0.00    -0.361 OA
HETATM   21  H9  UNK     1      17.360   2.463  27.916  1.00  0.00     0.217 HD
ENDBRANCH  10  20
TORSDOF 3
ENDMDL
