MODEL 1
REMARK VINA RESULT:     -11.0      0.000      0.000
REMARK  6 active torsions:
REMARK  status: ('A' for Active; 'I' for Inactive)
REMARK    1  A    between atoms: C5_14  and  N1_7 
REMARK    2  A    between atoms: C6_15  and  N2_8 
REMARK    3  A    between atoms: C17_26  and  N3_9 
REMARK       I    between atoms: C9_18  and  N3_9 
REMARK    4  A    between atoms: C5_14  and  C7_16 
REMARK    5  A    between atoms: C6_15  and  C9_18 
REMARK    6  A    between atoms: C18_27  and  C22_31 
ROOT
HETATM    1  N1  UNK     1      19.286  -3.145  36.052  1.00  0.00     0.096 N 
HETATM    2  N2  UNK     1      18.294  -0.549  35.253  1.00  0.00     0.100 N 
HETATM    3  C1  UNK     1      20.062  -2.274  35.161  1.00  0.00     0.303 C 
HETATM    4  C2  UNK     1      18.442  -2.343  36.946  1.00  0.00     0.303 C 
HETATM    5  C3  UNK     1      19.136  -1.352  34.358  1.00  0.00     0.303 C 
HETATM    6  C4  UNK     1      17.518  -1.421  36.144  1.00  0.00     0.303 C 
ENDROOT
BRANCH   2   7
HETATM    7  C6  UNK     1      17.411   0.328  34.486  1.00  0.00     0.375 C 
BRANCH   7   8
HETATM    8  C9  UNK     1      18.153   1.604  34.129  1.00  0.00     0.250 C 
HETATM    9  O2  UNK     1      19.005   2.101  34.859  1.00  0.00    -0.271 OA
HETATM   10  N3  UNK     1      17.725   2.079  32.891  1.00  0.00    -0.325 N 
HETATM   11  H15 UNK     1      17.003   1.546  32.413  1.00  0.00     0.169 HD
BRANCH  10  12
HETATM   12  C17 UNK     1      18.170   3.238  32.210  1.00  0.00     0.049 A 
HETATM   13  C18 UNK     1      18.624   3.163  30.894  1.00  0.00     0.074 A 
HETATM   14  C21 UNK     1      19.061   4.316  30.239  1.00  0.00     0.018 A 
HETATM   15  C24 UNK     1      19.042   5.543  30.902  1.00  0.00     0.001 A 
HETATM   16  C23 UNK     1      18.588   5.618  32.219  1.00  0.00     0.002 A 
HETATM   17  C20 UNK     1      18.153   4.464  32.873  1.00  0.00     0.030 A 
BRANCH  13  18
HETATM   18  C22 UNK     1      18.655   1.862  30.158  1.00  0.00     0.419 C 
HETATM   19  F1  UNK     1      19.666   1.776  29.245  1.00  0.00    -0.166 F 
HETATM   20  F2  UNK     1      18.815   0.781  30.974  1.00  0.00    -0.166 F 
HETATM   21  F3  UNK     1      17.507   1.630  29.460  1.00  0.00    -0.166 F 
ENDBRANCH  13  18
ENDBRANCH  10  12
ENDBRANCH   7   8
ENDBRANCH   2   7
BRANCH   1  22
HETATM   22  C5  UNK     1      20.169  -4.020  36.820  1.00  0.00     0.312 C 
BRANCH  22  23
HETATM   23  C7  UNK     1      20.186  -5.411  36.285  1.00  0.00    -0.011 A 
HETATM   24  C10 UNK     1      20.283  -5.646  34.968  1.00  0.00     0.092 A 
HETATM   25  C13 UNK     1      20.304  -7.001  34.394  1.00  0.00     0.288 A 
HETATM   26  O1  UNK     1      20.216  -8.058  35.287  1.00  0.00    -0.275 OA
HETATM   27  O3  UNK     1      20.395  -7.177  33.184  1.00  0.00    -0.260 OA
HETATM   28  C11 UNK     1      20.112  -7.842  36.676  1.00  0.00     0.090 A 
HETATM   29  C8  UNK     1      20.094  -6.551  37.207  1.00  0.00     0.006 A 
HETATM   30  C14 UNK     1      20.029  -8.980  37.480  1.00  0.00     0.045 A 
HETATM   31  C12 UNK     1      19.989  -6.421  38.597  1.00  0.00     0.015 A 
HETATM   32  C16 UNK     1      19.904  -7.552  39.417  1.00  0.00     0.007 A 
HETATM   33  C15 UNK     1      19.925  -8.830  38.859  1.00  0.00    -0.059 A 
HETATM   34  C19 UNK     1      19.836 -10.030  39.738  1.00  0.00     0.048 C 
ENDBRANCH  22  23
ENDBRANCH   1  22
TORSDOF 6
ENDMDL
MODEL 2
REMARK VINA RESULT:     -10.5      1.640      2.634
REMARK  6 active torsions:
REMARK  status: ('A' for Active; 'I' for Inactive)
REMARK    1  A    between atoms: C5_14  and  N1_7 
REMARK    2  A    between atoms: C6_15  and  N2_8 
REMARK    3  A    between atoms: C17_26  and  N3_9 
REMARK       I    between atoms: C9_18  and  N3_9 
REMARK    4  A    between atoms: C5_14  and  C7_16 
REMARK    5  A    between atoms: C6_15  and  C9_18 
REMARK    6  A    between atoms: C18_27  and  C22_31 
ROOT
HETATM    1  N1  UNK     1      19.423  -3.674  36.351  1.00  0.00     0.096 N 
HETATM    2  N2  UNK     1      18.920  -0.890  35.755  1.00  0.00     0.100 N 
HETATM    3  C1  UNK     1      20.498  -2.787  35.889  1.00  0.00     0.303 C 
HETATM    4  C2  UNK     1      18.407  -2.910  37.084  1.00  0.00     0.303 C 
HETATM    5  C3  UNK     1      19.935  -1.655  35.021  1.00  0.00     0.303 C 
HETATM    6  C4  UNK     1      17.845  -1.777  36.217  1.00  0.00     0.303 C 
ENDROOT
BRANCH   2   7
HETATM    7  C6  UNK     1      18.383   0.188  34.926  1.00  0.00     0.375 C 
BRANCH   7   8
HETATM    8  C9  UNK     1      18.244  -0.298  33.494  1.00  0.00     0.250 C 
HETATM    9  O2  UNK     1      17.372  -1.085  33.144  1.00  0.00    -0.271 OA
HETATM   10  N3  UNK     1      19.224   0.283  32.691  1.00  0.00    -0.325 N 
HETATM   11  H15 UNK     1      19.879   0.918  33.143  1.00  0.00     0.169 HD
BRANCH  10  12
HETATM   12  C17 UNK     1      19.432   0.089  31.305  1.00  0.00     0.049 A 
HETATM   13  C18 UNK     1      19.104   1.085  30.386  1.00  0.00     0.074 A 
HETATM   14  C21 UNK     1      19.315   0.874  29.022  1.00  0.00     0.018 A 
HETATM   15  C24 UNK     1      19.855  -0.333  28.580  1.00  0.00     0.001 A 
HETATM   16  C23 UNK     1      20.183  -1.330  29.499  1.00  0.00     0.002 A 
HETATM   17  C20 UNK     1      19.970  -1.119  30.861  1.00  0.00     0.030 A 
BRANCH  13  18
HETATM   18  C22 UNK     1      18.525   2.389  30.831  1.00  0.00     0.419 C 
HETATM   19  F1  UNK     1      18.387   2.490  32.185  1.00  0.00    -0.166 F 
HETATM   20  F2  UNK     1      19.273   3.469  30.465  1.00  0.00    -0.166 F 
HETATM   21  F3  UNK     1      17.281   2.611  30.317  1.00  0.00    -0.166 F 
ENDBRANCH  13  18
ENDBRANCH  10  12
ENDBRANCH   7   8
ENDBRANCH   2   7
BRANCH   1  22
HETATM   22  C5  UNK     1      19.961  -4.750  37.181  1.00  0.00     0.312 C 
BRANCH  22  23
HETATM   23  C7  UNK     1      20.077  -6.033  36.432  1.00  0.00    -0.011 A 
HETATM   24  C10 UNK     1      20.342  -6.046  35.118  1.00  0.00     0.092 A 
HETATM   25  C13 UNK     1      20.466  -7.288  34.336  1.00  0.00     0.288 A 
HETATM   26  O1  UNK     1      20.295  -8.478  35.025  1.00  0.00    -0.275 OA
HETATM   27  O3  UNK     1      20.710  -7.261  33.135  1.00  0.00    -0.260 OA
HETATM   28  C11 UNK     1      20.016  -8.496  36.407  1.00  0.00     0.090 A 
HETATM   29  C8  UNK     1      19.900  -7.310  37.135  1.00  0.00     0.006 A 
HETATM   30  C14 UNK     1      19.862  -9.752  36.997  1.00  0.00     0.045 A 
HETATM   31  C12 UNK     1      19.621  -7.414  38.504  1.00  0.00     0.015 A 
HETATM   32  C16 UNK     1      19.464  -8.665  39.110  1.00  0.00     0.007 A 
HETATM   33  C15 UNK     1      19.585  -9.833  38.358  1.00  0.00    -0.059 A 
HETATM   34  C19 UNK     1      19.418 -11.162  39.010  1.00  0.00     0.048 C 
ENDBRANCH  22  23
ENDBRANCH   1  22
TORSDOF 6
ENDMDL
MODEL 3
REMARK VINA RESULT:     -10.4      2.523      3.088
REMARK  6 active torsions:
REMARK  status: ('A' for Active; 'I' for Inactive)
REMARK    1  A    between atoms: C5_14  and  N1_7 
REMARK    2  A    between atoms: C6_15  and  N2_8 
REMARK    3  A    between atoms: C17_26  and  N3_9 
REMARK       I    between atoms: C9_18  and  N3_9 
REMARK    4  A    between atoms: C5_14  and  C7_16 
REMARK    5  A    between atoms: C6_15  and  C9_18 
REMARK    6  A    between atoms: C18_27  and  C22_31 
ROOT
HETATM    1  N1  UNK     1      19.490  -3.641  36.315  1.00  0.00     0.096 N 
HETATM    2  N2  UNK     1      18.922  -0.846  35.841  1.00  0.00     0.100 N 
HETATM    3  C1  UNK     1      20.563  -2.640  36.283  1.00  0.00     0.303 C 
HETATM    4  C2  UNK     1      18.233  -3.031  36.766  1.00  0.00     0.303 C 
HETATM    5  C3  UNK     1      20.179  -1.456  35.388  1.00  0.00     0.303 C 
HETATM    6  C4  UNK     1      17.849  -1.847  35.872  1.00  0.00     0.303 C 
ENDROOT
BRANCH   2   7
HETATM    7  C6  UNK     1      18.556   0.282  34.986  1.00  0.00     0.375 C 
BRANCH   7   8
HETATM    8  C9  UNK     1      18.328  -0.212  33.569  1.00  0.00     0.250 C 
HETATM    9  O2  UNK     1      17.356  -0.889  33.252  1.00  0.00    -0.271 OA
HETATM   10  N3  UNK     1      19.357   0.224  32.736  1.00  0.00    -0.325 N 
HETATM   11  H15 UNK     1      20.095   0.780  33.161  1.00  0.00     0.169 HD
BRANCH  10  12
HETATM   12  C17 UNK     1      19.510  -0.025  31.351  1.00  0.00     0.049 A 
HETATM   13  C18 UNK     1      20.146  -1.180  30.897  1.00  0.00     0.074 A 
HETATM   14  C21 UNK     1      20.288  -1.407  29.528  1.00  0.00     0.018 A 
HETATM   15  C24 UNK     1      19.794  -0.478  28.612  1.00  0.00     0.001 A 
HETATM   16  C23 UNK     1      19.158   0.677  29.066  1.00  0.00     0.002 A 
HETATM   17  C20 UNK     1      19.017   0.904  30.435  1.00  0.00     0.030 A 
BRANCH  13  18
HETATM   18  C22 UNK     1      20.685  -2.194  31.855  1.00  0.00     0.419 C 
HETATM   19  F1  UNK     1      21.139  -3.328  31.249  1.00  0.00    -0.166 F 
HETATM   20  F2  UNK     1      21.736  -1.736  32.595  1.00  0.00    -0.166 F 
HETATM   21  F3  UNK     1      19.751  -2.607  32.759  1.00  0.00    -0.166 F 
ENDBRANCH  13  18
ENDBRANCH  10  12
ENDBRANCH   7   8
ENDBRANCH   2   7
BRANCH   1  22
HETATM   22  C5  UNK     1      19.856  -4.767  37.171  1.00  0.00     0.312 C 
BRANCH  22  23
HETATM   23  C7  UNK     1      20.012  -6.032  36.399  1.00  0.00    -0.011 A 
HETATM   24  C10 UNK     1      20.290  -6.014  35.088  1.00  0.00     0.092 A 
HETATM   25  C13 UNK     1      20.453  -7.237  34.284  1.00  0.00     0.288 A 
HETATM   26  O1  UNK     1      20.305  -8.444  34.949  1.00  0.00    -0.275 OA
HETATM   27  O3  UNK     1      20.708  -7.182  33.086  1.00  0.00    -0.260 OA
HETATM   28  C11 UNK     1      20.012  -8.495  36.328  1.00  0.00     0.090 A 
HETATM   29  C8  UNK     1      19.860  -7.327  37.077  1.00  0.00     0.006 A 
HETATM   30  C14 UNK     1      19.884  -9.765  36.893  1.00  0.00     0.045 A 
HETATM   31  C12 UNK     1      19.571  -7.463  38.440  1.00  0.00     0.015 A 
HETATM   32  C16 UNK     1      19.438  -8.729  39.021  1.00  0.00     0.007 A 
HETATM   33  C15 UNK     1      19.596  -9.879  38.249  1.00  0.00    -0.059 A 
HETATM   34  C19 UNK     1      19.456 -11.224  38.874  1.00  0.00     0.048 C 
ENDBRANCH  22  23
ENDBRANCH   1  22
TORSDOF 6
ENDMDL
MODEL 4
REMARK VINA RESULT:     -10.3      2.446      3.416
REMARK  6 active torsions:
REMARK  status: ('A' for Active; 'I' for Inactive)
REMARK    1  A    between atoms: C5_14  and  N1_7 
REMARK    2  A    between atoms: C6_15  and  N2_8 
REMARK    3  A    between atoms: C17_26  and  N3_9 
REMARK       I    between atoms: C9_18  and  N3_9 
REMARK    4  A    between atoms: C5_14  and  C7_16 
REMARK    5  A    between atoms: C6_15  and  C9_18 
REMARK    6  A    between atoms: C18_27  and  C22_31 
ROOT
HETATM    1  N1  UNK     1      19.599  -4.182  36.508  1.00  0.00     0.096 N 
HETATM    2  N2  UNK     1      18.721  -1.617  35.503  1.00  0.00     0.100 N 
HETATM    3  C1  UNK     1      18.249  -3.677  36.785  1.00  0.00     0.303 C 
HETATM    4  C2  UNK     1      20.092  -3.655  35.230  1.00  0.00     0.303 C 
HETATM    5  C3  UNK     1      18.230  -2.143  36.783  1.00  0.00     0.303 C 
HETATM    6  C4  UNK     1      20.071  -2.123  35.227  1.00  0.00     0.303 C 
ENDROOT
BRANCH   2   7
HETATM    7  C6  UNK     1      18.703  -0.155  35.503  1.00  0.00     0.375 C 
BRANCH   7   8
HETATM    8  C9  UNK     1      18.089   0.341  34.206  1.00  0.00     0.250 C 
HETATM    9  O2  UNK     1      16.882   0.510  34.067  1.00  0.00    -0.271 OA
HETATM   10  N3  UNK     1      19.084   0.565  33.257  1.00  0.00    -0.325 N 
HETATM   11  H15 UNK     1      20.044   0.371  33.534  1.00  0.00     0.169 HD
BRANCH  10  12
HETATM   12  C17 UNK     1      18.923   1.028  31.929  1.00  0.00     0.049 A 
HETATM   13  C18 UNK     1      19.309   0.240  30.845  1.00  0.00     0.074 A 
HETATM   14  C21 UNK     1      19.143   0.714  29.543  1.00  0.00     0.018 A 
HETATM   15  C24 UNK     1      18.590   1.976  29.326  1.00  0.00     0.001 A 
HETATM   16  C23 UNK     1      18.203   2.764  30.410  1.00  0.00     0.002 A 
HETATM   17  C20 UNK     1      18.371   2.290  31.712  1.00  0.00     0.030 A 
BRANCH  13  18
HETATM   18  C22 UNK     1      19.904  -1.116  31.047  1.00  0.00     0.419 C 
HETATM   19  F1  UNK     1      19.228  -1.877  31.955  1.00  0.00    -0.166 F 
HETATM   20  F2  UNK     1      19.944  -1.866  29.908  1.00  0.00    -0.166 F 
HETATM   21  F3  UNK     1      21.191  -1.060  31.497  1.00  0.00    -0.166 F 
ENDBRANCH  13  18
ENDBRANCH  10  12
ENDBRANCH   7   8
ENDBRANCH   2   7
BRANCH   1  22
HETATM   22  C5  UNK     1      19.616  -5.644  36.507  1.00  0.00     0.312 C 
BRANCH  22  23
HETATM   23  C7  UNK     1      20.870  -6.192  37.095  1.00  0.00    -0.011 A 
HETATM   24  C10 UNK     1      21.574  -5.495  37.999  1.00  0.00     0.092 A 
HETATM   25  C13 UNK     1      22.818  -5.996  38.608  1.00  0.00     0.288 A 
HETATM   26  O1  UNK     1      23.250  -7.249  38.202  1.00  0.00    -0.275 OA
HETATM   27  O3  UNK     1      23.434  -5.331  39.432  1.00  0.00    -0.260 OA
HETATM   28  C11 UNK     1      22.531  -8.005  37.253  1.00  0.00     0.090 A 
HETATM   29  C8  UNK     1      21.353  -7.517  36.684  1.00  0.00     0.006 A 
HETATM   30  C14 UNK     1      23.060  -9.253  36.919  1.00  0.00     0.045 A 
HETATM   31  C12 UNK     1      20.699  -8.329  35.749  1.00  0.00     0.015 A 
HETATM   32  C16 UNK     1      21.216  -9.582  35.403  1.00  0.00     0.007 A 
HETATM   33  C15 UNK     1      22.395 -10.044  35.987  1.00  0.00    -0.059 A 
HETATM   34  C19 UNK     1      22.940 -11.380  35.615  1.00  0.00     0.048 C 
ENDBRANCH  22  23
ENDBRANCH   1  22
TORSDOF 6
ENDMDL
MODEL 5
REMARK VINA RESULT:     -10.2      4.969      8.128
REMARK  6 active torsions:
REMARK  status: ('A' for Active; 'I' for Inactive)
REMARK    1  A    between atoms: C5_14  and  N1_7 
REMARK    2  A    between atoms: C6_15  and  N2_8 
REMARK    3  A    between atoms: C17_26  and  N3_9 
REMARK       I    between atoms: C9_18  and  N3_9 
REMARK    4  A    between atoms: C5_14  and  C7_16 
REMARK    5  A    between atoms: C6_15  and  C9_18 
REMARK    6  A    between atoms: C18_27  and  C22_31 
ROOT
HETATM    1  N1  UNK     1      18.841   3.695  31.437  1.00  0.00     0.096 N 
HETATM    2  N2  UNK     1      19.276   6.352  32.490  1.00  0.00     0.100 N 
HETATM    3  C1  UNK     1      18.037   4.214  32.550  1.00  0.00     0.303 C 
HETATM    4  C2  UNK     1      19.291   4.792  30.573  1.00  0.00     0.303 C 
HETATM    5  C3  UNK     1      18.827   5.254  33.355  1.00  0.00     0.303 C 
HETATM    6  C4  UNK     1      20.079   5.832  31.377  1.00  0.00     0.303 C 
ENDROOT
BRANCH   2   7
HETATM    7  C6  UNK     1      20.030   7.342  33.257  1.00  0.00     0.375 C 
BRANCH   7   8
HETATM    8  C9  UNK     1      19.090   8.073  34.199  1.00  0.00     0.250 C 
HETATM    9  O2  UNK     1      19.231   8.060  35.417  1.00  0.00    -0.271 OA
HETATM   10  N3  UNK     1      18.097   8.730  33.474  1.00  0.00    -0.325 N 
HETATM   11  H15 UNK     1      18.121   8.635  32.462  1.00  0.00     0.169 HD
BRANCH  10  12
HETATM   12  C17 UNK     1      17.036   9.517  33.981  1.00  0.00     0.049 A 
HETATM   13  C18 UNK     1      15.806   8.941  34.300  1.00  0.00     0.074 A 
HETATM   14  C21 UNK     1      14.771   9.734  34.798  1.00  0.00     0.018 A 
HETATM   15  C24 UNK     1      14.967  11.103  34.977  1.00  0.00     0.001 A 
HETATM   16  C23 UNK     1      16.197  11.680  34.659  1.00  0.00     0.002 A 
HETATM   17  C20 UNK     1      17.230  10.886  34.160  1.00  0.00     0.030 A 
BRANCH  13  18
HETATM   18  C22 UNK     1      15.568   7.476  34.119  1.00  0.00     0.419 C 
HETATM   19  F1  UNK     1      14.262   7.114  34.274  1.00  0.00    -0.166 F 
HETATM   20  F2  UNK     1      15.924   7.017  32.884  1.00  0.00    -0.166 F 
HETATM   21  F3  UNK     1      16.269   6.719  35.010  1.00  0.00    -0.166 F 
ENDBRANCH  13  18
ENDBRANCH  10  12
ENDBRANCH   7   8
ENDBRANCH   2   7
BRANCH   1  22
HETATM   22  C5  UNK     1      18.085   2.707  30.669  1.00  0.00     0.312 C 
BRANCH  22  23
HETATM   23  C7  UNK     1      18.799   1.403  30.575  1.00  0.00    -0.011 A 
HETATM   24  C10 UNK     1      19.361   1.002  29.426  1.00  0.00     0.092 A 
HETATM   25  C13 UNK     1      20.076  -0.278  29.284  1.00  0.00     0.288 A 
HETATM   26  O1  UNK     1      20.151  -1.077  30.414  1.00  0.00    -0.275 OA
HETATM   27  O3  UNK     1      20.578  -0.611  28.217  1.00  0.00    -0.260 OA
HETATM   28  C11 UNK     1      19.570  -0.682  31.637  1.00  0.00     0.090 A 
HETATM   29  C8  UNK     1      18.895   0.533  31.756  1.00  0.00     0.006 A 
HETATM   30  C14 UNK     1      19.708  -1.567  32.708  1.00  0.00     0.045 A 
HETATM   31  C12 UNK     1      18.347   0.853  33.004  1.00  0.00     0.015 A 
HETATM   32  C16 UNK     1      18.475  -0.024  34.087  1.00  0.00     0.007 A 
HETATM   33  C15 UNK     1      19.155  -1.232  33.940  1.00  0.00    -0.059 A 
HETATM   34  C19 UNK     1      19.290  -2.160  35.098  1.00  0.00     0.048 C 
ENDBRANCH  22  23
ENDBRANCH   1  22
TORSDOF 6
ENDMDL
MODEL 6
REMARK VINA RESULT:     -10.0      4.257     12.102
REMARK  6 active torsions:
REMARK  status: ('A' for Active; 'I' for Inactive)
REMARK    1  A    between atoms: C5_14  and  N1_7 
REMARK    2  A    between atoms: C6_15  and  N2_8 
REMARK    3  A    between atoms: C17_26  and  N3_9 
REMARK       I    between atoms: C9_18  and  N3_9 
REMARK    4  A    between atoms: C5_14  and  C7_16 
REMARK    5  A    between atoms: C6_15  and  C9_18 
REMARK    6  A    between atoms: C18_27  and  C22_31 
ROOT
HETATM    1  N1  UNK     1      18.048   5.400  31.594  1.00  0.00     0.096 N 
HETATM    2  N2  UNK     1      18.993   2.740  30.971  1.00  0.00     0.100 N 
HETATM    3  C1  UNK     1      18.282   4.407  32.651  1.00  0.00     0.303 C 
HETATM    4  C2  UNK     1      18.939   5.156  30.454  1.00  0.00     0.303 C 
HETATM    5  C3  UNK     1      18.101   2.984  32.111  1.00  0.00     0.303 C 
HETATM    6  C4  UNK     1      18.759   3.732  29.915  1.00  0.00     0.303 C 
ENDROOT
BRANCH   2   7
HETATM    7  C6  UNK     1      18.819   1.382  30.457  1.00  0.00     0.375 C 
BRANCH   7   8
HETATM    8  C9  UNK     1      19.621   0.413  31.308  1.00  0.00     0.250 C 
HETATM    9  O2  UNK     1      20.786   0.123  31.060  1.00  0.00    -0.271 OA
HETATM   10  N3  UNK     1      18.843  -0.057  32.364  1.00  0.00    -0.325 N 
HETATM   11  H15 UNK     1      17.886   0.284  32.424  1.00  0.00     0.169 HD
BRANCH  10  12
HETATM   12  C17 UNK     1      19.222  -0.972  33.375  1.00  0.00     0.049 A 
HETATM   13  C18 UNK     1      18.825  -0.781  34.698  1.00  0.00     0.074 A 
HETATM   14  C21 UNK     1      19.210  -1.694  35.681  1.00  0.00     0.018 A 
HETATM   15  C24 UNK     1      19.992  -2.797  35.340  1.00  0.00     0.001 A 
HETATM   16  C23 UNK     1      20.390  -2.988  34.017  1.00  0.00     0.002 A 
HETATM   17  C20 UNK     1      20.005  -2.074  33.035  1.00  0.00     0.030 A 
BRANCH  13  18
HETATM   18  C22 UNK     1      17.986   0.392  35.093  1.00  0.00     0.419 C 
HETATM   19  F1  UNK     1      17.604   0.372  36.403  1.00  0.00    -0.166 F 
HETATM   20  F2  UNK     1      18.613   1.591  34.920  1.00  0.00    -0.166 F 
HETATM   21  F3  UNK     1      16.830   0.472  34.374  1.00  0.00    -0.166 F 
ENDBRANCH  13  18
ENDBRANCH  10  12
ENDBRANCH   7   8
ENDBRANCH   2   7
BRANCH   1  22
HETATM   22  C5  UNK     1      18.225   6.756  32.109  1.00  0.00     0.312 C 
BRANCH  22  23
HETATM   23  C7  UNK     1      16.923   7.419  32.404  1.00  0.00    -0.011 A 
HETATM   24  C10 UNK     1      15.761   6.851  32.053  1.00  0.00     0.092 A 
HETATM   25  C13 UNK     1      14.451   7.467  32.324  1.00  0.00     0.288 A 
HETATM   26  O1  UNK     1      14.462   8.692  32.973  1.00  0.00    -0.275 OA
HETATM   27  O3  UNK     1      13.408   6.918  31.988  1.00  0.00    -0.260 OA
HETATM   28  C11 UNK     1      15.668   9.314  33.355  1.00  0.00     0.090 A 
HETATM   29  C8  UNK     1      16.902   8.718  33.091  1.00  0.00     0.006 A 
HETATM   30  C14 UNK     1      15.558  10.546  34.003  1.00  0.00     0.045 A 
HETATM   31  C12 UNK     1      18.054   9.400  33.503  1.00  0.00     0.015 A 
HETATM   32  C16 UNK     1      17.961  10.635  34.152  1.00  0.00     0.007 A 
HETATM   33  C15 UNK     1      16.714  11.208  34.403  1.00  0.00    -0.059 A 
HETATM   34  C19 UNK     1      16.622  12.523  35.096  1.00  0.00     0.048 C 
ENDBRANCH  22  23
ENDBRANCH   1  22
TORSDOF 6
ENDMDL
MODEL 7
REMARK VINA RESULT:     -10.0      3.577     10.105
REMARK  6 active torsions:
REMARK  status: ('A' for Active; 'I' for Inactive)
REMARK    1  A    between atoms: C5_14  and  N1_7 
REMARK    2  A    between atoms: C6_15  and  N2_8 
REMARK    3  A    between atoms: C17_26  and  N3_9 
REMARK       I    between atoms: C9_18  and  N3_9 
REMARK    4  A    between atoms: C5_14  and  C7_16 
REMARK    5  A    between atoms: C6_15  and  C9_18 
REMARK    6  A    between atoms: C18_27  and  C22_31 
ROOT
HETATM    1  N1  UNK     1      18.498  -1.217  35.501  1.00  0.00     0.096 N 
HETATM    2  N2  UNK     1      19.870  -3.210  37.083  1.00  0.00     0.100 N 
HETATM    3  C1  UNK     1      19.417  -2.181  34.882  1.00  0.00     0.303 C 
HETATM    4  C2  UNK     1      17.881  -1.794  36.701  1.00  0.00     0.303 C 
HETATM    5  C3  UNK     1      20.487  -2.633  35.883  1.00  0.00     0.303 C 
HETATM    6  C4  UNK     1      18.951  -2.246  37.701  1.00  0.00     0.303 C 
ENDROOT
BRANCH   2   7
HETATM    7  C6  UNK     1      20.891  -3.640  38.036  1.00  0.00     0.375 C 
BRANCH   7   8
HETATM    8  C9  UNK     1      21.086  -5.142  37.925  1.00  0.00     0.250 C 
HETATM    9  O2  UNK     1      22.153  -5.648  37.594  1.00  0.00    -0.271 OA
HETATM   10  N3  UNK     1      19.906  -5.805  38.255  1.00  0.00    -0.325 N 
HETATM   11  H15 UNK     1      19.104  -5.232  38.506  1.00  0.00     0.169 HD
BRANCH  10  12
HETATM   12  C17 UNK     1      19.677  -7.202  38.273  1.00  0.00     0.049 A 
HETATM   13  C18 UNK     1      18.908  -7.814  37.283  1.00  0.00     0.074 A 
HETATM   14  C21 UNK     1      18.694  -9.193  37.319  1.00  0.00     0.018 A 
HETATM   15  C24 UNK     1      19.248  -9.958  38.345  1.00  0.00     0.001 A 
HETATM   16  C23 UNK     1      20.017  -9.346  39.335  1.00  0.00     0.002 A 
HETATM   17  C20 UNK     1      20.230  -7.968  39.299  1.00  0.00     0.030 A 
BRANCH  13  18
HETATM   18  C22 UNK     1      18.302  -7.020  36.172  1.00  0.00     0.419 C 
HETATM   19  F1  UNK     1      19.222  -6.359  35.411  1.00  0.00    -0.166 F 
HETATM   20  F2  UNK     1      17.585  -7.777  35.292  1.00  0.00    -0.166 F 
HETATM   21  F3  UNK     1      17.441  -6.063  36.623  1.00  0.00    -0.166 F 
ENDBRANCH  13  18
ENDBRANCH  10  12
ENDBRANCH   7   8
ENDBRANCH   2   7
BRANCH   1  22
HETATM   22  C5  UNK     1      17.476  -0.790  34.547  1.00  0.00     0.312 C 
BRANCH  22  23
HETATM   23  C7  UNK     1      17.965   0.291  33.646  1.00  0.00    -0.011 A 
HETATM   24  C10 UNK     1      17.737   1.582  33.926  1.00  0.00     0.092 A 
HETATM   25  C13 UNK     1      18.201   2.684  33.066  1.00  0.00     0.288 A 
HETATM   26  O1  UNK     1      18.901   2.331  31.923  1.00  0.00    -0.275 OA
HETATM   27  O3  UNK     1      17.974   3.854  33.355  1.00  0.00    -0.260 OA
HETATM   28  C11 UNK     1      19.156   0.982  31.603  1.00  0.00     0.090 A 
HETATM   29  C8  UNK     1      18.710  -0.053  32.427  1.00  0.00     0.006 A 
HETATM   30  C14 UNK     1      19.871   0.744  30.427  1.00  0.00     0.045 A 
HETATM   31  C12 UNK     1      19.004  -1.366  32.039  1.00  0.00     0.015 A 
HETATM   32  C16 UNK     1      19.719  -1.621  30.863  1.00  0.00     0.007 A 
HETATM   33  C15 UNK     1      20.152  -0.568  30.058  1.00  0.00    -0.059 A 
HETATM   34  C19 UNK     1      20.914  -0.847  28.808  1.00  0.00     0.048 C 
ENDBRANCH  22  23
ENDBRANCH   1  22
TORSDOF 6
ENDMDL
MODEL 8
REMARK VINA RESULT:      -9.9      2.225      3.119
REMARK  6 active torsions:
REMARK  status: ('A' for Active; 'I' for Inactive)
REMARK    1  A    between atoms: C5_14  and  N1_7 
REMARK    2  A    between atoms: C6_15  and  N2_8 
REMARK    3  A    between atoms: C17_26  and  N3_9 
REMARK       I    between atoms: C9_18  and  N3_9 
REMARK    4  A    between atoms: C5_14  and  C7_16 
REMARK    5  A    between atoms: C6_15  and  C9_18 
REMARK    6  A    between atoms: C18_27  and  C22_31 
ROOT
HETATM    1  N1  UNK     1      19.576  -2.961  36.843  1.00  0.00     0.096 N 
HETATM    2  N2  UNK     1      18.783  -0.415  35.725  1.00  0.00     0.100 N 
HETATM    3  C1  UNK     1      20.517  -2.144  36.067  1.00  0.00     0.303 C 
HETATM    4  C2  UNK     1      18.588  -2.109  37.514  1.00  0.00     0.303 C 
HETATM    5  C3  UNK     1      19.771  -1.268  35.053  1.00  0.00     0.303 C 
HETATM    6  C4  UNK     1      17.843  -1.234  36.500  1.00  0.00     0.303 C 
ENDROOT
BRANCH   2   7
HETATM    7  C6  UNK     1      18.072   0.418  34.757  1.00  0.00     0.375 C 
BRANCH   7   8
HETATM    8  C9  UNK     1      18.102  -0.254  33.396  1.00  0.00     0.250 C 
HETATM    9  O2  UNK     1      17.354  -1.179  33.097  1.00  0.00    -0.271 OA
HETATM   10  N3  UNK     1      19.071   0.339  32.588  1.00  0.00    -0.325 N 
HETATM   11  H15 UNK     1      19.612   1.100  32.993  1.00  0.00     0.169 HD
BRANCH  10  12
HETATM   12  C17 UNK     1      19.408   0.002  31.255  1.00  0.00     0.049 A 
HETATM   13  C18 UNK     1      19.196   0.906  30.214  1.00  0.00     0.074 A 
HETATM   14  C21 UNK     1      19.534   0.555  28.906  1.00  0.00     0.018 A 
HETATM   15  C24 UNK     1      20.083  -0.700  28.641  1.00  0.00     0.001 A 
HETATM   16  C23 UNK     1      20.295  -1.603  29.682  1.00  0.00     0.002 A 
HETATM   17  C20 UNK     1      19.956  -1.252  30.989  1.00  0.00     0.030 A 
BRANCH  13  18
HETATM   18  C22 UNK     1      18.610   2.257  30.468  1.00  0.00     0.419 C 
HETATM   19  F1  UNK     1      18.582   2.599  31.789  1.00  0.00    -0.166 F 
HETATM   20  F2  UNK     1      19.286   3.267  29.849  1.00  0.00    -0.166 F 
HETATM   21  F3  UNK     1      17.320   2.356  30.034  1.00  0.00    -0.166 F 
ENDBRANCH  13  18
ENDBRANCH  10  12
ENDBRANCH   7   8
ENDBRANCH   2   7
BRANCH   1  22
HETATM   22  C5  UNK     1      20.288  -3.792  37.811  1.00  0.00     0.312 C 
BRANCH  22  23
HETATM   23  C7  UNK     1      20.438  -5.198  37.343  1.00  0.00    -0.011 A 
HETATM   24  C10 UNK     1      19.574  -5.734  36.469  1.00  0.00     0.092 A 
HETATM   25  C13 UNK     1      19.682  -7.118  35.977  1.00  0.00     0.288 A 
HETATM   26  O1  UNK     1      20.739  -7.870  36.462  1.00  0.00    -0.275 OA
HETATM   27  O3  UNK     1      18.872  -7.573  35.177  1.00  0.00    -0.260 OA
HETATM   28  C11 UNK     1      21.665  -7.335  37.382  1.00  0.00     0.090 A 
HETATM   29  C8  UNK     1      21.549  -6.021  37.840  1.00  0.00     0.006 A 
HETATM   30  C14 UNK     1      22.689  -8.185  37.803  1.00  0.00     0.045 A 
HETATM   31  C12 UNK     1      22.509  -5.565  38.752  1.00  0.00     0.015 A 
HETATM   32  C16 UNK     1      23.541  -6.404  39.185  1.00  0.00     0.007 A 
HETATM   33  C15 UNK     1      23.632  -7.712  38.710  1.00  0.00    -0.059 A 
HETATM   34  C19 UNK     1      24.735  -8.600  39.174  1.00  0.00     0.048 C 
ENDBRANCH  22  23
ENDBRANCH   1  22
TORSDOF 6
ENDMDL
MODEL 9
REMARK VINA RESULT:      -9.9      3.487     10.269
REMARK  6 active torsions:
REMARK  status: ('A' for Active; 'I' for Inactive)
REMARK    1  A    between atoms: C5_14  and  N1_7 
REMARK    2  A    between atoms: C6_15  and  N2_8 
REMARK    3  A    between atoms: C17_26  and  N3_9 
REMARK       I    between atoms: C9_18  and  N3_9 
REMARK    4  A    between atoms: C5_14  and  C7_16 
REMARK    5  A    between atoms: C6_15  and  C9_18 
REMARK    6  A    between atoms: C18_27  and  C22_31 
ROOT
HETATM    1  N1  UNK     1      18.747  -1.015  35.226  1.00  0.00     0.096 N 
HETATM    2  N2  UNK     1      19.774  -3.109  36.934  1.00  0.00     0.100 N 
HETATM    3  C1  UNK     1      19.641  -2.056  34.703  1.00  0.00     0.303 C 
HETATM    4  C2  UNK     1      17.963  -1.531  36.353  1.00  0.00     0.303 C 
HETATM    5  C3  UNK     1      20.559  -2.592  35.807  1.00  0.00     0.303 C 
HETATM    6  C4  UNK     1      18.881  -2.068  37.457  1.00  0.00     0.303 C 
ENDROOT
BRANCH   2   7
HETATM    7  C6  UNK     1      20.650  -3.619  37.987  1.00  0.00     0.375 C 
BRANCH   7   8
HETATM    8  C9  UNK     1      20.866  -5.108  37.788  1.00  0.00     0.250 C 
HETATM    9  O2  UNK     1      21.883  -5.568  37.280  1.00  0.00    -0.271 OA
HETATM   10  N3  UNK     1      19.767  -5.821  38.263  1.00  0.00    -0.325 N 
HETATM   11  H15 UNK     1      18.998  -5.283  38.655  1.00  0.00     0.169 HD
BRANCH  10  12
HETATM   12  C17 UNK     1      19.581  -7.224  38.260  1.00  0.00     0.049 A 
HETATM   13  C18 UNK     1      18.863  -7.848  37.240  1.00  0.00     0.074 A 
HETATM   14  C21 UNK     1      18.689  -9.233  37.254  1.00  0.00     0.018 A 
HETATM   15  C24 UNK     1      19.234  -9.993  38.288  1.00  0.00     0.001 A 
HETATM   16  C23 UNK     1      19.953  -9.369  39.309  1.00  0.00     0.002 A 
HETATM   17  C20 UNK     1      20.125  -7.985  39.294  1.00  0.00     0.030 A 
BRANCH  13  18
HETATM   18  C22 UNK     1      18.267  -7.059  36.118  1.00  0.00     0.419 C 
HETATM   19  F1  UNK     1      17.498  -7.807  35.275  1.00  0.00    -0.166 F 
HETATM   20  F2  UNK     1      17.459  -6.044  36.538  1.00  0.00    -0.166 F 
HETATM   21  F3  UNK     1      19.215  -6.474  35.331  1.00  0.00    -0.166 F 
ENDBRANCH  13  18
ENDBRANCH  10  12
ENDBRANCH   7   8
ENDBRANCH   2   7
BRANCH   1  22
HETATM   22  C5  UNK     1      17.870  -0.508  34.173  1.00  0.00     0.312 C 
BRANCH  22  23
HETATM   23  C7  UNK     1      18.571  -0.394  32.863  1.00  0.00    -0.011 A 
HETATM   24  C10 UNK     1      19.150  -1.460  32.292  1.00  0.00     0.092 A 
HETATM   25  C13 UNK     1      19.854  -1.396  31.000  1.00  0.00     0.288 A 
HETATM   26  O1  UNK     1      19.899  -0.159  30.376  1.00  0.00    -0.275 OA
HETATM   27  O3  UNK     1      20.371  -2.392  30.508  1.00  0.00    -0.260 OA
HETATM   28  C11 UNK     1      19.299   0.980  30.952  1.00  0.00     0.090 A 
HETATM   29  C8  UNK     1      18.636   0.904  32.178  1.00  0.00     0.006 A 
HETATM   30  C14 UNK     1      19.407   2.173  30.234  1.00  0.00     0.045 A 
HETATM   31  C12 UNK     1      18.067   2.080  32.682  1.00  0.00     0.015 A 
HETATM   32  C16 UNK     1      18.167   3.284  31.976  1.00  0.00     0.007 A 
HETATM   33  C15 UNK     1      18.836   3.330  30.753  1.00  0.00    -0.059 A 
HETATM   34  C19 UNK     1      18.938   4.615  30.005  1.00  0.00     0.048 C 
ENDBRANCH  22  23
ENDBRANCH   1  22
TORSDOF 6
ENDMDL
MODEL 10
REMARK VINA RESULT:      -9.8      2.435      2.931
REMARK  6 active torsions:
REMARK  status: ('A' for Active; 'I' for Inactive)
REMARK    1  A    between atoms: C5_14  and  N1_7 
REMARK    2  A    between atoms: C6_15  and  N2_8 
REMARK    3  A    between atoms: C17_26  and  N3_9 
REMARK       I    between atoms: C9_18  and  N3_9 
REMARK    4  A    between atoms: C5_14  and  C7_16 
REMARK    5  A    between atoms: C6_15  and  C9_18 
REMARK    6  A    between atoms: C18_27  and  C22_31 
ROOT
HETATM    1  N1  UNK     1      19.373  -2.468  35.954  1.00  0.00     0.096 N 
HETATM    2  N2  UNK     1      18.617   0.076  34.807  1.00  0.00     0.100 N 
HETATM    3  C1  UNK     1      19.829  -2.070  34.617  1.00  0.00     0.303 C 
HETATM    4  C2  UNK     1      19.160  -1.285  36.797  1.00  0.00     0.303 C 
HETATM    5  C3  UNK     1      18.829  -1.107  33.964  1.00  0.00     0.303 C 
HETATM    6  C4  UNK     1      18.161  -0.323  36.144  1.00  0.00     0.303 C 
ENDROOT
BRANCH   2   7
HETATM    7  C6  UNK     1      17.663   0.992  34.184  1.00  0.00     0.375 C 
BRANCH   7   8
HETATM    8  C9  UNK     1      18.298   1.624  32.957  1.00  0.00     0.250 C 
HETATM    9  O2  UNK     1      18.949   0.979  32.142  1.00  0.00    -0.271 OA
HETATM   10  N3  UNK     1      18.018   2.989  32.920  1.00  0.00    -0.325 N 
HETATM   11  H15 UNK     1      17.462   3.370  33.682  1.00  0.00     0.169 HD
BRANCH  10  12
HETATM   12  C17 UNK     1      18.428   3.927  31.943  1.00  0.00     0.049 A 
HETATM   13  C18 UNK     1      18.800   5.222  32.307  1.00  0.00     0.074 A 
HETATM   14  C21 UNK     1      19.200   6.133  31.329  1.00  0.00     0.018 A 
HETATM   15  C24 UNK     1      19.227   5.750  29.988  1.00  0.00     0.001 A 
HETATM   16  C23 UNK     1      18.854   4.456  29.624  1.00  0.00     0.002 A 
HETATM   17  C20 UNK     1      18.454   3.546  30.603  1.00  0.00     0.030 A 
BRANCH  13  18
HETATM   18  C22 UNK     1      18.782   5.660  33.736  1.00  0.00     0.419 C 
HETATM   19  F1  UNK     1      17.527   5.744  34.264  1.00  0.00    -0.166 F 
HETATM   20  F2  UNK     1      19.467   4.824  34.569  1.00  0.00    -0.166 F 
HETATM   21  F3  UNK     1      19.339   6.893  33.911  1.00  0.00    -0.166 F 
ENDBRANCH  13  18
ENDBRANCH  10  12
ENDBRANCH   7   8
ENDBRANCH   2   7
BRANCH   1  22
HETATM   22  C5  UNK     1      20.329  -3.382  36.576  1.00  0.00     0.312 C 
BRANCH  22  23
HETATM   23  C7  UNK     1      19.708  -4.691  36.926  1.00  0.00    -0.011 A 
HETATM   24  C10 UNK     1      18.479  -5.011  36.497  1.00  0.00     0.092 A 
HETATM   25  C13 UNK     1      17.825  -6.292  36.816  1.00  0.00     0.288 A 
HETATM   26  O1  UNK     1      18.546  -7.181  37.598  1.00  0.00    -0.275 OA
HETATM   27  O3  UNK     1      16.699  -6.550  36.406  1.00  0.00    -0.260 OA
HETATM   28  C11 UNK     1      19.840  -6.872  38.063  1.00  0.00     0.090 A 
HETATM   29  C8  UNK     1      20.447  -5.654  37.753  1.00  0.00     0.006 A 
HETATM   30  C14 UNK     1      20.472  -7.843  38.843  1.00  0.00     0.045 A 
HETATM   31  C12 UNK     1      21.735  -5.424  38.253  1.00  0.00     0.015 A 
HETATM   32  C16 UNK     1      22.381  -6.387  39.037  1.00  0.00     0.007 A 
HETATM   33  C15 UNK     1      21.751  -7.595  39.331  1.00  0.00    -0.059 A 
HETATM   34  C19 UNK     1      22.445  -8.617  40.164  1.00  0.00     0.048 C 
ENDBRANCH  22  23
ENDBRANCH   1  22
TORSDOF 6
ENDMDL
