MODEL 1
REMARK VINA RESULT:      -8.1      0.000      0.000
REMARK  4 active torsions:
REMARK  status: ('A' for Active; 'I' for Inactive)
REMARK    1  A    between atoms: C9_15  and  N1_5 
REMARK    2  A    between atoms: C10_16  and  N2_6 
REMARK    3  A    between atoms: C1_7  and  C3_9 
REMARK    4  A    between atoms: C2_8  and  C4_10 
ROOT
HETATM    1  C3  UNK     1      18.816   5.162  31.409  1.00  0.00     0.012 C 
HETATM    2  C4  UNK     1      18.098   4.013  31.397  1.00  0.00     0.012 C 
ENDROOT
BRANCH   1   3
HETATM    3  C1  UNK     1      18.420   6.383  32.093  1.00  0.00    -0.036 A 
HETATM    4  C5  UNK     1      19.284   6.981  33.010  1.00  0.00     0.014 A 
HETATM    5  C11 UNK     1      18.905   8.154  33.663  1.00  0.00     0.037 A 
HETATM    6  C9  UNK     1      17.661   8.728  33.401  1.00  0.00     0.102 A 
HETATM    7  C13 UNK     1      16.796   8.128  32.485  1.00  0.00     0.037 A 
HETATM    8  C7  UNK     1      17.176   6.956  31.831  1.00  0.00     0.014 A 
BRANCH   6   9
HETATM    9  N1  UNK     1      17.273   9.920  34.067  1.00  0.00    -0.116 N 
HETATM   10  O1  UNK     1      17.832  10.999  33.756  1.00  0.00    -0.532 OA
HETATM   11  O3  UNK     1      16.381   9.863  34.947  1.00  0.00    -0.532 OA
ENDBRANCH   6   9
ENDBRANCH   1   3
BRANCH   2  12
HETATM   12  C2  UNK     1      18.493   2.826  30.696  1.00  0.00    -0.036 A 
HETATM   13  C6  UNK     1      19.170   1.790  31.362  1.00  0.00     0.014 A 
HETATM   14  C12 UNK     1      19.552   0.634  30.680  1.00  0.00     0.037 A 
HETATM   15  C10 UNK     1      19.263   0.498  29.321  1.00  0.00     0.102 A 
HETATM   16  C14 UNK     1      18.592   1.517  28.645  1.00  0.00     0.037 A 
HETATM   17  C8  UNK     1      18.210   2.672  29.328  1.00  0.00     0.014 A 
BRANCH  15  18
HETATM   18  N2  UNK     1      19.652  -0.677  28.627  1.00  0.00    -0.116 N 
HETATM   19  O2  UNK     1      19.159  -0.907  27.496  1.00  0.00    -0.532 OA
HETATM   20  O4  UNK     1      20.478  -1.456  29.164  1.00  0.00    -0.532 OA
ENDBRANCH  15  18
ENDBRANCH   2  12
TORSDOF 4
ENDMDL
MODEL 2
REMARK VINA RESULT:      -8.1      0.140      8.963
REMARK  4 active torsions:
REMARK  status: ('A' for Active; 'I' for Inactive)
REMARK    1  A    between atoms: C9_15  and  N1_5 
REMARK    2  A    between atoms: C10_16  and  N2_6 
REMARK    3  A    between atoms: C1_7  and  C3_9 
REMARK    4  A    between atoms: C2_8  and  C4_10 
ROOT
HETATM    1  C3  UNK     1      18.189   3.963  31.360  1.00  0.00     0.012 C 
HETATM    2  C4  UNK     1      18.911   5.109  31.341  1.00  0.00     0.012 C 
ENDROOT
BRANCH   1   3
HETATM    3  C1  UNK     1      18.545   2.743  30.653  1.00  0.00    -0.036 A 
HETATM    4  C5  UNK     1      18.211   2.593  29.307  1.00  0.00     0.014 A 
HETATM    5  C11 UNK     1      18.555   1.424  28.629  1.00  0.00     0.037 A 
HETATM    6  C9  UNK     1      19.234   0.404  29.296  1.00  0.00     0.102 A 
HETATM    7  C13 UNK     1      19.567   0.554  30.642  1.00  0.00     0.037 A 
HETATM    8  C7  UNK     1      19.223   1.724  31.321  1.00  0.00     0.014 A 
BRANCH   6   9
HETATM    9  N1  UNK     1      19.583  -0.787  28.608  1.00  0.00    -0.116 N 
HETATM   10  O1  UNK     1      19.194  -0.942  27.425  1.00  0.00    -0.532 OA
HETATM   11  O3  UNK     1      20.273  -1.652  29.199  1.00  0.00    -0.532 OA
ENDBRANCH   6   9
ENDBRANCH   1   3
BRANCH   2  12
HETATM   12  C2  UNK     1      18.531   6.311  32.025  1.00  0.00    -0.036 A 
HETATM   13  C6  UNK     1      19.372   6.883  32.994  1.00  0.00     0.014 A 
HETATM   14  C12 UNK     1      19.002   8.054  33.658  1.00  0.00     0.037 A 
HETATM   15  C10 UNK     1      17.784   8.668  33.363  1.00  0.00     0.102 A 
HETATM   16  C14 UNK     1      16.937   8.112  32.403  1.00  0.00     0.037 A 
HETATM   17  C8  UNK     1      17.308   6.942  31.741  1.00  0.00     0.014 A 
BRANCH  15  18
HETATM   18  N2  UNK     1      17.407   9.858  34.038  1.00  0.00    -0.116 N 
HETATM   19  O2  UNK     1      17.986  10.932  33.746  1.00  0.00    -0.532 OA
HETATM   20  O4  UNK     1      16.506   9.803  34.910  1.00  0.00    -0.532 OA
ENDBRANCH  15  18
ENDBRANCH   2  12
TORSDOF 4
ENDMDL
MODEL 3
REMARK VINA RESULT:      -8.1      0.048      1.679
REMARK  4 active torsions:
REMARK  status: ('A' for Active; 'I' for Inactive)
REMARK    1  A    between atoms: C9_15  and  N1_5 
REMARK    2  A    between atoms: C10_16  and  N2_6 
REMARK    3  A    between atoms: C1_7  and  C3_9 
REMARK    4  A    between atoms: C2_8  and  C4_10 
ROOT
HETATM    1  C3  UNK     1      18.767   5.175  31.343  1.00  0.00     0.012 C 
HETATM    2  C4  UNK     1      18.122   3.986  31.429  1.00  0.00     0.012 C 
ENDROOT
BRANCH   1   3
HETATM    3  C1  UNK     1      18.377   6.387  32.046  1.00  0.00    -0.036 A 
HETATM    4  C5  UNK     1      17.135   6.970  31.796  1.00  0.00     0.014 A 
HETATM    5  C11 UNK     1      16.760   8.131  32.473  1.00  0.00     0.037 A 
HETATM    6  C9  UNK     1      17.628   8.709  33.399  1.00  0.00     0.102 A 
HETATM    7  C13 UNK     1      18.870   8.125  33.649  1.00  0.00     0.037 A 
HETATM    8  C7  UNK     1      19.244   6.964  32.973  1.00  0.00     0.014 A 
BRANCH   6   9
HETATM    9  N1  UNK     1      17.248   9.891  34.088  1.00  0.00    -0.116 N 
HETATM   10  O1  UNK     1      17.801  10.976  33.782  1.00  0.00    -0.532 OA
HETATM   11  O3  UNK     1      16.371   9.821  34.981  1.00  0.00    -0.532 OA
ENDBRANCH   6   9
ENDBRANCH   1   3
BRANCH   2  12
HETATM   12  C2  UNK     1      18.507   2.808  30.709  1.00  0.00    -0.036 A 
HETATM   13  C6  UNK     1      18.227   2.680  29.338  1.00  0.00     0.014 A 
HETATM   14  C12 UNK     1      18.604   1.534  28.637  1.00  0.00     0.037 A 
HETATM   15  C10 UNK     1      19.266   0.499  29.298  1.00  0.00     0.102 A 
HETATM   16  C14 UNK     1      19.552   0.610  30.659  1.00  0.00     0.037 A 
HETATM   17  C8  UNK     1      19.174   1.755  31.359  1.00  0.00     0.014 A 
BRANCH  15  18
HETATM   18  N2  UNK     1      19.650  -0.668  28.586  1.00  0.00    -0.116 N 
HETATM   19  O2  UNK     1      20.500  -1.439  29.093  1.00  0.00    -0.532 OA
HETATM   20  O4  UNK     1      19.128  -0.895  27.466  1.00  0.00    -0.532 OA
ENDBRANCH  15  18
ENDBRANCH   2  12
TORSDOF 4
ENDMDL
MODEL 4
REMARK VINA RESULT:      -7.3      8.903     13.680
REMARK  4 active torsions:
REMARK  status: ('A' for Active; 'I' for Inactive)
REMARK    1  A    between atoms: C9_15  and  N1_5 
REMARK    2  A    between atoms: C10_16  and  N2_6 
REMARK    3  A    between atoms: C1_7  and  C3_9 
REMARK    4  A    between atoms: C2_8  and  C4_10 
ROOT
HETATM    1  C3  UNK     1      20.002  -4.972  36.801  1.00  0.00     0.012 C 
HETATM    2  C4  UNK     1      19.930  -3.888  35.991  1.00  0.00     0.012 C 
ENDROOT
BRANCH   1   3
HETATM    3  C1  UNK     1      20.547  -6.264  36.415  1.00  0.00    -0.036 A 
HETATM    4  C5  UNK     1      21.361  -6.971  37.300  1.00  0.00     0.014 A 
HETATM    5  C11 UNK     1      21.881  -8.212  36.929  1.00  0.00     0.037 A 
HETATM    6  C9  UNK     1      21.587  -8.745  35.675  1.00  0.00     0.102 A 
HETATM    7  C13 UNK     1      20.773  -8.038  34.790  1.00  0.00     0.037 A 
HETATM    8  C7  UNK     1      20.253  -6.798  35.160  1.00  0.00     0.014 A 
BRANCH   6   9
HETATM    9  N1  UNK     1      22.117 -10.007  35.296  1.00  0.00    -0.116 N 
HETATM   10  O1  UNK     1      22.958 -10.562  36.044  1.00  0.00    -0.532 OA
HETATM   11  O3  UNK     1      21.728 -10.534  34.227  1.00  0.00    -0.532 OA
ENDBRANCH   6   9
ENDBRANCH   1   3
BRANCH   2  12
HETATM   12  C2  UNK     1      19.367  -2.629  36.382  1.00  0.00    -0.036 A 
HETATM   13  C6  UNK     1      18.832  -2.449  37.669  1.00  0.00     0.014 A 
HETATM   14  C12 UNK     1      18.287  -1.222  38.049  1.00  0.00     0.037 A 
HETATM   15  C10 UNK     1      18.267  -0.158  37.147  1.00  0.00     0.102 A 
HETATM   16  C14 UNK     1      18.794  -0.320  35.865  1.00  0.00     0.037 A 
HETATM   17  C8  UNK     1      19.339  -1.546  35.486  1.00  0.00     0.014 A 
BRANCH  15  18
HETATM   18  N2  UNK     1      17.712   1.090  37.533  1.00  0.00    -0.116 N 
HETATM   19  O2  UNK     1      17.824   1.463  38.726  1.00  0.00    -0.532 OA
HETATM   20  O4  UNK     1      17.123   1.787  36.671  1.00  0.00    -0.532 OA
ENDBRANCH  15  18
ENDBRANCH   2  12
TORSDOF 4
ENDMDL
MODEL 5
REMARK VINA RESULT:      -7.3      8.889     10.659
REMARK  4 active torsions:
REMARK  status: ('A' for Active; 'I' for Inactive)
REMARK    1  A    between atoms: C9_15  and  N1_5 
REMARK    2  A    between atoms: C10_16  and  N2_6 
REMARK    3  A    between atoms: C1_7  and  C3_9 
REMARK    4  A    between atoms: C2_8  and  C4_10 
ROOT
HETATM    1  C3  UNK     1      19.902  -3.917  36.000  1.00  0.00     0.012 C 
HETATM    2  C4  UNK     1      19.995  -4.991  36.821  1.00  0.00     0.012 C 
ENDROOT
BRANCH   1   3
HETATM    3  C1  UNK     1      19.347  -2.627  36.378  1.00  0.00    -0.036 A 
HETATM    4  C5  UNK     1      19.352  -1.571  35.466  1.00  0.00     0.014 A 
HETATM    5  C11 UNK     1      18.817  -0.334  35.828  1.00  0.00     0.037 A 
HETATM    6  C9  UNK     1      18.278  -0.153  37.101  1.00  0.00     0.102 A 
HETATM    7  C13 UNK     1      18.273  -1.209  38.013  1.00  0.00     0.037 A 
HETATM    8  C7  UNK     1      18.807  -2.446  37.651  1.00  0.00     0.014 A 
BRANCH   6   9
HETATM    9  N1  UNK     1      17.734   1.106  37.472  1.00  0.00    -0.116 N 
HETATM   10  O1  UNK     1      17.128   1.783  36.608  1.00  0.00    -0.532 OA
HETATM   11  O3  UNK     1      17.874   1.505  38.652  1.00  0.00    -0.532 OA
ENDBRANCH   6   9
ENDBRANCH   1   3
BRANCH   2  12
HETATM   12  C2  UNK     1      20.523  -6.263  36.424  1.00  0.00    -0.036 A 
HETATM   13  C6  UNK     1      20.218  -6.807  35.165  1.00  0.00     0.014 A 
HETATM   14  C12 UNK     1      20.735  -8.044  34.778  1.00  0.00     0.037 A 
HETATM   15  C10 UNK     1      21.563  -8.756  35.646  1.00  0.00     0.102 A 
HETATM   16  C14 UNK     1      21.876  -8.230  36.899  1.00  0.00     0.037 A 
HETATM   17  C8  UNK     1      21.359  -6.994  37.285  1.00  0.00     0.014 A 
BRANCH  15  18
HETATM   18  N2  UNK     1      22.088 -10.015  35.252  1.00  0.00    -0.116 N 
HETATM   19  O2  UNK     1      21.745 -10.500  34.148  1.00  0.00    -0.532 OA
HETATM   20  O4  UNK     1      22.883 -10.609  36.022  1.00  0.00    -0.532 OA
ENDBRANCH  15  18
ENDBRANCH   2  12
TORSDOF 4
ENDMDL
MODEL 6
REMARK VINA RESULT:      -7.1      2.018      2.892
REMARK  4 active torsions:
REMARK  status: ('A' for Active; 'I' for Inactive)
REMARK    1  A    between atoms: C9_15  and  N1_5 
REMARK    2  A    between atoms: C10_16  and  N2_6 
REMARK    3  A    between atoms: C1_7  and  C3_9 
REMARK    4  A    between atoms: C2_8  and  C4_10 
ROOT
HETATM    1  C3  UNK     1      18.833   3.090  31.839  1.00  0.00     0.012 C 
HETATM    2  C4  UNK     1      18.795   2.276  30.756  1.00  0.00     0.012 C 
ENDROOT
BRANCH   1   3
HETATM    3  C1  UNK     1      18.319   4.450  31.876  1.00  0.00    -0.036 A 
HETATM    4  C5  UNK     1      18.504   5.296  30.782  1.00  0.00     0.014 A 
HETATM    5  C11 UNK     1      18.009   6.600  30.817  1.00  0.00     0.037 A 
HETATM    6  C9  UNK     1      17.330   7.058  31.946  1.00  0.00     0.102 A 
HETATM    7  C13 UNK     1      17.147   6.212  33.040  1.00  0.00     0.037 A 
HETATM    8  C7  UNK     1      17.641   4.908  33.005  1.00  0.00     0.014 A 
BRANCH   6   9
HETATM    9  N1  UNK     1      16.828   8.385  31.984  1.00  0.00    -0.116 N 
HETATM   10  O1  UNK     1      15.900   8.706  31.203  1.00  0.00    -0.532 OA
HETATM   11  O3  UNK     1      17.323   9.200  32.798  1.00  0.00    -0.532 OA
ENDBRANCH   6   9
ENDBRANCH   1   3
BRANCH   2  12
HETATM   12  C2  UNK     1      19.328   0.945  30.731  1.00  0.00    -0.036 A 
HETATM   13  C6  UNK     1      20.050   0.481  29.618  1.00  0.00     0.014 A 
HETATM   14  C12 UNK     1      20.571  -0.813  29.596  1.00  0.00     0.037 A 
HETATM   15  C10 UNK     1      20.376  -1.663  30.686  1.00  0.00     0.102 A 
HETATM   16  C14 UNK     1      19.662  -1.217  31.798  1.00  0.00     0.037 A 
HETATM   17  C8  UNK     1      19.141   0.076  31.820  1.00  0.00     0.014 A 
BRANCH  15  18
HETATM   18  N2  UNK     1      20.905  -2.980  30.663  1.00  0.00    -0.116 N 
HETATM   19  O2  UNK     1      21.252  -3.478  29.565  1.00  0.00    -0.532 OA
HETATM   20  O4  UNK     1      21.012  -3.611  31.743  1.00  0.00    -0.532 OA
ENDBRANCH  15  18
ENDBRANCH   2  12
TORSDOF 4
ENDMDL
MODEL 7
REMARK VINA RESULT:      -7.0      2.364      9.540
REMARK  4 active torsions:
REMARK  status: ('A' for Active; 'I' for Inactive)
REMARK    1  A    between atoms: C9_15  and  N1_5 
REMARK    2  A    between atoms: C10_16  and  N2_6 
REMARK    3  A    between atoms: C1_7  and  C3_9 
REMARK    4  A    between atoms: C2_8  and  C4_10 
ROOT
HETATM    1  C3  UNK     1      18.463   7.297  32.326  1.00  0.00     0.012 C 
HETATM    2  C4  UNK     1      17.421   7.864  32.981  1.00  0.00     0.012 C 
ENDROOT
BRANCH   1   3
HETATM    3  C1  UNK     1      18.481   5.938  31.809  1.00  0.00    -0.036 A 
HETATM    4  C5  UNK     1      18.974   5.684  30.529  1.00  0.00     0.014 A 
HETATM    5  C11 UNK     1      18.993   4.379  30.035  1.00  0.00     0.037 A 
HETATM    6  C9  UNK     1      18.518   3.329  30.820  1.00  0.00     0.102 A 
HETATM    7  C13 UNK     1      18.025   3.583  32.100  1.00  0.00     0.037 A 
HETATM    8  C7  UNK     1      18.006   4.887  32.594  1.00  0.00     0.014 A 
BRANCH   6   9
HETATM    9  N1  UNK     1      18.536   2.001  30.318  1.00  0.00    -0.116 N 
HETATM   10  O1  UNK     1      17.623   1.635  29.538  1.00  0.00    -0.532 OA
HETATM   11  O3  UNK     1      19.463   1.231  30.665  1.00  0.00    -0.532 OA
ENDBRANCH   6   9
ENDBRANCH   1   3
BRANCH   2  12
HETATM   12  C2  UNK     1      17.431   9.199  33.505  1.00  0.00    -0.036 A 
HETATM   13  C6  UNK     1      16.229   9.879  33.761  1.00  0.00     0.014 A 
HETATM   14  C12 UNK     1      16.239  11.177  34.273  1.00  0.00     0.037 A 
HETATM   15  C10 UNK     1      17.453  11.813  34.535  1.00  0.00     0.102 A 
HETATM   16  C14 UNK     1      18.656  11.152  34.287  1.00  0.00     0.037 A 
HETATM   17  C8  UNK     1      18.644   9.855  33.774  1.00  0.00     0.014 A 
BRANCH  15  18
HETATM   18  N2  UNK     1      17.464  13.134  35.056  1.00  0.00    -0.116 N 
HETATM   19  O2  UNK     1      18.222  13.987  34.536  1.00  0.00    -0.532 OA
HETATM   20  O4  UNK     1      16.716  13.412  36.025  1.00  0.00    -0.532 OA
ENDBRANCH  15  18
ENDBRANCH   2  12
TORSDOF 4
ENDMDL
MODEL 8
REMARK VINA RESULT:      -7.0      2.323      9.537
REMARK  4 active torsions:
REMARK  status: ('A' for Active; 'I' for Inactive)
REMARK    1  A    between atoms: C9_15  and  N1_5 
REMARK    2  A    between atoms: C10_16  and  N2_6 
REMARK    3  A    between atoms: C1_7  and  C3_9 
REMARK    4  A    between atoms: C2_8  and  C4_10 
ROOT
HETATM    1  C3  UNK     1      18.447   7.169  32.573  1.00  0.00     0.012 C 
HETATM    2  C4  UNK     1      17.328   7.904  32.783  1.00  0.00     0.012 C 
ENDROOT
BRANCH   1   3
HETATM    3  C1  UNK     1      18.474   5.850  31.960  1.00  0.00    -0.036 A 
HETATM    4  C5  UNK     1      18.012   4.741  32.670  1.00  0.00     0.014 A 
HETATM    5  C11 UNK     1      18.035   3.477  32.080  1.00  0.00     0.037 A 
HETATM    6  C9  UNK     1      18.521   3.321  30.782  1.00  0.00     0.102 A 
HETATM    7  C13 UNK     1      18.983   4.430  30.073  1.00  0.00     0.037 A 
HETATM    8  C7  UNK     1      18.959   5.695  30.662  1.00  0.00     0.014 A 
BRANCH   6   9
HETATM    9  N1  UNK     1      18.547   2.035  30.182  1.00  0.00    -0.116 N 
HETATM   10  O1  UNK     1      19.519   1.276  30.413  1.00  0.00    -0.532 OA
HETATM   11  O3  UNK     1      17.597   1.691  29.439  1.00  0.00    -0.532 OA
ENDBRANCH   6   9
ENDBRANCH   1   3
BRANCH   2  12
HETATM   12  C2  UNK     1      17.319   9.193  33.411  1.00  0.00    -0.036 A 
HETATM   13  C6  UNK     1      16.107   9.837  33.713  1.00  0.00     0.014 A 
HETATM   14  C12 UNK     1      16.099  11.090  34.327  1.00  0.00     0.037 A 
HETATM   15  C10 UNK     1      17.304  11.718  34.645  1.00  0.00     0.102 A 
HETATM   16  C14 UNK     1      18.516  11.092  34.352  1.00  0.00     0.037 A 
HETATM   17  C8  UNK     1      18.523   9.840  33.739  1.00  0.00     0.014 A 
BRANCH  15  18
HETATM   18  N2  UNK     1      17.296  12.993  35.269  1.00  0.00    -0.116 N 
HETATM   19  O2  UNK     1      16.810  13.105  36.420  1.00  0.00    -0.532 OA
HETATM   20  O4  UNK     1      17.776  13.975  34.651  1.00  0.00    -0.532 OA
ENDBRANCH  15  18
ENDBRANCH   2  12
TORSDOF 4
ENDMDL
MODEL 9
REMARK VINA RESULT:      -6.9     16.384     18.064
REMARK  4 active torsions:
REMARK  status: ('A' for Active; 'I' for Inactive)
REMARK    1  A    between atoms: C9_15  and  N1_5 
REMARK    2  A    between atoms: C10_16  and  N2_6 
REMARK    3  A    between atoms: C1_7  and  C3_9 
REMARK    4  A    between atoms: C2_8  and  C4_10 
ROOT
HETATM    1  C3  UNK     1      32.386  -5.616  34.706  1.00  0.00     0.012 C 
HETATM    2  C4  UNK     1      32.186  -6.665  33.871  1.00  0.00     0.012 C 
ENDROOT
BRANCH   1   3
HETATM    3  C1  UNK     1      31.507  -5.246  35.804  1.00  0.00    -0.036 A 
HETATM    4  C5  UNK     1      30.445  -6.078  36.158  1.00  0.00     0.014 A 
HETATM    5  C11 UNK     1      29.604  -5.724  37.213  1.00  0.00     0.037 A 
HETATM    6  C9  UNK     1      29.825  -4.538  37.914  1.00  0.00     0.102 A 
HETATM    7  C13 UNK     1      30.887  -3.707  37.559  1.00  0.00     0.037 A 
HETATM    8  C7  UNK     1      31.729  -4.061  36.505  1.00  0.00     0.014 A 
BRANCH   6   9
HETATM    9  N1  UNK     1      28.968  -4.176  38.987  1.00  0.00    -0.116 N 
HETATM   10  O1  UNK     1      29.469  -3.665  40.017  1.00  0.00    -0.532 OA
HETATM   11  O3  UNK     1      27.735  -4.375  38.875  1.00  0.00    -0.532 OA
ENDBRANCH   6   9
ENDBRANCH   1   3
BRANCH   2  12
HETATM   12  C2  UNK     1      33.051  -7.000  32.778  1.00  0.00    -0.036 A 
HETATM   13  C6  UNK     1      34.447  -6.965  32.930  1.00  0.00     0.014 A 
HETATM   14  C12 UNK     1      35.289  -7.293  31.866  1.00  0.00     0.037 A 
HETATM   15  C10 UNK     1      34.745  -7.659  30.634  1.00  0.00     0.102 A 
HETATM   16  C14 UNK     1      33.361  -7.699  30.467  1.00  0.00     0.037 A 
HETATM   17  C8  UNK     1      32.521  -7.370  31.530  1.00  0.00     0.014 A 
BRANCH  15  18
HETATM   18  N2  UNK     1      35.601  -7.993  29.552  1.00  0.00    -0.116 N 
HETATM   19  O2  UNK     1      35.630  -7.244  28.546  1.00  0.00    -0.532 OA
HETATM   20  O4  UNK     1      36.304  -9.030  29.630  1.00  0.00    -0.532 OA
ENDBRANCH  15  18
ENDBRANCH   2  12
TORSDOF 4
ENDMDL
MODEL 10
REMARK VINA RESULT:      -6.9      2.011      2.963
REMARK  4 active torsions:
REMARK  status: ('A' for Active; 'I' for Inactive)
REMARK    1  A    between atoms: C9_15  and  N1_5 
REMARK    2  A    between atoms: C10_16  and  N2_6 
REMARK    3  A    between atoms: C1_7  and  C3_9 
REMARK    4  A    between atoms: C2_8  and  C4_10 
ROOT
HETATM    1  C3  UNK     1      17.091   7.413  32.445  1.00  0.00     0.012 C 
HETATM    2  C4  UNK     1      18.280   6.816  32.185  1.00  0.00     0.012 C 
ENDROOT
BRANCH   1   3
HETATM    3  C1  UNK     1      16.934   8.714  33.076  1.00  0.00    -0.036 A 
HETATM    4  C5  UNK     1      18.041   9.365  33.619  1.00  0.00     0.014 A 
HETATM    5  C11 UNK     1      17.890  10.614  34.221  1.00  0.00     0.037 A 
HETATM    6  C9  UNK     1      16.631  11.211  34.282  1.00  0.00     0.102 A 
HETATM    7  C13 UNK     1      15.524  10.559  33.740  1.00  0.00     0.037 A 
HETATM    8  C7  UNK     1      15.675   9.311  33.136  1.00  0.00     0.014 A 
BRANCH   6   9
HETATM    9  N1  UNK     1      16.475  12.482  34.897  1.00  0.00    -0.116 N 
HETATM   10  O1  UNK     1      16.444  13.506  34.174  1.00  0.00    -0.532 OA
HETATM   11  O3  UNK     1      16.372  12.545  36.145  1.00  0.00    -0.532 OA
ENDBRANCH   6   9
ENDBRANCH   1   3
BRANCH   2  12
HETATM   12  C2  UNK     1      18.415   5.521  31.584  1.00  0.00    -0.036 A 
HETATM   13  C6  UNK     1      18.071   4.359  32.295  1.00  0.00     0.014 A 
HETATM   14  C12 UNK     1      18.201   3.100  31.709  1.00  0.00     0.037 A 
HETATM   15  C10 UNK     1      18.677   2.984  30.402  1.00  0.00     0.102 A 
HETATM   16  C14 UNK     1      19.023   4.128  29.682  1.00  0.00     0.037 A 
HETATM   17  C8  UNK     1      18.894   5.386  30.269  1.00  0.00     0.014 A 
BRANCH  15  18
HETATM   18  N2  UNK     1      18.810   1.703  29.805  1.00  0.00    -0.116 N 
HETATM   19  O2  UNK     1      19.108   0.722  30.529  1.00  0.00    -0.532 OA
HETATM   20  O4  UNK     1      18.625   1.587  28.569  1.00  0.00    -0.532 OA
ENDBRANCH  15  18
ENDBRANCH   2  12
TORSDOF 4
ENDMDL
