MODEL 1
REMARK VINA RESULT:      -8.4      0.000      0.000
REMARK  5 active torsions:
REMARK  status: ('A' for Active; 'I' for Inactive)
REMARK    1  A    between atoms: C5_11  and  O2_2 
REMARK    2  A    between atoms: C9_15  and  O3_3 
REMARK    3  A    between atoms: C12_18  and  O4_4 
REMARK    4  A    between atoms: C14_20  and  O6_6 
REMARK    5  A    between atoms: C1_7  and  C2_8 
ROOT
HETATM    1  O1  UNK     1      19.092  -0.939  17.670  1.00  0.00    -0.306 OA
HETATM    2  O5  UNK     1      19.349   2.384  15.325  1.00  0.00    -0.284 OA
HETATM    3  C1  UNK     1      19.194  -1.032  16.291  1.00  0.00     0.123 A 
HETATM    4  C3  UNK     1      19.179   1.481  17.497  1.00  0.00     0.051 A 
HETATM    5  C4  UNK     1      19.092   0.308  18.242  1.00  0.00     0.093 A 
HETATM    6  C5  UNK     1      19.274   0.021  15.458  1.00  0.00     0.152 A 
HETATM    7  C6  UNK     1      19.276   1.389  16.032  1.00  0.00     0.220 A 
HETATM    8  C10 UNK     1      19.175   2.724  18.135  1.00  0.00     0.021 A 
HETATM    9  C11 UNK     1      18.997   0.369  19.633  1.00  0.00     0.074 A 
HETATM   10  C14 UNK     1      18.992   1.608  20.274  1.00  0.00     0.068 A 
HETATM   11  C15 UNK     1      19.081   2.784  19.526  1.00  0.00     0.037 A 
ENDROOT
BRANCH   3  12
HETATM   12  C2  UNK     1      19.180  -2.425  15.808  1.00  0.00     0.004 A 
HETATM   13  C7  UNK     1      20.371  -3.143  15.713  1.00  0.00     0.054 A 
HETATM   14  C9  UNK     1      20.357  -4.462  15.256  1.00  0.00     0.102 A 
HETATM   15  C12 UNK     1      19.152  -5.061  14.894  1.00  0.00     0.101 A 
HETATM   16  C13 UNK     1      17.959  -4.344  14.988  1.00  0.00     0.040 A 
HETATM   17  C8  UNK     1      17.974  -3.026  15.446  1.00  0.00     0.017 A 
BRANCH  14  18
HETATM   18  O3  UNK     1      21.529  -5.152  15.168  1.00  0.00    -0.353 OA
HETATM   19  C16 UNK     1      22.412  -5.075  16.286  1.00  0.00     0.210 C 
ENDBRANCH  14  18
BRANCH  15  20
HETATM   20  O4  UNK     1      19.125  -6.347  14.446  1.00  0.00    -0.353 OA
HETATM   21  C17 UNK     1      17.993  -6.743  13.674  1.00  0.00     0.210 C 
ENDBRANCH  15  20
ENDBRANCH   3  12
BRANCH   6  22
HETATM   22  O2  UNK     1      19.341  -0.107  14.087  1.00  0.00    -0.355 OA
HETATM   23  H7  UNK     1      18.620   0.392  13.674  1.00  0.00     0.218 HD
ENDBRANCH   6  22
BRANCH  10  24
HETATM   24  O6  UNK     1      18.901   1.673  21.630  1.00  0.00    -0.361 OA
HETATM   25  H8  UNK     1      19.198   2.552  21.925  1.00  0.00     0.217 HD
ENDBRANCH  10  24
TORSDOF 5
ENDMDL
MODEL 2
REMARK VINA RESULT:      -8.3     13.452     17.957
REMARK  5 active torsions:
REMARK  status: ('A' for Active; 'I' for Inactive)
REMARK    1  A    between atoms: C5_11  and  O2_2 
REMARK    2  A    between atoms: C9_15  and  O3_3 
REMARK    3  A    between atoms: C12_18  and  O4_4 
REMARK    4  A    between atoms: C14_20  and  O6_6 
REMARK    5  A    between atoms: C1_7  and  C2_8 
ROOT
HETATM    1  O1  UNK     1      16.794   7.431  32.202  1.00  0.00    -0.306 OA
HETATM    2  O5  UNK     1      19.486   9.412  34.534  1.00  0.00    -0.284 OA
HETATM    3  C1  UNK     1      18.062   6.922  32.435  1.00  0.00     0.123 A 
HETATM    4  C3  UNK     1      17.323   9.347  33.596  1.00  0.00     0.051 A 
HETATM    5  C4  UNK     1      16.450   8.623  32.787  1.00  0.00     0.093 A 
HETATM    6  C5  UNK     1      19.000   7.526  33.187  1.00  0.00     0.152 A 
HETATM    7  C6  UNK     1      18.674   8.818  33.837  1.00  0.00     0.220 A 
HETATM    8  C10 UNK     1      16.917  10.556  34.166  1.00  0.00     0.021 A 
HETATM    9  C11 UNK     1      15.164   9.105  32.540  1.00  0.00     0.074 A 
HETATM   10  C14 UNK     1      14.756  10.312  33.107  1.00  0.00     0.068 A 
HETATM   11  C15 UNK     1      15.630  11.037  33.918  1.00  0.00     0.037 A 
ENDROOT
BRANCH   3  12
HETATM   12  C2  UNK     1      18.301   5.640  31.748  1.00  0.00     0.004 A 
HETATM   13  C7  UNK     1      17.957   4.440  32.369  1.00  0.00     0.054 A 
HETATM   14  C9  UNK     1      18.183   3.227  31.717  1.00  0.00     0.102 A 
HETATM   15  C12 UNK     1      18.754   3.215  30.445  1.00  0.00     0.101 A 
HETATM   16  C13 UNK     1      19.099   4.415  29.823  1.00  0.00     0.040 A 
HETATM   17  C8  UNK     1      18.872   5.627  30.475  1.00  0.00     0.017 A 
BRANCH  14  18
HETATM   18  O3  UNK     1      17.843   2.061  32.335  1.00  0.00    -0.353 OA
HETATM   19  C16 UNK     1      18.119   1.964  33.732  1.00  0.00     0.210 C 
ENDBRANCH  14  18
BRANCH  15  20
HETATM   20  O4  UNK     1      18.981   2.037  29.799  1.00  0.00    -0.353 OA
HETATM   21  C17 UNK     1      18.083   1.691  28.746  1.00  0.00     0.210 C 
ENDBRANCH  15  20
ENDBRANCH   3  12
BRANCH   6  22
HETATM   22  O2  UNK     1      20.264   7.007  33.372  1.00  0.00    -0.355 OA
HETATM   23  H7  UNK     1      20.399   6.795  34.308  1.00  0.00     0.218 HD
ENDBRANCH   6  22
BRANCH  10  24
HETATM   24  O6  UNK     1      13.502  10.786  32.870  1.00  0.00    -0.361 OA
HETATM   25  H8  UNK     1      13.509  11.298  32.042  1.00  0.00     0.217 HD
ENDBRANCH  10  24
TORSDOF 5
ENDMDL
MODEL 3
REMARK VINA RESULT:      -8.1     14.628     18.094
REMARK  5 active torsions:
REMARK  status: ('A' for Active; 'I' for Inactive)
REMARK    1  A    between atoms: C5_11  and  O2_2 
REMARK    2  A    between atoms: C9_15  and  O3_3 
REMARK    3  A    between atoms: C12_18  and  O4_4 
REMARK    4  A    between atoms: C14_20  and  O6_6 
REMARK    5  A    between atoms: C1_7  and  C2_8 
ROOT
HETATM    1  O1  UNK     1      18.110   2.986  33.096  1.00  0.00    -0.306 OA
HETATM    2  O5  UNK     1      19.359   1.430  29.543  1.00  0.00    -0.284 OA
HETATM    3  C1  UNK     1      18.307   3.789  31.984  1.00  0.00     0.123 A 
HETATM    4  C3  UNK     1      18.757   1.045  31.790  1.00  0.00     0.051 A 
HETATM    5  C4  UNK     1      18.332   1.638  32.977  1.00  0.00     0.093 A 
HETATM    6  C5  UNK     1      18.724   3.344  30.785  1.00  0.00     0.152 A 
HETATM    7  C6  UNK     1      18.980   1.893  30.610  1.00  0.00     0.220 A 
HETATM    8  C10 UNK     1      18.968  -0.335  31.728  1.00  0.00     0.021 A 
HETATM    9  C11 UNK     1      18.117   0.855  34.111  1.00  0.00     0.074 A 
HETATM   10  C14 UNK     1      18.326  -0.523  34.053  1.00  0.00     0.068 A 
HETATM   11  C15 UNK     1      18.751  -1.117  32.864  1.00  0.00     0.037 A 
ENDROOT
BRANCH   3  12
HETATM   12  C2  UNK     1      18.035   5.214  32.249  1.00  0.00     0.004 A 
HETATM   13  C7  UNK     1      16.859   5.799  31.780  1.00  0.00     0.054 A 
HETATM   14  C9  UNK     1      16.602   7.147  32.032  1.00  0.00     0.102 A 
HETATM   15  C12 UNK     1      17.522   7.910  32.752  1.00  0.00     0.101 A 
HETATM   16  C13 UNK     1      18.698   7.325  33.221  1.00  0.00     0.040 A 
HETATM   17  C8  UNK     1      18.954   5.977  32.970  1.00  0.00     0.017 A 
BRANCH  14  18
HETATM   18  O3  UNK     1      15.450   7.707  31.567  1.00  0.00    -0.353 OA
HETATM   19  C16 UNK     1      14.225   7.187  32.081  1.00  0.00     0.210 C 
ENDBRANCH  14  18
BRANCH  15  20
HETATM   20  O4  UNK     1      17.282   9.227  33.003  1.00  0.00    -0.353 OA
HETATM   21  C17 UNK     1      18.201   9.901  33.861  1.00  0.00     0.210 C 
ENDBRANCH  15  20
ENDBRANCH   3  12
BRANCH   6  22
HETATM   22  O2  UNK     1      18.942   4.175  29.708  1.00  0.00    -0.355 OA
HETATM   23  H7  UNK     1      19.322   3.670  28.972  1.00  0.00     0.218 HD
ENDBRANCH   6  22
BRANCH  10  24
HETATM   24  O6  UNK     1      18.116  -1.291  35.157  1.00  0.00    -0.361 OA
HETATM   25  H8  UNK     1      18.947  -1.354  35.661  1.00  0.00     0.217 HD
ENDBRANCH  10  24
TORSDOF 5
ENDMDL
MODEL 4
REMARK VINA RESULT:      -7.9     14.597     17.770
REMARK  5 active torsions:
REMARK  status: ('A' for Active; 'I' for Inactive)
REMARK    1  A    between atoms: C5_11  and  O2_2 
REMARK    2  A    between atoms: C9_15  and  O3_3 
REMARK    3  A    between atoms: C12_18  and  O4_4 
REMARK    4  A    between atoms: C14_20  and  O6_6 
REMARK    5  A    between atoms: C1_7  and  C2_8 
ROOT
HETATM    1  O1  UNK     1      16.693   6.261  32.402  1.00  0.00    -0.306 OA
HETATM    2  O5  UNK     1      19.494   8.686  34.100  1.00  0.00    -0.284 OA
HETATM    3  C1  UNK     1      18.000   5.839  32.586  1.00  0.00     0.123 A 
HETATM    4  C3  UNK     1      17.258   8.398  33.407  1.00  0.00     0.051 A 
HETATM    5  C4  UNK     1      16.349   7.522  32.818  1.00  0.00     0.093 A 
HETATM    6  C5  UNK     1      18.975   6.588  33.132  1.00  0.00     0.152 A 
HETATM    7  C6  UNK     1      18.650   7.959  33.594  1.00  0.00     0.220 A 
HETATM    8  C10 UNK     1      16.850   9.671  33.811  1.00  0.00     0.021 A 
HETATM    9  C11 UNK     1      15.024   7.915  32.627  1.00  0.00     0.074 A 
HETATM   10  C14 UNK     1      14.613   9.186  33.029  1.00  0.00     0.068 A 
HETATM   11  C15 UNK     1      15.524  10.063  33.620  1.00  0.00     0.037 A 
ENDROOT
BRANCH   3  12
HETATM   12  C2  UNK     1      18.235   4.469  32.094  1.00  0.00     0.004 A 
HETATM   13  C7  UNK     1      18.086   3.383  32.956  1.00  0.00     0.054 A 
HETATM   14  C9  UNK     1      18.309   2.086  32.489  1.00  0.00     0.102 A 
HETATM   15  C12 UNK     1      18.680   1.877  31.162  1.00  0.00     0.101 A 
HETATM   16  C13 UNK     1      18.829   2.963  30.299  1.00  0.00     0.040 A 
HETATM   17  C8  UNK     1      18.606   4.259  30.765  1.00  0.00     0.017 A 
BRANCH  14  18
HETATM   18  O3  UNK     1      18.160   1.033  33.342  1.00  0.00    -0.353 OA
HETATM   19  C16 UNK     1      17.980   1.340  34.724  1.00  0.00     0.210 C 
ENDBRANCH  14  18
BRANCH  15  20
HETATM   20  O4  UNK     1      18.900   0.617  30.695  1.00  0.00    -0.353 OA
HETATM   21  C17 UNK     1      20.256   0.182  30.614  1.00  0.00     0.210 C 
ENDBRANCH  15  20
ENDBRANCH   3  12
BRANCH   6  22
HETATM   22  O2  UNK     1      20.274   6.149  33.270  1.00  0.00    -0.355 OA
HETATM   23  H7  UNK     1      20.767   6.753  33.846  1.00  0.00     0.218 HD
ENDBRANCH   6  22
BRANCH  10  24
HETATM   24  O6  UNK     1      13.321   9.573  32.846  1.00  0.00    -0.361 OA
HETATM   25  H8  UNK     1      12.740   8.998  33.375  1.00  0.00     0.217 HD
ENDBRANCH  10  24
TORSDOF 5
ENDMDL
MODEL 5
REMARK VINA RESULT:      -7.7     14.626     18.207
REMARK  5 active torsions:
REMARK  status: ('A' for Active; 'I' for Inactive)
REMARK    1  A    between atoms: C5_11  and  O2_2 
REMARK    2  A    between atoms: C9_15  and  O3_3 
REMARK    3  A    between atoms: C12_18  and  O4_4 
REMARK    4  A    between atoms: C14_20  and  O6_6 
REMARK    5  A    between atoms: C1_7  and  C2_8 
ROOT
HETATM    1  O1  UNK     1      18.072   3.003  33.083  1.00  0.00    -0.306 OA
HETATM    2  O5  UNK     1      19.358   1.464  29.535  1.00  0.00    -0.284 OA
HETATM    3  C1  UNK     1      18.260   3.808  31.971  1.00  0.00     0.123 A 
HETATM    4  C3  UNK     1      18.755   1.071  31.781  1.00  0.00     0.051 A 
HETATM    5  C4  UNK     1      18.316   1.658  32.965  1.00  0.00     0.093 A 
HETATM    6  C5  UNK     1      18.689   3.368  30.773  1.00  0.00     0.152 A 
HETATM    7  C6  UNK     1      18.968   1.922  30.600  1.00  0.00     0.220 A 
HETATM    8  C10 UNK     1      18.988  -0.305  31.720  1.00  0.00     0.021 A 
HETATM    9  C11 UNK     1      18.109   0.873  34.099  1.00  0.00     0.074 A 
HETATM   10  C14 UNK     1      18.341  -0.502  34.043  1.00  0.00     0.068 A 
HETATM   11  C15 UNK     1      18.780  -1.090  32.856  1.00  0.00     0.037 A 
ENDROOT
BRANCH   3  12
HETATM   12  C2  UNK     1      17.964   5.228  32.234  1.00  0.00     0.004 A 
HETATM   13  C7  UNK     1      18.924   6.042  32.835  1.00  0.00     0.054 A 
HETATM   14  C9  UNK     1      18.643   7.386  33.083  1.00  0.00     0.102 A 
HETATM   15  C12 UNK     1      17.402   7.915  32.730  1.00  0.00     0.101 A 
HETATM   16  C13 UNK     1      16.441   7.102  32.130  1.00  0.00     0.040 A 
HETATM   17  C8  UNK     1      16.722   5.759  31.881  1.00  0.00     0.017 A 
BRANCH  14  18
HETATM   18  O3  UNK     1      19.589   8.170  33.671  1.00  0.00    -0.353 OA
HETATM   19  C16 UNK     1      19.669   8.131  35.095  1.00  0.00     0.210 C 
ENDBRANCH  14  18
BRANCH  15  20
HETATM   20  O4  UNK     1      17.115   9.226  32.968  1.00  0.00    -0.353 OA
HETATM   21  C17 UNK     1      16.292   9.516  34.096  1.00  0.00     0.210 C 
ENDBRANCH  15  20
ENDBRANCH   3  12
BRANCH   6  22
HETATM   22  O2  UNK     1      18.897   4.203  29.696  1.00  0.00    -0.355 OA
HETATM   23  H7  UNK     1      18.381   3.894  28.936  1.00  0.00     0.218 HD
ENDBRANCH   6  22
BRANCH  10  24
HETATM   24  O6  UNK     1      18.139  -1.272  35.147  1.00  0.00    -0.361 OA
HETATM   25  H8  UNK     1      18.910  -1.853  35.272  1.00  0.00     0.217 HD
ENDBRANCH  10  24
TORSDOF 5
ENDMDL
MODEL 6
REMARK VINA RESULT:      -7.6     13.110     18.161
REMARK  5 active torsions:
REMARK  status: ('A' for Active; 'I' for Inactive)
REMARK    1  A    between atoms: C5_11  and  O2_2 
REMARK    2  A    between atoms: C9_15  and  O3_3 
REMARK    3  A    between atoms: C12_18  and  O4_4 
REMARK    4  A    between atoms: C14_20  and  O6_6 
REMARK    5  A    between atoms: C1_7  and  C2_8 
ROOT
HETATM    1  O1  UNK     1      18.506   3.462  31.154  1.00  0.00    -0.306 OA
HETATM    2  O5  UNK     1      18.652   0.870  34.295  1.00  0.00    -0.284 OA
HETATM    3  C1  UNK     1      18.289   3.888  32.454  1.00  0.00     0.123 A 
HETATM    4  C3  UNK     1      18.853   1.201  31.969  1.00  0.00     0.051 A 
HETATM    5  C4  UNK     1      18.786   2.137  30.938  1.00  0.00     0.093 A 
HETATM    6  C5  UNK     1      18.315   3.087  33.535  1.00  0.00     0.152 A 
HETATM    7  C6  UNK     1      18.613   1.646  33.351  1.00  0.00     0.220 A 
HETATM    8  C10 UNK     1      19.144  -0.136  31.690  1.00  0.00     0.021 A 
HETATM    9  C11 UNK     1      19.008   1.740  29.620  1.00  0.00     0.074 A 
HETATM   10  C14 UNK     1      19.298   0.405  29.336  1.00  0.00     0.068 A 
HETATM   11  C15 UNK     1      19.366  -0.532  30.369  1.00  0.00     0.037 A 
ENDROOT
BRANCH   3  12
HETATM   12  C2  UNK     1      17.997   5.331  32.544  1.00  0.00     0.004 A 
HETATM   13  C7  UNK     1      16.815   5.838  32.006  1.00  0.00     0.054 A 
HETATM   14  C9  UNK     1      16.539   7.204  32.092  1.00  0.00     0.102 A 
HETATM   15  C12 UNK     1      17.445   8.060  32.716  1.00  0.00     0.101 A 
HETATM   16  C13 UNK     1      18.628   7.553  33.254  1.00  0.00     0.040 A 
HETATM   17  C8  UNK     1      18.903   6.189  33.169  1.00  0.00     0.017 A 
BRANCH  14  18
HETATM   18  O3  UNK     1      15.380   7.687  31.561  1.00  0.00    -0.353 OA
HETATM   19  C16 UNK     1      14.162   7.247  32.158  1.00  0.00     0.210 C 
ENDBRANCH  14  18
BRANCH  15  20
HETATM   20  O4  UNK     1      17.187   9.395  32.805  1.00  0.00    -0.353 OA
HETATM   21  C17 UNK     1      16.756   9.889  34.071  1.00  0.00     0.210 C 
ENDBRANCH  15  20
ENDBRANCH   3  12
BRANCH   6  22
HETATM   22  O2  UNK     1      18.063   3.539  34.813  1.00  0.00    -0.355 OA
HETATM   23  H7  UNK     1      18.437   2.922  35.460  1.00  0.00     0.218 HD
ENDBRANCH   6  22
BRANCH  10  24
HETATM   24  O6  UNK     1      19.515   0.013  28.051  1.00  0.00    -0.361 OA
HETATM   25  H8  UNK     1      19.192   0.708  27.450  1.00  0.00     0.217 HD
ENDBRANCH  10  24
TORSDOF 5
ENDMDL
MODEL 7
REMARK VINA RESULT:      -7.6     13.963     17.883
REMARK  5 active torsions:
REMARK  status: ('A' for Active; 'I' for Inactive)
REMARK    1  A    between atoms: C5_11  and  O2_2 
REMARK    2  A    between atoms: C9_15  and  O3_3 
REMARK    3  A    between atoms: C12_18  and  O4_4 
REMARK    4  A    between atoms: C14_20  and  O6_6 
REMARK    5  A    between atoms: C1_7  and  C2_8 
ROOT
HETATM    1  O1  UNK     1      16.626   5.878  32.938  1.00  0.00    -0.306 OA
HETATM    2  O5  UNK     1      19.541   8.509  34.028  1.00  0.00    -0.284 OA
HETATM    3  C1  UNK     1      17.926   5.461  33.172  1.00  0.00     0.123 A 
HETATM    4  C3  UNK     1      17.278   8.156  33.466  1.00  0.00     0.051 A 
HETATM    5  C4  UNK     1      16.328   7.207  33.093  1.00  0.00     0.093 A 
HETATM    6  C5  UNK     1      18.938   6.275  33.527  1.00  0.00     0.152 A 
HETATM    7  C6  UNK     1      18.663   7.721  33.704  1.00  0.00     0.220 A 
HETATM    8  C10 UNK     1      16.916   9.498  33.609  1.00  0.00     0.021 A 
HETATM    9  C11 UNK     1      15.009   7.595  32.859  1.00  0.00     0.074 A 
HETATM   10  C14 UNK     1      14.643   8.934  33.001  1.00  0.00     0.068 A 
HETATM   11  C15 UNK     1      15.595   9.884  33.375  1.00  0.00     0.037 A 
ENDROOT
BRANCH   3  12
HETATM   12  C2  UNK     1      18.110   4.012  32.968  1.00  0.00     0.004 A 
HETATM   13  C7  UNK     1      18.237   3.499  31.678  1.00  0.00     0.054 A 
HETATM   14  C9  UNK     1      18.411   2.128  31.485  1.00  0.00     0.102 A 
HETATM   15  C12 UNK     1      18.457   1.270  32.584  1.00  0.00     0.101 A 
HETATM   16  C13 UNK     1      18.329   1.782  33.875  1.00  0.00     0.040 A 
HETATM   17  C8  UNK     1      18.156   3.153  34.067  1.00  0.00     0.017 A 
BRANCH  14  18
HETATM   18  O3  UNK     1      18.535   1.640  30.219  1.00  0.00    -0.353 OA
HETATM   19  C16 UNK     1      18.220   2.529  29.149  1.00  0.00     0.210 C 
ENDBRANCH  14  18
BRANCH  15  20
HETATM   20  O4  UNK     1      18.626  -0.070  32.409  1.00  0.00    -0.353 OA
HETATM   21  C17 UNK     1      18.564  -0.889  33.575  1.00  0.00     0.210 C 
ENDBRANCH  15  20
ENDBRANCH   3  12
BRANCH   6  22
HETATM   22  O2  UNK     1      20.228   5.831  33.720  1.00  0.00    -0.355 OA
HETATM   23  H7  UNK     1      20.481   5.947  34.649  1.00  0.00     0.218 HD
ENDBRANCH   6  22
BRANCH  10  24
HETATM   24  O6  UNK     1      13.357   9.317  32.774  1.00  0.00    -0.361 OA
HETATM   25  H8  UNK     1      13.352  10.239  32.463  1.00  0.00     0.217 HD
ENDBRANCH  10  24
TORSDOF 5
ENDMDL
MODEL 8
REMARK VINA RESULT:      -7.5     14.402     18.925
REMARK  5 active torsions:
REMARK  status: ('A' for Active; 'I' for Inactive)
REMARK    1  A    between atoms: C5_11  and  O2_2 
REMARK    2  A    between atoms: C9_15  and  O3_3 
REMARK    3  A    between atoms: C12_18  and  O4_4 
REMARK    4  A    between atoms: C14_20  and  O6_6 
REMARK    5  A    between atoms: C1_7  and  C2_8 
ROOT
HETATM    1  O1  UNK     1      17.904   8.956  33.121  1.00  0.00    -0.306 OA
HETATM    2  O5  UNK     1      13.918   9.770  33.349  1.00  0.00    -0.284 OA
HETATM    3  C1  UNK     1      16.956   8.071  32.633  1.00  0.00     0.123 A 
HETATM    4  C3  UNK     1      16.127  10.472  33.783  1.00  0.00     0.051 A 
HETATM    5  C4  UNK     1      17.474  10.133  33.678  1.00  0.00     0.093 A 
HETATM    6  C5  UNK     1      15.626   8.272  32.682  1.00  0.00     0.152 A 
HETATM    7  C6  UNK     1      15.115   9.530  33.278  1.00  0.00     0.220 A 
HETATM    8  C10 UNK     1      15.747  11.686  34.361  1.00  0.00     0.021 A 
HETATM    9  C11 UNK     1      18.453  11.008  34.151  1.00  0.00     0.074 A 
HETATM   10  C14 UNK     1      18.078  12.221  34.729  1.00  0.00     0.068 A 
HETATM   11  C15 UNK     1      16.728  12.560  34.834  1.00  0.00     0.037 A 
ENDROOT
BRANCH   3  12
HETATM   12  C2  UNK     1      17.552   6.848  32.064  1.00  0.00     0.004 A 
HETATM   13  C7  UNK     1      17.465   5.641  32.758  1.00  0.00     0.054 A 
HETATM   14  C9  UNK     1      18.028   4.484  32.218  1.00  0.00     0.102 A 
HETATM   15  C12 UNK     1      18.679   4.535  30.986  1.00  0.00     0.101 A 
HETATM   16  C13 UNK     1      18.767   5.742  30.292  1.00  0.00     0.040 A 
HETATM   17  C8  UNK     1      18.203   6.897  30.831  1.00  0.00     0.017 A 
BRANCH  14  18
HETATM   18  O3  UNK     1      17.937   3.311  32.907  1.00  0.00    -0.353 OA
HETATM   19  C16 UNK     1      18.339   3.331  34.275  1.00  0.00     0.210 C 
ENDBRANCH  14  18
BRANCH  15  20
HETATM   20  O4  UNK     1      19.234   3.412  30.450  1.00  0.00    -0.353 OA
HETATM   21  C17 UNK     1      18.446   2.684  29.510  1.00  0.00     0.210 C 
ENDBRANCH  15  20
ENDBRANCH   3  12
BRANCH   6  22
HETATM   22  O2  UNK     1      14.709   7.355  32.217  1.00  0.00    -0.355 OA
HETATM   23  H7  UNK     1      14.597   7.457  31.260  1.00  0.00     0.218 HD
ENDBRANCH   6  22
BRANCH  10  24
HETATM   24  O6  UNK     1      19.029  13.077  35.192  1.00  0.00    -0.361 OA
HETATM   25  H8  UNK     1      19.723  12.565  35.643  1.00  0.00     0.217 HD
ENDBRANCH  10  24
TORSDOF 5
ENDMDL
MODEL 9
REMARK VINA RESULT:      -7.4     17.997     20.538
REMARK  5 active torsions:
REMARK  status: ('A' for Active; 'I' for Inactive)
REMARK    1  A    between atoms: C5_11  and  O2_2 
REMARK    2  A    between atoms: C9_15  and  O3_3 
REMARK    3  A    between atoms: C12_18  and  O4_4 
REMARK    4  A    between atoms: C14_20  and  O6_6 
REMARK    5  A    between atoms: C1_7  and  C2_8 
ROOT
HETATM    1  O1  UNK     1      18.953  -2.316  37.218  1.00  0.00    -0.306 OA
HETATM    2  O5  UNK     1      19.568  -1.373  33.301  1.00  0.00    -0.284 OA
HETATM    3  C1  UNK     1      19.612  -3.182  36.360  1.00  0.00     0.123 A 
HETATM    4  C3  UNK     1      18.697  -0.731  35.396  1.00  0.00     0.051 A 
HETATM    5  C4  UNK     1      18.516  -1.114  36.724  1.00  0.00     0.093 A 
HETATM    6  C5  UNK     1      19.842  -2.938  35.056  1.00  0.00     0.152 A 
HETATM    7  C6  UNK     1      19.385  -1.652  34.478  1.00  0.00     0.220 A 
HETATM    8  C10 UNK     1      18.231   0.507  34.949  1.00  0.00     0.021 A 
HETATM    9  C11 UNK     1      17.865  -0.259  37.614  1.00  0.00     0.074 A 
HETATM   10  C14 UNK     1      17.397   0.978  37.171  1.00  0.00     0.068 A 
HETATM   11  C15 UNK     1      17.579   1.361  35.841  1.00  0.00     0.037 A 
ENDROOT
BRANCH   3  12
HETATM   12  C2  UNK     1      20.026  -4.436  37.016  1.00  0.00     0.004 A 
HETATM   13  C7  UNK     1      19.174  -5.540  37.014  1.00  0.00     0.054 A 
HETATM   14  C9  UNK     1      19.566  -6.726  37.635  1.00  0.00     0.102 A 
HETATM   15  C12 UNK     1      20.810  -6.807  38.259  1.00  0.00     0.101 A 
HETATM   16  C13 UNK     1      21.663  -5.704  38.262  1.00  0.00     0.040 A 
HETATM   17  C8  UNK     1      21.271  -4.519  37.641  1.00  0.00     0.017 A 
BRANCH  14  18
HETATM   18  O3  UNK     1      18.723  -7.797  37.625  1.00  0.00    -0.353 OA
HETATM   19  C16 UNK     1      18.731  -8.617  36.457  1.00  0.00     0.210 C 
ENDBRANCH  14  18
BRANCH  15  20
HETATM   20  O4  UNK     1      21.204  -7.960  38.869  1.00  0.00    -0.353 OA
HETATM   21  C17 UNK     1      22.300  -7.871  39.778  1.00  0.00     0.210 C 
ENDBRANCH  15  20
ENDBRANCH   3  12
BRANCH   6  22
HETATM   22  O2  UNK     1      20.472  -3.837  34.223  1.00  0.00    -0.355 OA
HETATM   23  H7  UNK     1      20.366  -4.737  34.568  1.00  0.00     0.218 HD
ENDBRANCH   6  22
BRANCH  10  24
HETATM   24  O6  UNK     1      16.761   1.815  38.036  1.00  0.00    -0.361 OA
HETATM   25  H8  UNK     1      15.864   1.992  37.702  1.00  0.00     0.217 HD
ENDBRANCH  10  24
TORSDOF 5
ENDMDL
MODEL 10
REMARK VINA RESULT:      -7.4     13.560     15.664
REMARK  5 active torsions:
REMARK  status: ('A' for Active; 'I' for Inactive)
REMARK    1  A    between atoms: C5_11  and  O2_2 
REMARK    2  A    between atoms: C9_15  and  O3_3 
REMARK    3  A    between atoms: C12_18  and  O4_4 
REMARK    4  A    between atoms: C14_20  and  O6_6 
REMARK    5  A    between atoms: C1_7  and  C2_8 
ROOT
HETATM    1  O1  UNK     1       9.737   5.504   9.733  1.00  0.00    -0.306 OA
HETATM    2  O5  UNK     1       9.696   6.928   5.914  1.00  0.00    -0.284 OA
HETATM    3  C1  UNK     1       8.567   5.948   9.139  1.00  0.00     0.123 A 
HETATM    4  C3  UNK     1      10.948   6.012   7.690  1.00  0.00     0.051 A 
HETATM    5  C4  UNK     1      10.896   5.540   9.000  1.00  0.00     0.093 A 
HETATM    6  C5  UNK     1       8.482   6.436   7.888  1.00  0.00     0.152 A 
HETATM    7  C6  UNK     1       9.711   6.496   7.059  1.00  0.00     0.220 A 
HETATM    8  C10 UNK     1      12.158   6.025   6.992  1.00  0.00     0.021 A 
HETATM    9  C11 UNK     1      12.056   5.078   9.622  1.00  0.00     0.074 A 
HETATM   10  C14 UNK     1      13.267   5.089   8.929  1.00  0.00     0.068 A 
HETATM   11  C15 UNK     1      13.318   5.561   7.616  1.00  0.00     0.037 A 
ENDROOT
BRANCH   3  12
HETATM   12  C2  UNK     1       7.399   5.857  10.034  1.00  0.00     0.004 A 
HETATM   13  C7  UNK     1       6.602   4.713  10.028  1.00  0.00     0.054 A 
HETATM   14  C9  UNK     1       5.497   4.628  10.876  1.00  0.00     0.102 A 
HETATM   15  C12 UNK     1       5.189   5.688  11.729  1.00  0.00     0.101 A 
HETATM   16  C13 UNK     1       5.986   6.832  11.735  1.00  0.00     0.040 A 
HETATM   17  C8  UNK     1       7.090   6.917  10.888  1.00  0.00     0.017 A 
BRANCH  14  18
HETATM   18  O3  UNK     1       4.726   3.504  10.860  1.00  0.00    -0.353 OA
HETATM   19  C16 UNK     1       5.393   2.259  11.056  1.00  0.00     0.210 C 
ENDBRANCH  14  18
BRANCH  15  20
HETATM   20  O4  UNK     1       4.113   5.617  12.561  1.00  0.00    -0.353 OA
HETATM   21  C17 UNK     1       4.359   5.220  13.909  1.00  0.00     0.210 C 
ENDBRANCH  15  20
ENDBRANCH   3  12
BRANCH   6  22
HETATM   22  O2  UNK     1       7.307   6.901   7.339  1.00  0.00    -0.355 OA
HETATM   23  H7  UNK     1       7.097   6.399   6.536  1.00  0.00     0.218 HD
ENDBRANCH   6  22
BRANCH  10  24
HETATM   24  O6  UNK     1      14.401   4.638   9.531  1.00  0.00    -0.361 OA
HETATM   25  H8  UNK     1      14.574   3.727   9.237  1.00  0.00     0.217 HD
ENDBRANCH  10  24
TORSDOF 5
ENDMDL
