MODEL 1
REMARK VINA RESULT:      -7.5      0.000      0.000
REMARK  10 active torsions:
REMARK  status: ('A' for Active; 'I' for Inactive)
REMARK    1  A    between atoms: C6_11  and  O1_1 
REMARK    2  A    between atoms: C8_13  and  O1_1 
REMARK    3  A    between atoms: C15_20  and  O3_3 
REMARK    4  A    between atoms: C17_22  and  O3_3 
REMARK    5  A    between atoms: C20_25  and  O5_5 
REMARK    6  A    between atoms: C1_6  and  C2_7 
REMARK    7  A    between atoms: C1_6  and  C3_8 
REMARK    8  A    between atoms: C2_7  and  C4_9 
REMARK    9  A    between atoms: C3_8  and  C5_10 
REMARK   10  A    between atoms: C4_9  and  C6_11 
ROOT
HETATM    1  O2  UNK     1      19.583   5.201  30.210  1.00  0.00    -0.319 OA
HETATM    2  O4  UNK     1      17.547   2.609  32.620  1.00  0.00    -0.284 OA
HETATM    3  C8  UNK     1      19.854   7.016  33.360  1.00  0.00     0.071 A 
HETATM    4  C9  UNK     1      18.740   4.641  32.421  1.00  0.00     0.051 A 
HETATM    5  C10 UNK     1      19.426   5.485  31.545  1.00  0.00     0.092 A 
HETATM    6  C11 UNK     1      19.983   6.674  32.013  1.00  0.00     0.075 A 
HETATM    7  C12 UNK     1      19.170   6.172  34.235  1.00  0.00     0.038 A 
HETATM    8  C13 UNK     1      18.610   4.981  33.770  1.00  0.00     0.021 A 
HETATM    9  C14 UNK     1      18.158   3.389  31.903  1.00  0.00     0.220 A 
HETATM   10  C15 UNK     1      18.357   3.133  30.459  1.00  0.00     0.149 A 
HETATM   11  C16 UNK     1      19.035   4.032  29.740  1.00  0.00     0.184 A 
ENDROOT
BRANCH  10  12
HETATM   12  O3  UNK     1      17.845   1.987  29.897  1.00  0.00    -0.305 OA
BRANCH  12  13
HETATM   13  C17 UNK     1      18.668   0.894  29.855  1.00  0.00     0.076 A 
HETATM   14  C18 UNK     1      19.100   0.300  31.040  1.00  0.00     0.040 A 
HETATM   15  C21 UNK     1      19.938  -0.815  30.996  1.00  0.00     0.039 A 
HETATM   16  C20 UNK     1      20.345  -1.333  29.767  1.00  0.00     0.068 A 
HETATM   17  C22 UNK     1      19.914  -0.738  28.582  1.00  0.00     0.039 A 
HETATM   18  C19 UNK     1      19.075   0.376  28.625  1.00  0.00     0.040 A 
BRANCH  16  19
HETATM   19  O5  UNK     1      21.164  -2.420  29.724  1.00  0.00    -0.356 OA
HETATM   20  C23 UNK     1      21.110  -3.317  30.833  1.00  0.00     0.210 C 
ENDBRANCH  16  19
ENDBRANCH  12  13
ENDBRANCH  10  12
BRANCH   3  21
HETATM   21  O1  UNK     1      20.402   8.184  33.825  1.00  0.00    -0.351 OA
BRANCH  21  22
HETATM   22  C6  UNK     1      19.586   8.984  34.669  1.00  0.00     0.175 C 
BRANCH  22  23
HETATM   23  C4  UNK     1      18.594   9.754  33.811  1.00  0.00     0.027 C 
BRANCH  23  24
HETATM   24  C2  UNK     1      17.168   9.623  34.342  1.00  0.00     0.002 C 
BRANCH  24  25
HETATM   25  C1  UNK     1      16.230   9.050  33.278  1.00  0.00     0.000 C 
BRANCH  25  26
HETATM   26  C3  UNK     1      15.865   7.581  33.515  1.00  0.00    -0.000 C 
BRANCH  26  27
HETATM   27  C5  UNK     1      15.372   6.866  32.257  1.00  0.00    -0.005 C 
HETATM   28  C7  UNK     1      13.903   7.157  31.995  1.00  0.00     0.005 C 
ENDBRANCH  26  27
ENDBRANCH  25  26
ENDBRANCH  24  25
ENDBRANCH  23  24
ENDBRANCH  22  23
ENDBRANCH  21  22
ENDBRANCH   3  21
TORSDOF 10
ENDMDL
MODEL 2
REMARK VINA RESULT:      -7.5      2.817      9.952
REMARK  10 active torsions:
REMARK  status: ('A' for Active; 'I' for Inactive)
REMARK    1  A    between atoms: C6_11  and  O1_1 
REMARK    2  A    between atoms: C8_13  and  O1_1 
REMARK    3  A    between atoms: C15_20  and  O3_3 
REMARK    4  A    between atoms: C17_22  and  O3_3 
REMARK    5  A    between atoms: C20_25  and  O5_5 
REMARK    6  A    between atoms: C1_6  and  C2_7 
REMARK    7  A    between atoms: C1_6  and  C3_8 
REMARK    8  A    between atoms: C2_7  and  C4_9 
REMARK    9  A    between atoms: C3_8  and  C5_10 
REMARK   10  A    between atoms: C4_9  and  C6_11 
ROOT
HETATM    1  O2  UNK     1      16.132   6.425  32.827  1.00  0.00    -0.319 OA
HETATM    2  O4  UNK     1      18.996   8.729  34.603  1.00  0.00    -0.284 OA
HETATM    3  C8  UNK     1      19.070   5.097  31.126  1.00  0.00     0.071 A 
HETATM    4  C9  UNK     1      18.478   7.023  33.051  1.00  0.00     0.051 A 
HETATM    5  C10 UNK     1      17.452   6.266  32.482  1.00  0.00     0.092 A 
HETATM    6  C11 UNK     1      17.747   5.302  31.518  1.00  0.00     0.075 A 
HETATM    7  C12 UNK     1      20.095   5.853  31.697  1.00  0.00     0.038 A 
HETATM    8  C13 UNK     1      19.803   6.818  32.662  1.00  0.00     0.021 A 
HETATM    9  C14 UNK     1      18.142   8.036  34.068  1.00  0.00     0.220 A 
HETATM   10  C15 UNK     1      16.706   8.166  34.402  1.00  0.00     0.149 A 
HETATM   11  C16 UNK     1      15.832   7.374  33.774  1.00  0.00     0.184 A 
ENDROOT
BRANCH  10  12
HETATM   12  O3  UNK     1      16.309   9.089  35.341  1.00  0.00    -0.305 OA
BRANCH  12  13
HETATM   13  C17 UNK     1      15.656  10.201  34.882  1.00  0.00     0.076 A 
HETATM   14  C18 UNK     1      16.378  11.246  34.308  1.00  0.00     0.040 A 
HETATM   15  C21 UNK     1      15.712  12.379  33.839  1.00  0.00     0.039 A 
HETATM   16  C20 UNK     1      14.325  12.466  33.946  1.00  0.00     0.068 A 
HETATM   17  C22 UNK     1      13.603  11.421  34.521  1.00  0.00     0.039 A 
HETATM   18  C19 UNK     1      14.268  10.288  34.989  1.00  0.00     0.040 A 
BRANCH  16  19
HETATM   19  O5  UNK     1      13.676  13.572  33.489  1.00  0.00    -0.356 OA
HETATM   20  C23 UNK     1      14.314  14.319  32.454  1.00  0.00     0.210 C 
ENDBRANCH  16  19
ENDBRANCH  12  13
ENDBRANCH  10  12
BRANCH   3  21
HETATM   21  O1  UNK     1      19.365   4.150  30.180  1.00  0.00    -0.351 OA
BRANCH  21  22
HETATM   22  C6  UNK     1      18.800   2.860  30.367  1.00  0.00     0.175 C 
BRANCH  22  23
HETATM   23  C4  UNK     1      18.088   2.443  29.088  1.00  0.00     0.027 C 
BRANCH  23  24
HETATM   24  C2  UNK     1      18.464   1.023  28.669  1.00  0.00     0.002 C 
BRANCH  24  25
HETATM   25  C1  UNK     1      19.690   0.525  29.438  1.00  0.00     0.000 C 
BRANCH  25  26
HETATM   26  C3  UNK     1      20.340  -0.713  28.811  1.00  0.00    -0.000 C 
BRANCH  26  27
HETATM   27  C5  UNK     1      20.440  -1.898  29.770  1.00  0.00    -0.005 C 
HETATM   28  C7  UNK     1      20.151  -1.477  31.203  1.00  0.00     0.005 C 
ENDBRANCH  26  27
ENDBRANCH  25  26
ENDBRANCH  24  25
ENDBRANCH  23  24
ENDBRANCH  22  23
ENDBRANCH  21  22
ENDBRANCH   3  21
TORSDOF 10
ENDMDL
MODEL 3
REMARK VINA RESULT:      -7.5      5.345      8.450
REMARK  10 active torsions:
REMARK  status: ('A' for Active; 'I' for Inactive)
REMARK    1  A    between atoms: C6_11  and  O1_1 
REMARK    2  A    between atoms: C8_13  and  O1_1 
REMARK    3  A    between atoms: C15_20  and  O3_3 
REMARK    4  A    between atoms: C17_22  and  O3_3 
REMARK    5  A    between atoms: C20_25  and  O5_5 
REMARK    6  A    between atoms: C1_6  and  C2_7 
REMARK    7  A    between atoms: C1_6  and  C3_8 
REMARK    8  A    between atoms: C2_7  and  C4_9 
REMARK    9  A    between atoms: C3_8  and  C5_10 
REMARK   10  A    between atoms: C4_9  and  C6_11 
ROOT
HETATM    1  O2  UNK     1      19.821  -1.943  34.424  1.00  0.00    -0.319 OA
HETATM    2  O4  UNK     1      18.562  -1.521  38.285  1.00  0.00    -0.284 OA
HETATM    3  C8  UNK     1      17.855   1.105  34.055  1.00  0.00     0.071 A 
HETATM    4  C9  UNK     1      18.554  -0.684  36.074  1.00  0.00     0.051 A 
HETATM    5  C10 UNK     1      19.019  -0.884  34.772  1.00  0.00     0.092 A 
HETATM    6  C11 UNK     1      18.669   0.010  33.761  1.00  0.00     0.075 A 
HETATM    7  C12 UNK     1      17.393   1.305  35.356  1.00  0.00     0.038 A 
HETATM    8  C13 UNK     1      17.740   0.412  36.371  1.00  0.00     0.021 A 
HETATM    9  C14 UNK     1      18.936  -1.642  37.127  1.00  0.00     0.220 A 
HETATM   10  C15 UNK     1      19.800  -2.765  36.697  1.00  0.00     0.149 A 
HETATM   11  C16 UNK     1      20.168  -2.830  35.414  1.00  0.00     0.184 A 
ENDROOT
BRANCH  10  12
HETATM   12  O3  UNK     1      20.201  -3.703  37.619  1.00  0.00    -0.305 OA
BRANCH  12  13
HETATM   13  C17 UNK     1      20.112  -5.017  37.247  1.00  0.00     0.076 A 
HETATM   14  C18 UNK     1      21.208  -5.863  37.408  1.00  0.00     0.040 A 
HETATM   15  C21 UNK     1      21.117  -7.203  37.030  1.00  0.00     0.039 A 
HETATM   16  C20 UNK     1      19.930  -7.695  36.489  1.00  0.00     0.068 A 
HETATM   17  C22 UNK     1      18.833  -6.848  36.327  1.00  0.00     0.039 A 
HETATM   18  C19 UNK     1      18.924  -5.509  36.706  1.00  0.00     0.040 A 
BRANCH  16  19
HETATM   19  O5  UNK     1      19.841  -9.002  36.119  1.00  0.00    -0.356 OA
HETATM   20  C23 UNK     1      20.958  -9.839  36.418  1.00  0.00     0.210 C 
ENDBRANCH  16  19
ENDBRANCH  12  13
ENDBRANCH  10  12
BRANCH   3  21
HETATM   21  O1  UNK     1      17.511   1.987  33.064  1.00  0.00    -0.351 OA
BRANCH  21  22
HETATM   22  C6  UNK     1      18.534   2.358  32.150  1.00  0.00     0.175 C 
BRANCH  22  23
HETATM   23  C4  UNK     1      17.891   2.878  30.873  1.00  0.00     0.027 C 
BRANCH  23  24
HETATM   24  C2  UNK     1      18.282   2.036  29.661  1.00  0.00     0.002 C 
BRANCH  24  25
HETATM   25  C1  UNK     1      19.343   0.996  30.027  1.00  0.00     0.000 C 
BRANCH  25  26
HETATM   26  C3  UNK     1      19.722   0.075  28.862  1.00  0.00    -0.000 C 
BRANCH  26  27
HETATM   27  C5  UNK     1      20.751  -0.990  29.239  1.00  0.00    -0.005 C 
HETATM   28  C7  UNK     1      20.251  -1.864  30.379  1.00  0.00     0.005 C 
ENDBRANCH  26  27
ENDBRANCH  25  26
ENDBRANCH  24  25
ENDBRANCH  23  24
ENDBRANCH  22  23
ENDBRANCH  21  22
ENDBRANCH   3  21
TORSDOF 10
ENDMDL
MODEL 4
REMARK VINA RESULT:      -7.4      1.126      2.147
REMARK  10 active torsions:
REMARK  status: ('A' for Active; 'I' for Inactive)
REMARK    1  A    between atoms: C6_11  and  O1_1 
REMARK    2  A    between atoms: C8_13  and  O1_1 
REMARK    3  A    between atoms: C15_20  and  O3_3 
REMARK    4  A    between atoms: C17_22  and  O3_3 
REMARK    5  A    between atoms: C20_25  and  O5_5 
REMARK    6  A    between atoms: C1_6  and  C2_7 
REMARK    7  A    between atoms: C1_6  and  C3_8 
REMARK    8  A    between atoms: C2_7  and  C4_9 
REMARK    9  A    between atoms: C3_8  and  C5_10 
REMARK   10  A    between atoms: C4_9  and  C6_11 
ROOT
HETATM    1  O2  UNK     1      17.813   3.372  32.783  1.00  0.00    -0.319 OA
HETATM    2  O4  UNK     1      19.534   4.958  29.438  1.00  0.00    -0.284 OA
HETATM    3  C8  UNK     1      18.381   6.765  33.987  1.00  0.00     0.071 A 
HETATM    4  C9  UNK     1      18.804   5.288  31.662  1.00  0.00     0.051 A 
HETATM    5  C10 UNK     1      18.209   4.686  32.773  1.00  0.00     0.092 A 
HETATM    6  C11 UNK     1      17.997   5.425  33.938  1.00  0.00     0.075 A 
HETATM    7  C12 UNK     1      18.974   7.366  32.876  1.00  0.00     0.038 A 
HETATM    8  C13 UNK     1      19.188   6.630  31.709  1.00  0.00     0.021 A 
HETATM    9  C14 UNK     1      19.019   4.488  30.442  1.00  0.00     0.220 A 
HETATM   10  C15 UNK     1      18.574   3.078  30.508  1.00  0.00     0.149 A 
HETATM   11  C16 UNK     1      18.020   2.637  31.641  1.00  0.00     0.184 A 
ENDROOT
BRANCH  10  12
HETATM   12  O3  UNK     1      18.738   2.264  29.412  1.00  0.00    -0.305 OA
BRANCH  12  13
HETATM   13  C17 UNK     1      19.270   1.023  29.634  1.00  0.00     0.076 A 
HETATM   14  C18 UNK     1      19.391   0.117  28.581  1.00  0.00     0.040 A 
HETATM   15  C21 UNK     1      19.935  -1.148  28.808  1.00  0.00     0.039 A 
HETATM   16  C20 UNK     1      20.356  -1.506  30.087  1.00  0.00     0.068 A 
HETATM   17  C22 UNK     1      20.234  -0.601  31.141  1.00  0.00     0.039 A 
HETATM   18  C19 UNK     1      19.692   0.665  30.915  1.00  0.00     0.040 A 
BRANCH  16  19
HETATM   19  O5  UNK     1      20.885  -2.741  30.309  1.00  0.00    -0.356 OA
HETATM   20  C23 UNK     1      20.962  -3.180  31.664  1.00  0.00     0.210 C 
ENDBRANCH  16  19
ENDBRANCH  12  13
ENDBRANCH  10  12
BRANCH   3  21
HETATM   21  O1  UNK     1      18.173   7.495  35.129  1.00  0.00    -0.351 OA
BRANCH  21  22
HETATM   22  C6  UNK     1      16.838   7.901  35.397  1.00  0.00     0.175 C 
BRANCH  22  23
HETATM   23  C4  UNK     1      16.578   9.229  34.701  1.00  0.00     0.027 C 
BRANCH  23  24
HETATM   24  C2  UNK     1      15.084   9.484  34.511  1.00  0.00     0.002 C 
BRANCH  24  25
HETATM   25  C1  UNK     1      14.715   9.535  33.027  1.00  0.00     0.000 C 
BRANCH  25  26
HETATM   26  C3  UNK     1      15.658   8.721  32.136  1.00  0.00    -0.000 C 
BRANCH  26  27
HETATM   27  C5  UNK     1      15.180   7.289  31.893  1.00  0.00    -0.005 C 
HETATM   28  C7  UNK     1      13.704   7.135  32.225  1.00  0.00     0.005 C 
ENDBRANCH  26  27
ENDBRANCH  25  26
ENDBRANCH  24  25
ENDBRANCH  23  24
ENDBRANCH  22  23
ENDBRANCH  21  22
ENDBRANCH   3  21
TORSDOF 10
ENDMDL
MODEL 5
REMARK VINA RESULT:      -7.2      5.234      7.417
REMARK  10 active torsions:
REMARK  status: ('A' for Active; 'I' for Inactive)
REMARK    1  A    between atoms: C6_11  and  O1_1 
REMARK    2  A    between atoms: C8_13  and  O1_1 
REMARK    3  A    between atoms: C15_20  and  O3_3 
REMARK    4  A    between atoms: C17_22  and  O3_3 
REMARK    5  A    between atoms: C20_25  and  O5_5 
REMARK    6  A    between atoms: C1_6  and  C2_7 
REMARK    7  A    between atoms: C1_6  and  C3_8 
REMARK    8  A    between atoms: C2_7  and  C4_9 
REMARK    9  A    between atoms: C3_8  and  C5_10 
REMARK   10  A    between atoms: C4_9  and  C6_11 
ROOT
HETATM    1  O2  UNK     1      19.887  -1.706  34.510  1.00  0.00    -0.319 OA
HETATM    2  O4  UNK     1      18.311  -1.540  38.272  1.00  0.00    -0.284 OA
HETATM    3  C8  UNK     1      17.775   1.239  34.115  1.00  0.00     0.071 A 
HETATM    4  C9  UNK     1      18.423  -0.601  36.106  1.00  0.00     0.051 A 
HETATM    5  C10 UNK     1      18.998  -0.712  34.838  1.00  0.00     0.092 A 
HETATM    6  C11 UNK     1      18.674   0.207  33.840  1.00  0.00     0.075 A 
HETATM    7  C12 UNK     1      17.202   1.350  35.383  1.00  0.00     0.038 A 
HETATM    8  C13 UNK     1      17.524   0.431  36.383  1.00  0.00     0.021 A 
HETATM    9  C14 UNK     1      18.780  -1.585  37.144  1.00  0.00     0.220 A 
HETATM   10  C15 UNK     1      19.741  -2.634  36.737  1.00  0.00     0.149 A 
HETATM   11  C16 UNK     1      20.210  -2.618  35.486  1.00  0.00     0.184 A 
ENDROOT
BRANCH  10  12
HETATM   12  O3  UNK     1      20.126  -3.590  37.647  1.00  0.00    -0.305 OA
BRANCH  12  13
HETATM   13  C17 UNK     1      20.151  -4.888  37.212  1.00  0.00     0.076 A 
HETATM   14  C18 UNK     1      21.257  -5.693  37.483  1.00  0.00     0.040 A 
HETATM   15  C21 UNK     1      21.281  -7.016  37.040  1.00  0.00     0.039 A 
HETATM   16  C20 UNK     1      20.201  -7.532  36.326  1.00  0.00     0.068 A 
HETATM   17  C22 UNK     1      19.095  -6.726  36.054  1.00  0.00     0.039 A 
HETATM   18  C19 UNK     1      19.070  -5.404  36.497  1.00  0.00     0.040 A 
BRANCH  16  19
HETATM   19  O5  UNK     1      20.225  -8.823  35.893  1.00  0.00    -0.356 OA
HETATM   20  C23 UNK     1      21.379  -9.241  35.165  1.00  0.00     0.210 C 
ENDBRANCH  16  19
ENDBRANCH  12  13
ENDBRANCH  10  12
BRANCH   3  21
HETATM   21  O1  UNK     1      17.455   2.146  33.138  1.00  0.00    -0.351 OA
BRANCH  21  22
HETATM   22  C6  UNK     1      18.436   3.125  32.826  1.00  0.00     0.175 C 
BRANCH  22  23
HETATM   23  C4  UNK     1      17.972   4.473  33.355  1.00  0.00     0.027 C 
BRANCH  23  24
HETATM   24  C2  UNK     1      19.151   5.364  33.742  1.00  0.00     0.002 C 
BRANCH  24  25
HETATM   25  C1  UNK     1      19.432   6.411  32.662  1.00  0.00     0.000 C 
BRANCH  25  26
HETATM   26  C3  UNK     1      20.604   6.044  31.747  1.00  0.00    -0.000 C 
BRANCH  26  27
HETATM   27  C5  UNK     1      20.182   5.743  30.309  1.00  0.00    -0.005 C 
HETATM   28  C7  UNK     1      18.743   6.166  30.055  1.00  0.00     0.005 C 
ENDBRANCH  26  27
ENDBRANCH  25  26
ENDBRANCH  24  25
ENDBRANCH  23  24
ENDBRANCH  22  23
ENDBRANCH  21  22
ENDBRANCH   3  21
TORSDOF 10
ENDMDL
MODEL 6
REMARK VINA RESULT:      -7.2     15.834     18.791
REMARK  10 active torsions:
REMARK  status: ('A' for Active; 'I' for Inactive)
REMARK    1  A    between atoms: C6_11  and  O1_1 
REMARK    2  A    between atoms: C8_13  and  O1_1 
REMARK    3  A    between atoms: C15_20  and  O3_3 
REMARK    4  A    between atoms: C17_22  and  O3_3 
REMARK    5  A    between atoms: C20_25  and  O5_5 
REMARK    6  A    between atoms: C1_6  and  C2_7 
REMARK    7  A    between atoms: C1_6  and  C3_8 
REMARK    8  A    between atoms: C2_7  and  C4_9 
REMARK    9  A    between atoms: C3_8  and  C5_10 
REMARK   10  A    between atoms: C4_9  and  C6_11 
ROOT
HETATM    1  O2  UNK     1      32.968  -7.092  38.054  1.00  0.00    -0.319 OA
HETATM    2  O4  UNK     1      33.242  -3.686  35.821  1.00  0.00    -0.284 OA
HETATM    3  C8  UNK     1      29.664  -5.703  38.721  1.00  0.00     0.071 A 
HETATM    4  C9  UNK     1      31.940  -5.037  37.258  1.00  0.00     0.051 A 
HETATM    5  C10 UNK     1      31.909  -6.219  38.002  1.00  0.00     0.092 A 
HETATM    6  C11 UNK     1      30.771  -6.553  38.735  1.00  0.00     0.075 A 
HETATM    7  C12 UNK     1      29.695  -4.523  37.976  1.00  0.00     0.038 A 
HETATM    8  C13 UNK     1      30.833  -4.186  37.242  1.00  0.00     0.021 A 
HETATM    9  C14 UNK     1      33.155  -4.704  36.491  1.00  0.00     0.220 A 
HETATM   10  C15 UNK     1      34.265  -5.679  36.583  1.00  0.00     0.149 A 
HETATM   11  C16 UNK     1      34.094  -6.769  37.337  1.00  0.00     0.184 A 
ENDROOT
BRANCH  10  12
HETATM   12  O3  UNK     1      35.433  -5.442  35.898  1.00  0.00    -0.305 OA
BRANCH  12  13
HETATM   13  C17 UNK     1      35.707  -6.261  34.836  1.00  0.00     0.076 A 
HETATM   14  C18 UNK     1      34.883  -6.244  33.711  1.00  0.00     0.040 A 
HETATM   15  C21 UNK     1      35.164  -7.078  32.628  1.00  0.00     0.039 A 
HETATM   16  C20 UNK     1      36.267  -7.929  32.671  1.00  0.00     0.068 A 
HETATM   17  C22 UNK     1      37.091  -7.947  33.797  1.00  0.00     0.039 A 
HETATM   18  C19 UNK     1      36.811  -7.113  34.879  1.00  0.00     0.040 A 
BRANCH  16  19
HETATM   19  O5  UNK     1      36.540  -8.744  31.615  1.00  0.00    -0.356 OA
HETATM   20  C23 UNK     1      37.370  -9.877  31.867  1.00  0.00     0.210 C 
ENDBRANCH  16  19
ENDBRANCH  12  13
ENDBRANCH  10  12
BRANCH   3  21
HETATM   21  O1  UNK     1      28.542  -6.029  39.439  1.00  0.00    -0.351 OA
BRANCH  21  22
HETATM   22  C6  UNK     1      27.576  -6.841  38.786  1.00  0.00     0.175 C 
BRANCH  22  23
HETATM   23  C4  UNK     1      27.600  -8.230  39.406  1.00  0.00     0.027 C 
BRANCH  23  24
HETATM   24  C2  UNK     1      28.194  -9.264  38.452  1.00  0.00     0.002 C 
BRANCH  24  25
HETATM   25  C1  UNK     1      28.206  -8.748  37.012  1.00  0.00     0.000 C 
BRANCH  25  26
HETATM   26  C3  UNK     1      29.551  -8.944  36.305  1.00  0.00    -0.000 C 
BRANCH  26  27
HETATM   27  C5  UNK     1      29.871  -7.846  35.292  1.00  0.00    -0.005 C 
HETATM   28  C7  UNK     1      28.763  -6.805  35.235  1.00  0.00     0.005 C 
ENDBRANCH  26  27
ENDBRANCH  25  26
ENDBRANCH  24  25
ENDBRANCH  23  24
ENDBRANCH  22  23
ENDBRANCH  21  22
ENDBRANCH   3  21
TORSDOF 10
ENDMDL
MODEL 7
REMARK VINA RESULT:      -7.2      3.111      5.645
REMARK  10 active torsions:
REMARK  status: ('A' for Active; 'I' for Inactive)
REMARK    1  A    between atoms: C6_11  and  O1_1 
REMARK    2  A    between atoms: C8_13  and  O1_1 
REMARK    3  A    between atoms: C15_20  and  O3_3 
REMARK    4  A    between atoms: C17_22  and  O3_3 
REMARK    5  A    between atoms: C20_25  and  O5_5 
REMARK    6  A    between atoms: C1_6  and  C2_7 
REMARK    7  A    between atoms: C1_6  and  C3_8 
REMARK    8  A    between atoms: C2_7  and  C4_9 
REMARK    9  A    between atoms: C3_8  and  C5_10 
REMARK   10  A    between atoms: C4_9  and  C6_11 
ROOT
HETATM    1  O2  UNK     1      16.008   8.528  31.297  1.00  0.00    -0.319 OA
HETATM    2  O4  UNK     1      18.258   7.547  34.559  1.00  0.00    -0.284 OA
HETATM    3  C8  UNK     1      14.122  10.318  33.853  1.00  0.00     0.071 A 
HETATM    4  C9  UNK     1      16.386   8.701  33.693  1.00  0.00     0.051 A 
HETATM    5  C10 UNK     1      15.659   9.001  32.539  1.00  0.00     0.092 A 
HETATM    6  C11 UNK     1      14.526   9.810  32.618  1.00  0.00     0.075 A 
HETATM    7  C12 UNK     1      14.850  10.019  35.006  1.00  0.00     0.038 A 
HETATM    8  C13 UNK     1      15.985   9.210  34.930  1.00  0.00     0.021 A 
HETATM    9  C14 UNK     1      17.581   7.844  33.586  1.00  0.00     0.220 A 
HETATM   10  C15 UNK     1      17.911   7.362  32.225  1.00  0.00     0.149 A 
HETATM   11  C16 UNK     1      17.122   7.729  31.211  1.00  0.00     0.184 A 
ENDROOT
BRANCH  10  12
HETATM   12  O3  UNK     1      19.010   6.557  32.040  1.00  0.00    -0.305 OA
BRANCH  12  13
HETATM   13  C17 UNK     1      18.783   5.299  31.552  1.00  0.00     0.076 A 
HETATM   14  C18 UNK     1      19.113   4.992  30.232  1.00  0.00     0.040 A 
HETATM   15  C21 UNK     1      18.883   3.709  29.736  1.00  0.00     0.039 A 
HETATM   16  C20 UNK     1      18.322   2.733  30.558  1.00  0.00     0.068 A 
HETATM   17  C22 UNK     1      17.990   3.040  31.878  1.00  0.00     0.039 A 
HETATM   18  C19 UNK     1      18.221   4.323  32.376  1.00  0.00     0.040 A 
BRANCH  16  19
HETATM   19  O5  UNK     1      18.096   1.481  30.073  1.00  0.00    -0.356 OA
HETATM   20  C23 UNK     1      18.140   1.317  28.657  1.00  0.00     0.210 C 
ENDBRANCH  16  19
ENDBRANCH  12  13
ENDBRANCH  10  12
BRANCH   3  21
HETATM   21  O1  UNK     1      13.009  11.114  33.935  1.00  0.00    -0.351 OA
BRANCH  21  22
HETATM   22  C6  UNK     1      13.015  12.124  34.934  1.00  0.00     0.175 C 
BRANCH  22  23
HETATM   23  C4  UNK     1      13.064  13.486  34.259  1.00  0.00     0.027 C 
BRANCH  23  24
HETATM   24  C2  UNK     1      14.340  14.247  34.614  1.00  0.00     0.002 C 
BRANCH  24  25
HETATM   25  C1  UNK     1      15.202  13.455  35.600  1.00  0.00     0.000 C 
BRANCH  25  26
HETATM   26  C3  UNK     1      16.702  13.538  35.303  1.00  0.00    -0.000 C 
BRANCH  26  27
HETATM   27  C5  UNK     1      17.093  12.899  33.971  1.00  0.00    -0.005 C 
HETATM   28  C7  UNK     1      18.253  11.929  34.142  1.00  0.00     0.005 C 
ENDBRANCH  26  27
ENDBRANCH  25  26
ENDBRANCH  24  25
ENDBRANCH  23  24
ENDBRANCH  22  23
ENDBRANCH  21  22
ENDBRANCH   3  21
TORSDOF 10
ENDMDL
MODEL 8
REMARK VINA RESULT:      -7.1     22.280     24.337
REMARK  10 active torsions:
REMARK  status: ('A' for Active; 'I' for Inactive)
REMARK    1  A    between atoms: C6_11  and  O1_1 
REMARK    2  A    between atoms: C8_13  and  O1_1 
REMARK    3  A    between atoms: C15_20  and  O3_3 
REMARK    4  A    between atoms: C17_22  and  O3_3 
REMARK    5  A    between atoms: C20_25  and  O5_5 
REMARK    6  A    between atoms: C1_6  and  C2_7 
REMARK    7  A    between atoms: C1_6  and  C3_8 
REMARK    8  A    between atoms: C2_7  and  C4_9 
REMARK    9  A    between atoms: C3_8  and  C5_10 
REMARK   10  A    between atoms: C4_9  and  C6_11 
ROOT
HETATM    1  O2  UNK     1      10.500   4.522  10.153  1.00  0.00    -0.319 OA
HETATM    2  O4  UNK     1       8.445   6.570   7.280  1.00  0.00    -0.284 OA
HETATM    3  C8  UNK     1      13.318   5.683   8.153  1.00  0.00     0.071 A 
HETATM    4  C9  UNK     1      10.538   5.871   8.130  1.00  0.00     0.051 A 
HETATM    5  C10 UNK     1      11.181   5.156   9.142  1.00  0.00     0.092 A 
HETATM    6  C11 UNK     1      12.572   5.060   9.154  1.00  0.00     0.075 A 
HETATM    7  C12 UNK     1      12.674   6.399   7.142  1.00  0.00     0.038 A 
HETATM    8  C13 UNK     1      11.282   6.496   7.127  1.00  0.00     0.021 A 
HETATM    9  C14 UNK     1       9.066   5.958   8.138  1.00  0.00     0.220 A 
HETATM   10  C15 UNK     1       8.382   5.257   9.248  1.00  0.00     0.149 A 
HETATM   11  C16 UNK     1       9.129   4.609  10.147  1.00  0.00     0.184 A 
ENDROOT
BRANCH  10  12
HETATM   12  O3  UNK     1       7.010   5.289   9.327  1.00  0.00    -0.305 OA
BRANCH  12  13
HETATM   13  C17 UNK     1       6.426   4.533  10.307  1.00  0.00     0.076 A 
HETATM   14  C18 UNK     1       6.195   3.175  10.096  1.00  0.00     0.040 A 
HETATM   15  C21 UNK     1       5.601   2.405  11.096  1.00  0.00     0.039 A 
HETATM   16  C20 UNK     1       5.237   2.994  12.306  1.00  0.00     0.068 A 
HETATM   17  C22 UNK     1       5.468   4.353  12.518  1.00  0.00     0.039 A 
HETATM   18  C19 UNK     1       6.063   5.124  11.518  1.00  0.00     0.040 A 
BRANCH  16  19
HETATM   19  O5  UNK     1       4.657   2.242  13.282  1.00  0.00    -0.356 OA
HETATM   20  C23 UNK     1       5.329   2.179  14.539  1.00  0.00     0.210 C 
ENDBRANCH  16  19
ENDBRANCH  12  13
ENDBRANCH  10  12
BRANCH   3  21
HETATM   21  O1  UNK     1      14.686   5.593   8.162  1.00  0.00    -0.351 OA
BRANCH  21  22
HETATM   22  C6  UNK     1      15.299   5.267   9.401  1.00  0.00     0.175 C 
BRANCH  22  23
HETATM   23  C4  UNK     1      16.285   6.367   9.767  1.00  0.00     0.027 C 
BRANCH  23  24
HETATM   24  C2  UNK     1      15.591   7.541  10.454  1.00  0.00     0.002 C 
BRANCH  24  25
HETATM   25  C1  UNK     1      15.417   8.721   9.495  1.00  0.00     0.000 C 
BRANCH  25  26
HETATM   26  C3  UNK     1      14.107   9.487   9.703  1.00  0.00    -0.000 C 
BRANCH  26  27
HETATM   27  C5  UNK     1      12.984   8.625  10.279  1.00  0.00    -0.005 C 
HETATM   28  C7  UNK     1      11.624   9.067   9.759  1.00  0.00     0.005 C 
ENDBRANCH  26  27
ENDBRANCH  25  26
ENDBRANCH  24  25
ENDBRANCH  23  24
ENDBRANCH  22  23
ENDBRANCH  21  22
ENDBRANCH   3  21
TORSDOF 10
ENDMDL
MODEL 9
REMARK VINA RESULT:      -7.1      5.632      8.679
REMARK  10 active torsions:
REMARK  status: ('A' for Active; 'I' for Inactive)
REMARK    1  A    between atoms: C6_11  and  O1_1 
REMARK    2  A    between atoms: C8_13  and  O1_1 
REMARK    3  A    between atoms: C15_20  and  O3_3 
REMARK    4  A    between atoms: C17_22  and  O3_3 
REMARK    5  A    between atoms: C20_25  and  O5_5 
REMARK    6  A    between atoms: C1_6  and  C2_7 
REMARK    7  A    between atoms: C1_6  and  C3_8 
REMARK    8  A    between atoms: C2_7  and  C4_9 
REMARK    9  A    between atoms: C3_8  and  C5_10 
REMARK   10  A    between atoms: C4_9  and  C6_11 
ROOT
HETATM    1  O2  UNK     1      20.408  -3.207  34.212  1.00  0.00    -0.319 OA
HETATM    2  O4  UNK     1      18.656  -1.712  37.583  1.00  0.00    -0.284 OA
HETATM    3  C8  UNK     1      18.792  -0.277  32.765  1.00  0.00     0.071 A 
HETATM    4  C9  UNK     1      19.037  -1.494  35.259  1.00  0.00     0.051 A 
HETATM    5  C10 UNK     1      19.662  -2.056  34.144  1.00  0.00     0.092 A 
HETATM    6  C11 UNK     1      19.540  -1.449  32.895  1.00  0.00     0.075 A 
HETATM    7  C12 UNK     1      18.169   0.284  33.880  1.00  0.00     0.038 A 
HETATM    8  C13 UNK     1      18.289  -0.322  35.132  1.00  0.00     0.021 A 
HETATM    9  C14 UNK     1      19.179  -2.155  36.570  1.00  0.00     0.220 A 
HETATM   10  C15 UNK     1      19.993  -3.391  36.586  1.00  0.00     0.149 A 
HETATM   11  C16 UNK     1      20.531  -3.814  35.439  1.00  0.00     0.184 A 
ENDROOT
BRANCH  10  12
HETATM   12  O3  UNK     1      20.174  -4.068  37.769  1.00  0.00    -0.305 OA
BRANCH  12  13
HETATM   13  C17 UNK     1      20.233  -5.434  37.701  1.00  0.00     0.076 A 
HETATM   14  C18 UNK     1      21.428  -6.095  37.981  1.00  0.00     0.040 A 
HETATM   15  C21 UNK     1      21.487  -7.487  37.913  1.00  0.00     0.039 A 
HETATM   16  C20 UNK     1      20.351  -8.217  37.564  1.00  0.00     0.068 A 
HETATM   17  C22 UNK     1      19.156  -7.555  37.283  1.00  0.00     0.039 A 
HETATM   18  C19 UNK     1      19.096  -6.163  37.352  1.00  0.00     0.040 A 
BRANCH  16  19
HETATM   19  O5  UNK     1      20.409  -9.575  37.496  1.00  0.00    -0.356 OA
HETATM   20  C23 UNK     1      19.451 -10.305  38.262  1.00  0.00     0.210 C 
ENDBRANCH  16  19
ENDBRANCH  12  13
ENDBRANCH  10  12
BRANCH   3  21
HETATM   21  O1  UNK     1      18.671   0.324  31.539  1.00  0.00    -0.351 OA
BRANCH  21  22
HETATM   22  C6  UNK     1      19.736   0.125  30.619  1.00  0.00     0.175 C 
BRANCH  22  23
HETATM   23  C4  UNK     1      19.450   0.923  29.355  1.00  0.00     0.027 C 
BRANCH  23  24
HETATM   24  C2  UNK     1      18.253   1.854  29.533  1.00  0.00     0.002 C 
BRANCH  24  25
HETATM   25  C1  UNK     1      18.702   3.307  29.705  1.00  0.00     0.000 C 
BRANCH  25  26
HETATM   26  C3  UNK     1      18.530   3.833  31.134  1.00  0.00    -0.000 C 
BRANCH  26  27
HETATM   27  C5  UNK     1      18.899   5.308  31.287  1.00  0.00    -0.005 C 
HETATM   28  C7  UNK     1      19.701   5.805  30.094  1.00  0.00     0.005 C 
ENDBRANCH  26  27
ENDBRANCH  25  26
ENDBRANCH  24  25
ENDBRANCH  23  24
ENDBRANCH  22  23
ENDBRANCH  21  22
ENDBRANCH   3  21
TORSDOF 10
ENDMDL
MODEL 10
REMARK VINA RESULT:      -7.1     22.065     24.537
REMARK  10 active torsions:
REMARK  status: ('A' for Active; 'I' for Inactive)
REMARK    1  A    between atoms: C6_11  and  O1_1 
REMARK    2  A    between atoms: C8_13  and  O1_1 
REMARK    3  A    between atoms: C15_20  and  O3_3 
REMARK    4  A    between atoms: C17_22  and  O3_3 
REMARK    5  A    between atoms: C20_25  and  O5_5 
REMARK    6  A    between atoms: C1_6  and  C2_7 
REMARK    7  A    between atoms: C1_6  and  C3_8 
REMARK    8  A    between atoms: C2_7  and  C4_9 
REMARK    9  A    between atoms: C3_8  and  C5_10 
REMARK   10  A    between atoms: C4_9  and  C6_11 
ROOT
HETATM    1  O2  UNK     1      10.551   4.576  10.062  1.00  0.00    -0.319 OA
HETATM    2  O4  UNK     1       8.737   6.796   7.156  1.00  0.00    -0.284 OA
HETATM    3  C8  UNK     1      13.512   5.632   8.218  1.00  0.00     0.071 A 
HETATM    4  C9  UNK     1      10.750   5.968   8.079  1.00  0.00     0.051 A 
HETATM    5  C10 UNK     1      11.308   5.196   9.100  1.00  0.00     0.092 A 
HETATM    6  C11 UNK     1      12.691   5.027   9.170  1.00  0.00     0.075 A 
HETATM    7  C12 UNK     1      12.953   6.405   7.199  1.00  0.00     0.038 A 
HETATM    8  C13 UNK     1      11.570   6.576   7.126  1.00  0.00     0.021 A 
HETATM    9  C14 UNK     1       9.285   6.133   8.024  1.00  0.00     0.220 A 
HETATM   10  C15 UNK     1       8.517   5.443   9.085  1.00  0.00     0.149 A 
HETATM   11  C16 UNK     1       9.187   4.736   9.999  1.00  0.00     0.184 A 
ENDROOT
BRANCH  10  12
HETATM   12  O3  UNK     1       7.146   5.546   9.105  1.00  0.00    -0.305 OA
BRANCH  12  13
HETATM   13  C17 UNK     1       6.578   6.057  10.240  1.00  0.00     0.076 A 
HETATM   14  C18 UNK     1       6.913   7.340  10.672  1.00  0.00     0.040 A 
HETATM   15  C21 UNK     1       6.333   7.861  11.828  1.00  0.00     0.039 A 
HETATM   16  C20 UNK     1       5.418   7.098  12.553  1.00  0.00     0.068 A 
HETATM   17  C22 UNK     1       5.083   5.814  12.123  1.00  0.00     0.039 A 
HETATM   18  C19 UNK     1       5.662   5.294  10.965  1.00  0.00     0.040 A 
BRANCH  16  19
HETATM   19  O5  UNK     1       4.853   7.606  13.683  1.00  0.00    -0.356 OA
HETATM   20  C23 UNK     1       5.680   7.687  14.843  1.00  0.00     0.210 C 
ENDBRANCH  16  19
ENDBRANCH  12  13
ENDBRANCH  10  12
BRANCH   3  21
HETATM   21  O1  UNK     1      14.872   5.470   8.285  1.00  0.00    -0.351 OA
BRANCH  21  22
HETATM   22  C6  UNK     1      15.437   5.319   9.579  1.00  0.00     0.175 C 
BRANCH  22  23
HETATM   23  C4  UNK     1      16.327   6.518   9.872  1.00  0.00     0.027 C 
BRANCH  23  24
HETATM   24  C2  UNK     1      15.527   7.690  10.436  1.00  0.00     0.002 C 
BRANCH  24  25
HETATM   25  C1  UNK     1      15.405   8.823   9.414  1.00  0.00     0.000 C 
BRANCH  25  26
HETATM   26  C3  UNK     1      13.976   9.354   9.261  1.00  0.00    -0.000 C 
BRANCH  26  27
HETATM   27  C5  UNK     1      12.975   8.683  10.199  1.00  0.00    -0.005 C 
HETATM   28  C7  UNK     1      11.549   9.114   9.888  1.00  0.00     0.005 C 
ENDBRANCH  26  27
ENDBRANCH  25  26
ENDBRANCH  24  25
ENDBRANCH  23  24
ENDBRANCH  22  23
ENDBRANCH  21  22
ENDBRANCH   3  21
TORSDOF 10
ENDMDL
