MODEL 1
REMARK VINA RESULT:      -6.8      0.000      0.000
REMARK  1 active torsions:
REMARK  status: ('A' for Active; 'I' for Inactive)
REMARK    1  A    between atoms: C3_9  and  C8_14 
ROOT
HETATM    1 Cl4  UNK     1      20.712  -0.584  28.898  1.00  0.00    -0.084 Cl
HETATM    2  O1  UNK     1      18.350  -0.689  34.283  1.00  0.00    -0.309 OA
HETATM    3  O2  UNK     1      18.193   2.815  32.211  1.00  0.00    -0.287 OA
HETATM    4  C1  UNK     1      18.870   0.550  32.259  1.00  0.00     0.050 A 
HETATM    5  C2  UNK     1      18.888  -0.616  33.023  1.00  0.00     0.090 A 
HETATM    6  C3  UNK     1      17.763   0.447  34.816  1.00  0.00     0.111 A 
HETATM    7  C4  UNK     1      18.247   1.758  32.824  1.00  0.00     0.187 A 
HETATM    8  C5  UNK     1      17.683   1.624  34.181  1.00  0.00     0.093 A 
HETATM    9  C6  UNK     1      19.432   0.567  30.981  1.00  0.00     0.042 A 
HETATM   10  C7  UNK     1      19.471  -1.775  32.510  1.00  0.00     0.040 A 
HETATM   11  C9  UNK     1      20.015  -0.593  30.471  1.00  0.00     0.035 A 
HETATM   12  C10 UNK     1      20.035  -1.762  31.234  1.00  0.00     0.026 A 
ENDROOT
BRANCH   6  13
HETATM   13  C8  UNK     1      17.212   0.244  36.193  1.00  0.00     0.237 C 
HETATM   14 Cl1  UNK     1      17.623  -1.400  36.738  1.00  0.00    -0.076 Cl
HETATM   15 Cl2  UNK     1      17.922   1.439  37.306  1.00  0.00    -0.076 Cl
HETATM   16 Cl3  UNK     1      15.443   0.444  36.166  1.00  0.00    -0.076 Cl
ENDBRANCH   6  13
TORSDOF 1
ENDMDL
MODEL 2
REMARK VINA RESULT:      -6.6      7.420      9.706
REMARK  1 active torsions:
REMARK  status: ('A' for Active; 'I' for Inactive)
REMARK    1  A    between atoms: C3_9  and  C8_14 
ROOT
HETATM    1 Cl4  UNK     1      13.158  11.570  34.540  1.00  0.00    -0.084 Cl
HETATM    2  O1  UNK     1      17.568   8.035  32.913  1.00  0.00    -0.309 OA
HETATM    3  O2  UNK     1      13.777   6.921  31.917  1.00  0.00    -0.287 OA
HETATM    4  C1  UNK     1      15.185   8.506  32.964  1.00  0.00     0.050 A 
HETATM    5  C2  UNK     1      16.506   8.827  33.271  1.00  0.00     0.090 A 
HETATM    6  C3  UNK     1      17.312   6.866  32.215  1.00  0.00     0.111 A 
HETATM    7  C4  UNK     1      14.911   7.265  32.222  1.00  0.00     0.187 A 
HETATM    8  C5  UNK     1      16.087   6.451  31.861  1.00  0.00     0.093 A 
HETATM    9  C6  UNK     1      14.143   9.351  33.352  1.00  0.00     0.042 A 
HETATM   10  C7  UNK     1      16.793   9.998  33.973  1.00  0.00     0.040 A 
HETATM   11  C9  UNK     1      14.433  10.522  34.054  1.00  0.00     0.035 A 
HETATM   12  C10 UNK     1      15.756  10.845  34.364  1.00  0.00     0.026 A 
ENDROOT
BRANCH   6  13
HETATM   13  C8  UNK     1      18.546   6.088  31.881  1.00  0.00     0.237 C 
HETATM   14 Cl1  UNK     1      18.852   6.221  30.132  1.00  0.00    -0.076 Cl
HETATM   15 Cl2  UNK     1      19.933   6.745  32.784  1.00  0.00    -0.076 Cl
HETATM   16 Cl3  UNK     1      18.314   4.379  32.322  1.00  0.00    -0.076 Cl
ENDBRANCH   6  13
TORSDOF 1
ENDMDL
MODEL 3
REMARK VINA RESULT:      -6.6      1.200      2.790
REMARK  1 active torsions:
REMARK  status: ('A' for Active; 'I' for Inactive)
REMARK    1  A    between atoms: C3_9  and  C8_14 
ROOT
HETATM    1 Cl4  UNK     1      21.135  -0.881  28.746  1.00  0.00    -0.084 Cl
HETATM    2  O1  UNK     1      18.168   0.419  33.655  1.00  0.00    -0.309 OA
HETATM    3  O2  UNK     1      20.474  -2.940  33.665  1.00  0.00    -0.287 OA
HETATM    4  C1  UNK     1      19.686  -1.060  32.467  1.00  0.00     0.050 A 
HETATM    5  C2  UNK     1      18.879   0.075  32.533  1.00  0.00     0.090 A 
HETATM    6  C3  UNK     1      18.260  -0.398  34.770  1.00  0.00     0.111 A 
HETATM    7  C4  UNK     1      19.785  -1.930  33.650  1.00  0.00     0.187 A 
HETATM    8  C5  UNK     1      19.002  -1.513  34.830  1.00  0.00     0.093 A 
HETATM    9  C6  UNK     1      20.388  -1.362  31.299  1.00  0.00     0.042 A 
HETATM   10  C7  UNK     1      18.769   0.916  31.426  1.00  0.00     0.040 A 
HETATM   11  C9  UNK     1      20.276  -0.519  30.193  1.00  0.00     0.035 A 
HETATM   12  C10 UNK     1      19.468   0.618  30.256  1.00  0.00     0.026 A 
ENDROOT
BRANCH   6  13
HETATM   13  C8  UNK     1      17.443   0.080  35.930  1.00  0.00     0.237 C 
HETATM   14 Cl1  UNK     1      18.047   1.676  36.437  1.00  0.00    -0.076 Cl
HETATM   15 Cl2  UNK     1      15.735   0.211  35.446  1.00  0.00    -0.076 Cl
HETATM   16 Cl3  UNK     1      17.586  -1.073  37.279  1.00  0.00    -0.076 Cl
ENDBRANCH   6  13
TORSDOF 1
ENDMDL
MODEL 4
REMARK VINA RESULT:      -6.5     13.191     14.703
REMARK  1 active torsions:
REMARK  status: ('A' for Active; 'I' for Inactive)
REMARK    1  A    between atoms: C3_9  and  C8_14 
ROOT
HETATM    1 Cl4  UNK     1      26.837  -9.562  39.972  1.00  0.00    -0.084 Cl
HETATM    2  O1  UNK     1      30.986  -6.581  37.056  1.00  0.00    -0.309 OA
HETATM    3  O2  UNK     1      28.112  -4.435  38.989  1.00  0.00    -0.287 OA
HETATM    4  C1  UNK     1      28.984  -6.561  38.433  1.00  0.00     0.050 A 
HETATM    5  C2  UNK     1      29.997  -7.232  37.750  1.00  0.00     0.090 A 
HETATM    6  C3  UNK     1      30.974  -5.196  37.036  1.00  0.00     0.111 A 
HETATM    7  C4  UNK     1      28.969  -5.090  38.412  1.00  0.00     0.187 A 
HETATM    8  C5  UNK     1      30.055  -4.440  37.654  1.00  0.00     0.093 A 
HETATM    9  C6  UNK     1      28.003  -7.275  39.123  1.00  0.00     0.042 A 
HETATM   10  C7  UNK     1      30.034  -8.627  37.754  1.00  0.00     0.040 A 
HETATM   11  C9  UNK     1      28.042  -8.670  39.125  1.00  0.00     0.035 A 
HETATM   12  C10 UNK     1      29.055  -9.344  38.442  1.00  0.00     0.026 A 
ENDROOT
BRANCH   6  13
HETATM   13  C8  UNK     1      32.100  -4.601  36.250  1.00  0.00     0.237 C 
HETATM   14 Cl1  UNK     1      33.631  -5.318  36.808  1.00  0.00    -0.076 Cl
HETATM   15 Cl2  UNK     1      31.872  -4.947  34.519  1.00  0.00    -0.076 Cl
HETATM   16 Cl3  UNK     1      32.138  -2.838  36.497  1.00  0.00    -0.076 Cl
ENDBRANCH   6  13
TORSDOF 1
ENDMDL
MODEL 5
REMARK VINA RESULT:      -6.5      3.600      5.575
REMARK  1 active torsions:
REMARK  status: ('A' for Active; 'I' for Inactive)
REMARK    1  A    between atoms: C3_9  and  C8_14 
ROOT
HETATM    1 Cl4  UNK     1      18.442  -1.361  35.568  1.00  0.00    -0.084 Cl
HETATM    2  O1  UNK     1      18.317   4.208  33.678  1.00  0.00    -0.309 OA
HETATM    3  O2  UNK     1      18.356   1.252  30.873  1.00  0.00    -0.287 OA
HETATM    4  C1  UNK     1      18.361   1.833  33.165  1.00  0.00     0.050 A 
HETATM    5  C2  UNK     1      18.346   2.893  34.070  1.00  0.00     0.090 A 
HETATM    6  C3  UNK     1      18.301   4.490  32.322  1.00  0.00     0.111 A 
HETATM    7  C4  UNK     1      18.345   2.131  31.724  1.00  0.00     0.187 A 
HETATM    8  C5  UNK     1      18.312   3.559  31.357  1.00  0.00     0.093 A 
HETATM    9  C6  UNK     1      18.390   0.513  33.621  1.00  0.00     0.042 A 
HETATM   10  C7  UNK     1      18.360   2.638  35.442  1.00  0.00     0.040 A 
HETATM   11  C9  UNK     1      18.405   0.261  34.994  1.00  0.00     0.035 A 
HETATM   12  C10 UNK     1      18.390   1.321  35.902  1.00  0.00     0.026 A 
ENDROOT
BRANCH   6  13
HETATM   13  C8  UNK     1      18.268   5.955  32.018  1.00  0.00     0.237 C 
HETATM   14 Cl1  UNK     1      18.685   6.194  30.304  1.00  0.00    -0.076 Cl
HETATM   15 Cl2  UNK     1      16.638   6.598  32.334  1.00  0.00    -0.076 Cl
HETATM   16 Cl3  UNK     1      19.446   6.807  33.046  1.00  0.00    -0.076 Cl
ENDBRANCH   6  13
TORSDOF 1
ENDMDL
MODEL 6
REMARK VINA RESULT:      -6.4     24.483     26.492
REMARK  1 active torsions:
REMARK  status: ('A' for Active; 'I' for Inactive)
REMARK    1  A    between atoms: C3_9  and  C8_14 
ROOT
HETATM    1 Cl4  UNK     1       8.936   6.548   6.094  1.00  0.00    -0.084 Cl
HETATM    2  O1  UNK     1      14.224   7.195   8.588  1.00  0.00    -0.309 OA
HETATM    3  O2  UNK     1      11.042   8.988  10.394  1.00  0.00    -0.287 OA
HETATM    4  C1  UNK     1      11.839   7.660   8.608  1.00  0.00     0.050 A 
HETATM    5  C2  UNK     1      12.970   7.072   8.043  1.00  0.00     0.090 A 
HETATM    6  C3  UNK     1      14.368   7.934   9.750  1.00  0.00     0.111 A 
HETATM    7  C4  UNK     1      11.990   8.446   9.843  1.00  0.00     0.187 A 
HETATM    8  C5  UNK     1      13.358   8.544  10.387  1.00  0.00     0.093 A 
HETATM    9  C6  UNK     1      10.587   7.501   8.011  1.00  0.00     0.042 A 
HETATM   10  C7  UNK     1      12.855   6.322   6.873  1.00  0.00     0.040 A 
HETATM   11  C9  UNK     1      10.475   6.750   6.841  1.00  0.00     0.035 A 
HETATM   12  C10 UNK     1      11.606   6.161   6.273  1.00  0.00     0.026 A 
ENDROOT
BRANCH   6  13
HETATM   13  C8  UNK     1      15.779   7.995  10.248  1.00  0.00     0.237 C 
HETATM   14 Cl1  UNK     1      15.754   8.197  12.016  1.00  0.00    -0.076 Cl
HETATM   15 Cl2  UNK     1      16.629   6.488   9.828  1.00  0.00    -0.076 Cl
HETATM   16 Cl3  UNK     1      16.619   9.373   9.497  1.00  0.00    -0.076 Cl
ENDBRANCH   6  13
TORSDOF 1
ENDMDL
MODEL 7
REMARK VINA RESULT:      -6.4     13.485     14.712
REMARK  1 active torsions:
REMARK  status: ('A' for Active; 'I' for Inactive)
REMARK    1  A    between atoms: C3_9  and  C8_14 
ROOT
HETATM    1 Cl4  UNK     1      34.162  -5.881  37.711  1.00  0.00    -0.084 Cl
HETATM    2  O1  UNK     1      29.080  -8.809  38.157  1.00  0.00    -0.309 OA
HETATM    3  O2  UNK     1      29.133  -4.909  39.336  1.00  0.00    -0.287 OA
HETATM    4  C1  UNK     1      30.332  -6.748  38.458  1.00  0.00     0.050 A 
HETATM    5  C2  UNK     1      30.243  -8.084  38.072  1.00  0.00     0.090 A 
HETATM    6  C3  UNK     1      27.947  -8.181  38.648  1.00  0.00     0.111 A 
HETATM    7  C4  UNK     1      29.129  -6.079  38.980  1.00  0.00     0.187 A 
HETATM    8  C5  UNK     1      27.906  -6.902  39.049  1.00  0.00     0.093 A 
HETATM    9  C6  UNK     1      31.541  -6.059  38.349  1.00  0.00     0.042 A 
HETATM   10  C7  UNK     1      31.368  -8.741  37.573  1.00  0.00     0.040 A 
HETATM   11  C9  UNK     1      32.665  -6.719  37.850  1.00  0.00     0.035 A 
HETATM   12  C10 UNK     1      32.578  -8.057  37.463  1.00  0.00     0.026 A 
ENDROOT
BRANCH   6  13
HETATM   13  C8  UNK     1      26.744  -9.070  38.692  1.00  0.00     0.237 C 
HETATM   14 Cl1  UNK     1      25.290  -8.059  38.873  1.00  0.00    -0.076 Cl
HETATM   15 Cl2  UNK     1      26.637 -10.011  37.185  1.00  0.00    -0.076 Cl
HETATM   16 Cl3  UNK     1      26.875 -10.186  40.074  1.00  0.00    -0.076 Cl
ENDBRANCH   6  13
TORSDOF 1
ENDMDL
MODEL 8
REMARK VINA RESULT:      -6.4      6.955      7.591
REMARK  1 active torsions:
REMARK  status: ('A' for Active; 'I' for Inactive)
REMARK    1  A    between atoms: C3_9  and  C8_14 
ROOT
HETATM    1 Cl4  UNK     1      22.564   5.566  31.281  1.00  0.00    -0.084 Cl
HETATM    2  O1  UNK     1      16.892   7.045  31.764  1.00  0.00    -0.309 OA
HETATM    3  O2  UNK     1      19.279   7.592  35.020  1.00  0.00    -0.287 OA
HETATM    4  C1  UNK     1      19.095   6.875  32.775  1.00  0.00     0.050 A 
HETATM    5  C2  UNK     1      18.222   6.715  31.700  1.00  0.00     0.090 A 
HETATM    6  C3  UNK     1      16.398   7.561  32.951  1.00  0.00     0.111 A 
HETATM    7  C4  UNK     1      18.572   7.423  34.037  1.00  0.00     0.187 A 
HETATM    8  C5  UNK     1      17.136   7.763  34.052  1.00  0.00     0.093 A 
HETATM    9  C6  UNK     1      20.440   6.523  32.653  1.00  0.00     0.042 A 
HETATM   10  C7  UNK     1      18.693   6.198  30.492  1.00  0.00     0.040 A 
HETATM   11  C9  UNK     1      20.908   6.006  31.444  1.00  0.00     0.035 A 
HETATM   12  C10 UNK     1      20.036   5.844  30.366  1.00  0.00     0.026 A 
ENDROOT
BRANCH   6  13
HETATM   13  C8  UNK     1      14.937   7.883  32.900  1.00  0.00     0.237 C 
HETATM   14 Cl1  UNK     1      14.225   7.090  31.474  1.00  0.00    -0.076 Cl
HETATM   15 Cl2  UNK     1      14.139   7.290  34.377  1.00  0.00    -0.076 Cl
HETATM   16 Cl3  UNK     1      14.716   9.646  32.779  1.00  0.00    -0.076 Cl
ENDBRANCH   6  13
TORSDOF 1
ENDMDL
MODEL 9
REMARK VINA RESULT:      -6.3      2.732      4.097
REMARK  1 active torsions:
REMARK  status: ('A' for Active; 'I' for Inactive)
REMARK    1  A    between atoms: C3_9  and  C8_14 
ROOT
HETATM    1 Cl4  UNK     1      18.912   6.113  29.807  1.00  0.00    -0.084 Cl
HETATM    2  O1  UNK     1      18.045   2.743  34.550  1.00  0.00    -0.309 OA
HETATM    3  O2  UNK     1      18.749   0.875  30.997  1.00  0.00    -0.287 OA
HETATM    4  C1  UNK     1      18.499   2.914  32.168  1.00  0.00     0.050 A 
HETATM    5  C2  UNK     1      18.254   3.487  33.415  1.00  0.00     0.090 A 
HETATM    6  C3  UNK     1      18.083   1.362  34.447  1.00  0.00     0.111 A 
HETATM    7  C4  UNK     1      18.538   1.447  32.058  1.00  0.00     0.187 A 
HETATM    8  C5  UNK     1      18.310   0.695  33.307  1.00  0.00     0.093 A 
HETATM    9  C6  UNK     1      18.704   3.720  31.047  1.00  0.00     0.042 A 
HETATM   10  C7  UNK     1      18.212   4.875  33.547  1.00  0.00     0.040 A 
HETATM   11  C9  UNK     1      18.661   5.108  31.182  1.00  0.00     0.035 A 
HETATM   12  C10 UNK     1      18.416   5.684  32.429  1.00  0.00     0.026 A 
ENDROOT
BRANCH   6  13
HETATM   13  C8  UNK     1      17.843   0.661  35.748  1.00  0.00     0.237 C 
HETATM   14 Cl1  UNK     1      16.165   0.070  35.780  1.00  0.00    -0.076 Cl
HETATM   15 Cl2  UNK     1      18.966  -0.713  35.905  1.00  0.00    -0.076 Cl
HETATM   16 Cl3  UNK     1      18.108   1.793  37.096  1.00  0.00    -0.076 Cl
ENDBRANCH   6  13
TORSDOF 1
ENDMDL
MODEL 10
REMARK VINA RESULT:      -6.3      6.534      9.072
REMARK  1 active torsions:
REMARK  status: ('A' for Active; 'I' for Inactive)
REMARK    1  A    between atoms: C3_9  and  C8_14 
ROOT
HETATM    1 Cl4  UNK     1      14.356  10.308  35.317  1.00  0.00    -0.084 Cl
HETATM    2  O1  UNK     1      17.501   6.921  31.679  1.00  0.00    -0.309 OA
HETATM    3  O2  UNK     1      19.078   7.742  35.345  1.00  0.00    -0.287 OA
HETATM    4  C1  UNK     1      17.284   8.028  33.831  1.00  0.00     0.050 A 
HETATM    5  C2  UNK     1      16.804   7.707  32.563  1.00  0.00     0.090 A 
HETATM    6  C3  UNK     1      18.734   6.426  32.069  1.00  0.00     0.111 A 
HETATM    7  C4  UNK     1      18.595   7.503  34.247  1.00  0.00     0.187 A 
HETATM    8  C5  UNK     1      19.301   6.663  33.261  1.00  0.00     0.093 A 
HETATM    9  C6  UNK     1      16.532   8.832  34.690  1.00  0.00     0.042 A 
HETATM   10  C7  UNK     1      15.565   8.191  32.144  1.00  0.00     0.040 A 
HETATM   11  C9  UNK     1      15.292   9.315  34.269  1.00  0.00     0.035 A 
HETATM   12  C10 UNK     1      14.810   8.995  32.998  1.00  0.00     0.026 A 
ENDROOT
BRANCH   6  13
HETATM   13  C8  UNK     1      19.397   5.583  31.024  1.00  0.00     0.237 C 
HETATM   14 Cl1  UNK     1      18.843   6.120  29.420  1.00  0.00    -0.076 Cl
HETATM   15 Cl2  UNK     1      21.164   5.763  31.140  1.00  0.00    -0.076 Cl
HETATM   16 Cl3  UNK     1      18.963   3.874  31.268  1.00  0.00    -0.076 Cl
ENDBRANCH   6  13
TORSDOF 1
ENDMDL
