MODEL 1
REMARK VINA RESULT:      -8.7      0.000      0.000
REMARK  7 active torsions:
REMARK  status: ('A' for Active; 'I' for Inactive)
REMARK    1  A    between atoms: C12_19  and  O3_3 
REMARK    2  A    between atoms: C20_27  and  O3_3 
REMARK    3  A    between atoms: C23_30  and  O6_6 
REMARK    4  A    between atoms: C24_31  and  O6_6 
REMARK    5  A    between atoms: C1_8  and  C10_17 
REMARK    6  A    between atoms: C12_19  and  C6_13 
REMARK    7  A    between atoms: C20_27  and  C23_30 
ROOT
HETATM    1  O1  UNK     1      30.453  -3.760  37.294  1.00  0.00    -0.293 OA
HETATM    2  N1  UNK     1      29.881  -8.375  38.203  1.00  0.00    -0.362 N 
HETATM    3  C1  UNK     1      31.289  -6.449  36.666  1.00  0.00     0.104 C 
HETATM    4  C2  UNK     1      30.161  -6.092  37.629  1.00  0.00     0.024 C 
HETATM    5  C3  UNK     1      29.506  -7.049  38.321  1.00  0.00     0.020 C 
HETATM    6  C4  UNK     1      28.354  -6.759  39.246  1.00  0.00     0.058 C 
HETATM    7  C5  UNK     1      27.700  -5.416  38.946  1.00  0.00     0.014 C 
HETATM    8  C6  UNK     1      31.692  -7.923  36.747  1.00  0.00     0.052 C 
HETATM    9  C7  UNK     1      28.741  -4.315  38.861  1.00  0.00     0.084 C 
HETATM   10  C8  UNK     1      29.822  -4.653  37.859  1.00  0.00     0.158 C 
HETATM   11  C9  UNK     1      30.975  -8.812  37.474  1.00  0.00     0.018 C 
HETATM   12  C13 UNK     1      31.257 -10.287  37.578  1.00  0.00     0.069 C 
HETATM   13  H8  UNK     1      29.365  -9.062  38.741  1.00  0.00     0.165 HD
ENDROOT
BRANCH   3  14
HETATM   14  C10 UNK     1      30.902  -6.093  35.256  1.00  0.00     0.029 A 
HETATM   15  C11 UNK     1      29.647  -6.661  34.701  1.00  0.00     0.194 A 
HETATM   16  O4  UNK     1      28.926  -7.405  35.352  1.00  0.00    -0.287 OA
HETATM   17  C15 UNK     1      29.314  -6.279  33.317  1.00  0.00     0.049 A 
HETATM   18  C16 UNK     1      30.174  -5.427  32.622  1.00  0.00     0.089 A 
HETATM   19  C17 UNK     1      28.154  -6.761  32.704  1.00  0.00     0.025 A 
HETATM   20  O2  UNK     1      31.325  -4.924  33.174  1.00  0.00    -0.321 OA
HETATM   21  C18 UNK     1      29.877  -5.053  31.311  1.00  0.00     0.039 A 
HETATM   22  C14 UNK     1      31.622  -5.289  34.464  1.00  0.00     0.154 A 
HETATM   23  C21 UNK     1      28.720  -5.533  30.697  1.00  0.00     0.009 A 
HETATM   24  C19 UNK     1      27.861  -6.385  31.392  1.00  0.00    -0.061 A 
HETATM   25  C22 UNK     1      26.624  -6.894  30.731  1.00  0.00     0.048 C 
ENDBRANCH   3  14
BRANCH   8  26
HETATM   26  C12 UNK     1      32.923  -8.307  36.038  1.00  0.00     0.292 C 
HETATM   27  O5  UNK     1      34.029  -7.906  36.352  1.00  0.00    -0.259 OA
BRANCH  26  28
HETATM   28  O3  UNK     1      32.590  -9.147  35.029  1.00  0.00    -0.316 OA
BRANCH  28  29
HETATM   29  C20 UNK     1      33.426  -9.063  33.870  1.00  0.00     0.205 C 
BRANCH  29  30
HETATM   30  C23 UNK     1      32.661  -8.372  32.757  1.00  0.00     0.202 C 
BRANCH  30  31
HETATM   31  O6  UNK     1      31.432  -9.055  32.545  1.00  0.00    -0.349 OA
BRANCH  31  32
HETATM   32  C24 UNK     1      30.867  -8.939  31.302  1.00  0.00     0.068 A 
HETATM   33  C25 UNK     1      31.478  -8.141  30.341  1.00  0.00     0.037 A 
HETATM   34  C27 UNK     1      30.903  -8.022  29.076  1.00  0.00     0.003 A 
HETATM   35  C29 UNK     1      29.721  -8.701  28.779  1.00  0.00     0.000 A 
HETATM   36  C28 UNK     1      29.114  -9.499  29.750  1.00  0.00     0.003 A 
HETATM   37  C26 UNK     1      29.689  -9.619  31.015  1.00  0.00     0.037 A 
ENDBRANCH  31  32
ENDBRANCH  30  31
ENDBRANCH  29  30
ENDBRANCH  28  29
ENDBRANCH  26  28
ENDBRANCH   8  26
TORSDOF 7
ENDMDL
MODEL 2
REMARK VINA RESULT:      -8.5      2.269      4.534
REMARK  7 active torsions:
REMARK  status: ('A' for Active; 'I' for Inactive)
REMARK    1  A    between atoms: C12_19  and  O3_3 
REMARK    2  A    between atoms: C20_27  and  O3_3 
REMARK    3  A    between atoms: C23_30  and  O6_6 
REMARK    4  A    between atoms: C24_31  and  O6_6 
REMARK    5  A    between atoms: C1_8  and  C10_17 
REMARK    6  A    between atoms: C12_19  and  C6_13 
REMARK    7  A    between atoms: C20_27  and  C23_30 
ROOT
HETATM    1  O1  UNK     1      26.792  -9.303  36.181  1.00  0.00    -0.293 OA
HETATM    2  N1  UNK     1      29.803  -5.996  37.747  1.00  0.00    -0.362 N 
HETATM    3  C1  UNK     1      29.004  -7.570  35.524  1.00  0.00     0.104 C 
HETATM    4  C2  UNK     1      28.391  -7.709  36.914  1.00  0.00     0.024 C 
HETATM    5  C3  UNK     1      28.823  -6.952  37.945  1.00  0.00     0.020 C 
HETATM    6  C4  UNK     1      28.290  -7.082  39.348  1.00  0.00     0.058 C 
HETATM    7  C5  UNK     1      27.622  -8.430  39.586  1.00  0.00     0.014 C 
HETATM    8  C6  UNK     1      29.963  -6.383  35.417  1.00  0.00     0.052 C 
HETATM    9  C7  UNK     1      26.616  -8.735  38.492  1.00  0.00     0.084 C 
HETATM   10  C8  UNK     1      27.249  -8.654  37.121  1.00  0.00     0.158 C 
HETATM   11  C9  UNK     1      30.337  -5.675  36.508  1.00  0.00     0.018 C 
HETATM   12  C13 UNK     1      31.309  -4.528  36.517  1.00  0.00     0.069 C 
HETATM   13  H8  UNK     1      30.097  -5.446  38.546  1.00  0.00     0.165 HD
ENDROOT
BRANCH   3  14
HETATM   14  C10 UNK     1      29.706  -8.843  35.136  1.00  0.00     0.029 A 
HETATM   15  C11 UNK     1      29.378  -9.463  33.827  1.00  0.00     0.194 A 
HETATM   16  O4  UNK     1      28.559  -8.971  33.061  1.00  0.00    -0.287 OA
HETATM   17  C15 UNK     1      30.095 -10.707  33.495  1.00  0.00     0.049 A 
HETATM   18  C16 UNK     1      31.019 -11.222  34.406  1.00  0.00     0.089 A 
HETATM   19  C17 UNK     1      29.857 -11.366  32.286  1.00  0.00     0.025 A 
HETATM   20  O2  UNK     1      31.293 -10.616  35.606  1.00  0.00    -0.321 OA
HETATM   21  C18 UNK     1      31.709 -12.399  34.112  1.00  0.00     0.039 A 
HETATM   22  C14 UNK     1      30.616  -9.458  35.902  1.00  0.00     0.154 A 
HETATM   23  C21 UNK     1      31.473 -13.059  32.906  1.00  0.00     0.009 A 
HETATM   24  C19 UNK     1      30.549 -12.544  31.996  1.00  0.00    -0.061 A 
HETATM   25  C22 UNK     1      30.300 -13.254  30.707  1.00  0.00     0.048 C 
ENDBRANCH   3  14
BRANCH   8  26
HETATM   26  C12 UNK     1      30.414  -6.024  34.062  1.00  0.00     0.292 C 
HETATM   27  O5  UNK     1      31.585  -6.006  33.730  1.00  0.00    -0.259 OA
BRANCH  26  28
HETATM   28  O3  UNK     1      29.324  -5.737  33.312  1.00  0.00    -0.316 OA
BRANCH  28  29
HETATM   29  C20 UNK     1      29.604  -5.177  32.025  1.00  0.00     0.205 C 
BRANCH  29  30
HETATM   30  C23 UNK     1      28.983  -6.057  30.956  1.00  0.00     0.202 C 
BRANCH  30  31
HETATM   31  O6  UNK     1      29.994  -6.884  30.392  1.00  0.00    -0.349 OA
BRANCH  31  32
HETATM   32  C24 UNK     1      29.571  -7.982  29.689  1.00  0.00     0.068 A 
HETATM   33  C25 UNK     1      28.241  -8.379  29.769  1.00  0.00     0.037 A 
HETATM   34  C27 UNK     1      27.811  -9.498  29.055  1.00  0.00     0.003 A 
HETATM   35  C29 UNK     1      28.714 -10.211  28.266  1.00  0.00     0.000 A 
HETATM   36  C28 UNK     1      30.047  -9.807  28.193  1.00  0.00     0.003 A 
HETATM   37  C26 UNK     1      30.477  -8.688  28.906  1.00  0.00     0.037 A 
ENDBRANCH  31  32
ENDBRANCH  30  31
ENDBRANCH  29  30
ENDBRANCH  28  29
ENDBRANCH  26  28
ENDBRANCH   8  26
TORSDOF 7
ENDMDL
MODEL 3
REMARK VINA RESULT:      -8.4      2.262      6.037
REMARK  7 active torsions:
REMARK  status: ('A' for Active; 'I' for Inactive)
REMARK    1  A    between atoms: C12_19  and  O3_3 
REMARK    2  A    between atoms: C20_27  and  O3_3 
REMARK    3  A    between atoms: C23_30  and  O6_6 
REMARK    4  A    between atoms: C24_31  and  O6_6 
REMARK    5  A    between atoms: C1_8  and  C10_17 
REMARK    6  A    between atoms: C12_19  and  C6_13 
REMARK    7  A    between atoms: C20_27  and  C23_30 
ROOT
HETATM    1  O1  UNK     1      32.345  -9.212  34.729  1.00  0.00    -0.293 OA
HETATM    2  N1  UNK     1      28.926 -10.073  31.565  1.00  0.00    -0.362 N 
HETATM    3  C1  UNK     1      30.056  -8.156  33.325  1.00  0.00     0.104 C 
HETATM    4  C2  UNK     1      30.552  -9.595  33.221  1.00  0.00     0.024 C 
HETATM    5  C3  UNK     1      29.964 -10.476  32.384  1.00  0.00     0.020 C 
HETATM    6  C4  UNK     1      30.380 -11.920  32.277  1.00  0.00     0.058 C 
HETATM    7  C5  UNK     1      31.140 -12.391  33.510  1.00  0.00     0.014 C 
HETATM    8  C6  UNK     1      29.009  -7.813  32.263  1.00  0.00     0.052 C 
HETATM    9  C7  UNK     1      32.263 -11.430  33.853  1.00  0.00     0.084 C 
HETATM   10  C8  UNK     1      31.750 -10.016  34.013  1.00  0.00     0.158 C 
HETATM   11  C9  UNK     1      28.478  -8.766  31.461  1.00  0.00     0.018 C 
HETATM   12  C13 UNK     1      27.411  -8.542  30.425  1.00  0.00     0.069 C 
HETATM   13  H8  UNK     1      28.514 -10.765  30.948  1.00  0.00     0.165 HD
ENDROOT
BRANCH   3  14
HETATM   14  C10 UNK     1      29.507  -7.893  34.702  1.00  0.00     0.029 A 
HETATM   15  C11 UNK     1      29.930  -6.659  35.409  1.00  0.00     0.194 A 
HETATM   16  O4  UNK     1      30.707  -5.856  34.910  1.00  0.00    -0.287 OA
HETATM   17  C15 UNK     1      29.362  -6.449  36.754  1.00  0.00     0.049 A 
HETATM   18  C16 UNK     1      28.480  -7.398  37.273  1.00  0.00     0.089 A 
HETATM   19  C17 UNK     1      29.698  -5.317  37.501  1.00  0.00     0.025 A 
HETATM   20  O2  UNK     1      28.115  -8.526  36.583  1.00  0.00    -0.321 OA
HETATM   21  C18 UNK     1      27.931  -7.220  38.543  1.00  0.00     0.039 A 
HETATM   22  C14 UNK     1      28.653  -8.708  35.333  1.00  0.00     0.154 A 
HETATM   23  C21 UNK     1      28.265  -6.090  39.291  1.00  0.00     0.009 A 
HETATM   24  C19 UNK     1      29.147  -5.142  38.771  1.00  0.00    -0.061 A 
HETATM   25  C22 UNK     1      29.500  -3.936  39.576  1.00  0.00     0.048 C 
ENDBRANCH   3  14
BRANCH   8  26
HETATM   26  C12 UNK     1      28.651  -6.392  32.130  1.00  0.00     0.292 C 
HETATM   27  O5  UNK     1      27.544  -5.954  32.382  1.00  0.00    -0.259 OA
BRANCH  26  28
HETATM   28  O3  UNK     1      29.742  -5.716  31.695  1.00  0.00    -0.316 OA
BRANCH  28  29
HETATM   29  C20 UNK     1      29.710  -5.338  30.315  1.00  0.00     0.205 C 
BRANCH  29  30
HETATM   30  C23 UNK     1      30.977  -5.828  29.638  1.00  0.00     0.202 C 
BRANCH  30  31
HETATM   31  O6  UNK     1      30.817  -7.197  29.289  1.00  0.00    -0.349 OA
BRANCH  31  32
HETATM   32  C24 UNK     1      31.739  -8.075  29.796  1.00  0.00     0.068 A 
HETATM   33  C25 UNK     1      32.669  -7.632  30.729  1.00  0.00     0.037 A 
HETATM   34  C27 UNK     1      33.609  -8.525  31.245  1.00  0.00     0.003 A 
HETATM   35  C29 UNK     1      33.611  -9.855  30.824  1.00  0.00     0.000 A 
HETATM   36  C28 UNK     1      32.674 -10.291  29.887  1.00  0.00     0.003 A 
HETATM   37  C26 UNK     1      31.735  -9.399  29.372  1.00  0.00     0.037 A 
ENDBRANCH  31  32
ENDBRANCH  30  31
ENDBRANCH  29  30
ENDBRANCH  28  29
ENDBRANCH  26  28
ENDBRANCH   8  26
TORSDOF 7
ENDMDL
MODEL 4
REMARK VINA RESULT:      -8.2      2.021      4.804
REMARK  7 active torsions:
REMARK  status: ('A' for Active; 'I' for Inactive)
REMARK    1  A    between atoms: C12_19  and  O3_3 
REMARK    2  A    between atoms: C20_27  and  O3_3 
REMARK    3  A    between atoms: C23_30  and  O6_6 
REMARK    4  A    between atoms: C24_31  and  O6_6 
REMARK    5  A    between atoms: C1_8  and  C10_17 
REMARK    6  A    between atoms: C12_19  and  C6_13 
REMARK    7  A    between atoms: C20_27  and  C23_30 
ROOT
HETATM    1  O1  UNK     1      31.937  -6.009  34.313  1.00  0.00    -0.293 OA
HETATM    2  N1  UNK     1      29.089  -5.486  38.062  1.00  0.00    -0.362 N 
HETATM    3  C1  UNK     1      29.727  -7.097  35.815  1.00  0.00     0.104 C 
HETATM    4  C2  UNK     1      30.415  -5.770  36.119  1.00  0.00     0.024 C 
HETATM    5  C3  UNK     1      30.058  -5.029  37.189  1.00  0.00     0.020 C 
HETATM    6  C4  UNK     1      30.668  -3.689  37.508  1.00  0.00     0.058 C 
HETATM    7  C5  UNK     1      31.321  -3.050  36.290  1.00  0.00     0.014 C 
HETATM    8  C6  UNK     1      28.787  -7.546  36.936  1.00  0.00     0.052 C 
HETATM    9  C7  UNK     1      32.256  -4.027  35.602  1.00  0.00     0.084 C 
HETATM   10  C8  UNK     1      31.548  -5.317  35.252  1.00  0.00     0.158 C 
HETATM   11  C9  UNK     1      28.491  -6.734  37.977  1.00  0.00     0.018 C 
HETATM   12  C13 UNK     1      27.544  -7.060  39.100  1.00  0.00     0.069 C 
HETATM   13  H8  UNK     1      28.852  -4.901  38.856  1.00  0.00     0.165 HD
ENDROOT
BRANCH   3  14
HETATM   14  C10 UNK     1      28.978  -7.009  34.512  1.00  0.00     0.029 A 
HETATM   15  C11 UNK     1      29.230  -8.044  33.478  1.00  0.00     0.194 A 
HETATM   16  O4  UNK     1      30.023  -8.959  33.653  1.00  0.00    -0.287 OA
HETATM   17  C15 UNK     1      28.469  -7.911  32.222  1.00  0.00     0.049 A 
HETATM   18  C16 UNK     1      27.578  -6.847  32.078  1.00  0.00     0.089 A 
HETATM   19  C17 UNK     1      28.635  -8.836  31.188  1.00  0.00     0.025 A 
HETATM   20  O2  UNK     1      27.375  -5.911  33.061  1.00  0.00    -0.321 OA
HETATM   21  C18 UNK     1      26.848  -6.702  30.898  1.00  0.00     0.039 A 
HETATM   22  C14 UNK     1      28.091  -6.048  34.225  1.00  0.00     0.154 A 
HETATM   23  C21 UNK     1      27.012  -7.624  29.863  1.00  0.00     0.009 A 
HETATM   24  C19 UNK     1      27.903  -8.687  30.008  1.00  0.00    -0.061 A 
HETATM   25  C22 UNK     1      28.074  -9.670  28.898  1.00  0.00     0.048 C 
ENDBRANCH   3  14
BRANCH   8  26
HETATM   26  C12 UNK     1      28.267  -8.920  36.845  1.00  0.00     0.292 C 
HETATM   27  O5  UNK     1      27.095  -9.180  36.648  1.00  0.00    -0.259 OA
BRANCH  26  28
HETATM   28  O3  UNK     1      29.300  -9.780  37.015  1.00  0.00    -0.316 OA
BRANCH  28  29
HETATM   29  C20 UNK     1      29.886  -9.774  38.321  1.00  0.00     0.205 C 
BRANCH  29  30
HETATM   30  C23 UNK     1      31.396  -9.716  38.187  1.00  0.00     0.202 C 
BRANCH  30  31
HETATM   31  O6  UNK     1      31.833  -8.387  38.438  1.00  0.00    -0.349 OA
BRANCH  31  32
HETATM   32  C24 UNK     1      32.824  -7.899  37.627  1.00  0.00     0.068 A 
HETATM   33  C25 UNK     1      33.568  -6.798  38.036  1.00  0.00     0.037 A 
HETATM   34  C27 UNK     1      34.576  -6.301  37.210  1.00  0.00     0.003 A 
HETATM   35  C29 UNK     1      34.835  -6.908  35.981  1.00  0.00     0.000 A 
HETATM   36  C28 UNK     1      34.083  -8.012  35.578  1.00  0.00     0.003 A 
HETATM   37  C26 UNK     1      33.075  -8.510  36.404  1.00  0.00     0.037 A 
ENDBRANCH  31  32
ENDBRANCH  30  31
ENDBRANCH  29  30
ENDBRANCH  28  29
ENDBRANCH  26  28
ENDBRANCH   8  26
TORSDOF 7
ENDMDL
MODEL 5
REMARK VINA RESULT:      -8.1      3.325      6.389
REMARK  7 active torsions:
REMARK  status: ('A' for Active; 'I' for Inactive)
REMARK    1  A    between atoms: C12_19  and  O3_3 
REMARK    2  A    between atoms: C20_27  and  O3_3 
REMARK    3  A    between atoms: C23_30  and  O6_6 
REMARK    4  A    between atoms: C24_31  and  O6_6 
REMARK    5  A    between atoms: C1_8  and  C10_17 
REMARK    6  A    between atoms: C12_19  and  C6_13 
REMARK    7  A    between atoms: C20_27  and  C23_30 
ROOT
HETATM    1  O1  UNK     1      32.415  -6.624  34.117  1.00  0.00    -0.293 OA
HETATM    2  N1  UNK     1      29.958  -5.527  38.016  1.00  0.00    -0.362 N 
HETATM    3  C1  UNK     1      30.204  -7.324  35.833  1.00  0.00     0.104 C 
HETATM    4  C2  UNK     1      31.081  -6.088  36.006  1.00  0.00     0.024 C 
HETATM    5  C3  UNK     1      30.909  -5.251  37.052  1.00  0.00     0.020 C 
HETATM    6  C4  UNK     1      31.712  -3.992  37.245  1.00  0.00     0.058 C 
HETATM    7  C5  UNK     1      32.347  -3.510  35.946  1.00  0.00     0.014 C 
HETATM    8  C6  UNK     1      29.303  -7.583  37.043  1.00  0.00     0.052 C 
HETATM    9  C7  UNK     1      33.090  -4.640  35.257  1.00  0.00     0.084 C 
HETATM   10  C8  UNK     1      32.193  -5.837  35.037  1.00  0.00     0.158 C 
HETATM   11  C9  UNK     1      29.197  -6.686  38.050  1.00  0.00     0.018 C 
HETATM   12  C13 UNK     1      28.305  -6.823  39.254  1.00  0.00     0.069 C 
HETATM   13  H8  UNK     1      29.861  -4.876  38.787  1.00  0.00     0.165 HD
ENDROOT
BRANCH   3  14
HETATM   14  C10 UNK     1      29.375  -7.202  34.583  1.00  0.00     0.029 A 
HETATM   15  C11 UNK     1      29.532  -8.232  33.526  1.00  0.00     0.194 A 
HETATM   16  O4  UNK     1      30.311  -9.169  33.640  1.00  0.00    -0.287 OA
HETATM   17  C15 UNK     1      28.696  -8.067  32.323  1.00  0.00     0.049 A 
HETATM   18  C16 UNK     1      27.825  -6.979  32.247  1.00  0.00     0.089 A 
HETATM   19  C17 UNK     1      28.770  -8.984  31.271  1.00  0.00     0.025 A 
HETATM   20  O2  UNK     1      27.710  -6.049  33.249  1.00  0.00    -0.321 OA
HETATM   21  C18 UNK     1      27.024  -6.802  31.117  1.00  0.00     0.039 A 
HETATM   22  C14 UNK     1      28.496  -6.216  34.363  1.00  0.00     0.154 A 
HETATM   23  C21 UNK     1      27.096  -7.717  30.066  1.00  0.00     0.009 A 
HETATM   24  C19 UNK     1      27.967  -8.804  30.143  1.00  0.00    -0.061 A 
HETATM   25  C22 UNK     1      28.041  -9.779  29.016  1.00  0.00     0.048 C 
ENDBRANCH   3  14
BRANCH   8  26
HETATM   26  C12 UNK     1      28.602  -8.877  37.073  1.00  0.00     0.292 C 
HETATM   27  O5  UNK     1      29.124  -9.912  37.442  1.00  0.00    -0.259 OA
BRANCH  26  28
HETATM   28  O3  UNK     1      27.335  -8.687  36.633  1.00  0.00    -0.316 OA
BRANCH  28  29
HETATM   29  C20 UNK     1      26.342  -9.488  37.281  1.00  0.00     0.205 C 
BRANCH  29  30
HETATM   30  C23 UNK     1      25.306  -8.577  37.914  1.00  0.00     0.202 C 
BRANCH  30  31
HETATM   31  O6  UNK     1      24.096  -8.664  37.172  1.00  0.00    -0.349 OA
BRANCH  31  32
HETATM   32  C24 UNK     1      22.951  -8.265  37.810  1.00  0.00     0.068 A 
HETATM   33  C25 UNK     1      22.975  -8.025  39.179  1.00  0.00     0.037 A 
HETATM   34  C27 UNK     1      21.808  -7.619  39.829  1.00  0.00     0.003 A 
HETATM   35  C29 UNK     1      20.627  -7.456  39.105  1.00  0.00     0.000 A 
HETATM   36  C28 UNK     1      20.612  -7.700  37.732  1.00  0.00     0.003 A 
HETATM   37  C26 UNK     1      21.778  -8.105  37.082  1.00  0.00     0.037 A 
ENDBRANCH  31  32
ENDBRANCH  30  31
ENDBRANCH  29  30
ENDBRANCH  28  29
ENDBRANCH  26  28
ENDBRANCH   8  26
TORSDOF 7
ENDMDL
MODEL 6
REMARK VINA RESULT:      -8.0      2.167      5.350
REMARK  7 active torsions:
REMARK  status: ('A' for Active; 'I' for Inactive)
REMARK    1  A    between atoms: C12_19  and  O3_3 
REMARK    2  A    between atoms: C20_27  and  O3_3 
REMARK    3  A    between atoms: C23_30  and  O6_6 
REMARK    4  A    between atoms: C24_31  and  O6_6 
REMARK    5  A    between atoms: C1_8  and  C10_17 
REMARK    6  A    between atoms: C12_19  and  C6_13 
REMARK    7  A    between atoms: C20_27  and  C23_30 
ROOT
HETATM    1  O1  UNK     1      27.987  -8.597  32.618  1.00  0.00    -0.293 OA
HETATM    2  N1  UNK     1      32.170  -6.587  31.666  1.00  0.00    -0.362 N 
HETATM    3  C1  UNK     1      30.746  -8.314  33.411  1.00  0.00     0.104 C 
HETATM    4  C2  UNK     1      30.091  -7.559  32.258  1.00  0.00     0.024 C 
HETATM    5  C3  UNK     1      30.809  -6.730  31.470  1.00  0.00     0.020 C 
HETATM    6  C4  UNK     1      30.204  -5.923  30.352  1.00  0.00     0.058 C 
HETATM    7  C5  UNK     1      28.700  -5.747  30.517  1.00  0.00     0.014 C 
HETATM    8  C6  UNK     1      32.270  -8.177  33.416  1.00  0.00     0.052 C 
HETATM    9  C7  UNK     1      28.025  -7.081  30.776  1.00  0.00     0.084 C 
HETATM   10  C8  UNK     1      28.644  -7.793  31.958  1.00  0.00     0.158 C 
HETATM   11  C9  UNK     1      32.906  -7.321  32.582  1.00  0.00     0.018 C 
HETATM   12  C13 UNK     1      34.390  -7.077  32.544  1.00  0.00     0.069 C 
HETATM   13  H8  UNK     1      32.673  -5.957  31.051  1.00  0.00     0.165 HD
ENDROOT
BRANCH   3  14
HETATM   14  C10 UNK     1      30.177  -7.853  34.725  1.00  0.00     0.029 A 
HETATM   15  C11 UNK     1      29.634  -8.871  35.659  1.00  0.00     0.194 A 
HETATM   16  O4  UNK     1      29.635 -10.065  35.392  1.00  0.00    -0.287 OA
HETATM   17  C15 UNK     1      29.090  -8.366  36.933  1.00  0.00     0.049 A 
HETATM   18  C16 UNK     1      29.116  -6.993  37.184  1.00  0.00     0.089 A 
HETATM   19  C17 UNK     1      28.557  -9.245  37.879  1.00  0.00     0.025 A 
HETATM   20  O2  UNK     1      29.628  -6.085  36.292  1.00  0.00    -0.321 OA
HETATM   21  C18 UNK     1      28.606  -6.493  38.383  1.00  0.00     0.039 A 
HETATM   22  C14 UNK     1      30.130  -6.571  35.110  1.00  0.00     0.154 A 
HETATM   23  C21 UNK     1      28.073  -7.369  39.329  1.00  0.00     0.009 A 
HETATM   24  C19 UNK     1      28.048  -8.741  39.077  1.00  0.00    -0.061 A 
HETATM   25  C22 UNK     1      27.476  -9.672  40.092  1.00  0.00     0.048 C 
ENDBRANCH   3  14
BRANCH   8  26
HETATM   26  C12 UNK     1      33.005  -9.059  34.338  1.00  0.00     0.292 C 
HETATM   27  O5  UNK     1      33.586  -8.657  35.329  1.00  0.00    -0.259 OA
BRANCH  26  28
HETATM   28  O3  UNK     1      32.905 -10.331  33.881  1.00  0.00    -0.316 OA
BRANCH  28  29
HETATM   29  C20 UNK     1      33.977 -10.757  33.034  1.00  0.00     0.205 C 
BRANCH  29  30
HETATM   30  C23 UNK     1      33.404 -11.239  31.715  1.00  0.00     0.202 C 
BRANCH  30  31
HETATM   31  O6  UNK     1      33.569 -10.219  30.737  1.00  0.00    -0.349 OA
BRANCH  31  32
HETATM   32  C24 UNK     1      32.461  -9.880  30.006  1.00  0.00     0.068 A 
HETATM   33  C25 UNK     1      31.244 -10.494  30.278  1.00  0.00     0.037 A 
HETATM   34  C27 UNK     1      30.115 -10.150  29.533  1.00  0.00     0.003 A 
HETATM   35  C29 UNK     1      30.212  -9.194  28.522  1.00  0.00     0.000 A 
HETATM   36  C28 UNK     1      31.437  -8.583  28.256  1.00  0.00     0.003 A 
HETATM   37  C26 UNK     1      32.565  -8.927  29.000  1.00  0.00     0.037 A 
ENDBRANCH  31  32
ENDBRANCH  30  31
ENDBRANCH  29  30
ENDBRANCH  28  29
ENDBRANCH  26  28
ENDBRANCH   8  26
TORSDOF 7
ENDMDL
MODEL 7
REMARK VINA RESULT:      -8.0      1.675      2.425
REMARK  7 active torsions:
REMARK  status: ('A' for Active; 'I' for Inactive)
REMARK    1  A    between atoms: C12_19  and  O3_3 
REMARK    2  A    between atoms: C20_27  and  O3_3 
REMARK    3  A    between atoms: C23_30  and  O6_6 
REMARK    4  A    between atoms: C24_31  and  O6_6 
REMARK    5  A    between atoms: C1_8  and  C10_17 
REMARK    6  A    between atoms: C12_19  and  C6_13 
REMARK    7  A    between atoms: C20_27  and  C23_30 
ROOT
HETATM    1  O1  UNK     1      31.865  -4.592  36.138  1.00  0.00    -0.293 OA
HETATM    2  N1  UNK     1      29.048  -7.429  38.680  1.00  0.00    -0.362 N 
HETATM    3  C1  UNK     1      30.680  -7.213  36.369  1.00  0.00     0.104 C 
HETATM    4  C2  UNK     1      30.397  -6.045  37.309  1.00  0.00     0.024 C 
HETATM    5  C3  UNK     1      29.593  -6.194  38.384  1.00  0.00     0.020 C 
HETATM    6  C4  UNK     1      29.240  -5.064  39.315  1.00  0.00     0.058 C 
HETATM    7  C5  UNK     1      29.448  -3.700  38.670  1.00  0.00     0.014 C 
HETATM    8  C6  UNK     1      30.136  -8.542  36.897  1.00  0.00     0.052 C 
HETATM    9  C7  UNK     1      30.827  -3.602  38.045  1.00  0.00     0.084 C 
HETATM   10  C8  UNK     1      31.074  -4.732  37.070  1.00  0.00     0.158 C 
HETATM   11  C9  UNK     1      29.340  -8.595  37.990  1.00  0.00     0.018 C 
HETATM   12  C13 UNK     1      28.715  -9.840  38.559  1.00  0.00     0.069 C 
HETATM   13  H8  UNK     1      28.452  -7.500  39.498  1.00  0.00     0.165 HD
ENDROOT
BRANCH   3  14
HETATM   14  C10 UNK     1      30.119  -6.928  35.002  1.00  0.00     0.029 A 
HETATM   15  C11 UNK     1      31.029  -7.007  33.832  1.00  0.00     0.194 A 
HETATM   16  O4  UNK     1      32.213  -7.295  33.946  1.00  0.00    -0.287 OA
HETATM   17  C15 UNK     1      30.429  -6.720  32.516  1.00  0.00     0.049 A 
HETATM   18  C16 UNK     1      29.073  -6.398  32.445  1.00  0.00     0.089 A 
HETATM   19  C17 UNK     1      31.203  -6.770  31.354  1.00  0.00     0.025 A 
HETATM   20  O2  UNK     1      28.266  -6.337  33.553  1.00  0.00    -0.321 OA
HETATM   21  C18 UNK     1      28.484  -6.123  31.210  1.00  0.00     0.039 A 
HETATM   22  C14 UNK     1      28.840  -6.605  34.771  1.00  0.00     0.154 A 
HETATM   23  C21 UNK     1      29.254  -6.172  30.048  1.00  0.00     0.009 A 
HETATM   24  C19 UNK     1      30.610  -6.494  30.120  1.00  0.00    -0.061 A 
HETATM   25  C22 UNK     1      31.429  -6.544  28.874  1.00  0.00     0.048 C 
ENDBRANCH   3  14
BRANCH   8  26
HETATM   26  C12 UNK     1      30.567  -9.756  36.186  1.00  0.00     0.292 C 
HETATM   27  O5  UNK     1      31.562 -10.390  36.485  1.00  0.00    -0.259 OA
BRANCH  26  28
HETATM   28  O3  UNK     1      29.680 -10.006  35.192  1.00  0.00    -0.316 OA
BRANCH  28  29
HETATM   29  C20 UNK     1      30.189 -10.790  34.109  1.00  0.00     0.205 C 
BRANCH  29  30
HETATM   30  C23 UNK     1      29.471 -10.395  32.832  1.00  0.00     0.202 C 
BRANCH  30  31
HETATM   31  O6  UNK     1      30.434 -10.137  31.818  1.00  0.00    -0.349 OA
BRANCH  31  32
HETATM   32  C24 UNK     1      29.966 -10.030  30.535  1.00  0.00     0.068 A 
HETATM   33  C25 UNK     1      30.815 -10.306  29.469  1.00  0.00     0.037 A 
HETATM   34  C27 UNK     1      30.339 -10.196  28.162  1.00  0.00     0.003 A 
HETATM   35  C29 UNK     1      29.018  -9.813  27.930  1.00  0.00     0.000 A 
HETATM   36  C28 UNK     1      28.174  -9.538  29.005  1.00  0.00     0.003 A 
HETATM   37  C26 UNK     1      28.649  -9.647  30.312  1.00  0.00     0.037 A 
ENDBRANCH  31  32
ENDBRANCH  30  31
ENDBRANCH  29  30
ENDBRANCH  28  29
ENDBRANCH  26  28
ENDBRANCH   8  26
TORSDOF 7
ENDMDL
MODEL 8
REMARK VINA RESULT:      -7.9      3.168      6.465
REMARK  7 active torsions:
REMARK  status: ('A' for Active; 'I' for Inactive)
REMARK    1  A    between atoms: C12_19  and  O3_3 
REMARK    2  A    between atoms: C20_27  and  O3_3 
REMARK    3  A    between atoms: C23_30  and  O6_6 
REMARK    4  A    between atoms: C24_31  and  O6_6 
REMARK    5  A    between atoms: C1_8  and  C10_17 
REMARK    6  A    between atoms: C12_19  and  C6_13 
REMARK    7  A    between atoms: C20_27  and  C23_30 
ROOT
HETATM    1  O1  UNK     1      32.871  -8.669  35.209  1.00  0.00    -0.293 OA
HETATM    2  N1  UNK     1      31.207  -5.389  38.196  1.00  0.00    -0.362 N 
HETATM    3  C1  UNK     1      30.528  -7.370  36.280  1.00  0.00     0.104 C 
HETATM    4  C2  UNK     1      31.966  -6.985  36.616  1.00  0.00     0.024 C 
HETATM    5  C3  UNK     1      32.236  -6.019  37.520  1.00  0.00     0.020 C 
HETATM    6  C4  UNK     1      33.633  -5.565  37.853  1.00  0.00     0.058 C 
HETATM    7  C5  UNK     1      34.629  -5.920  36.757  1.00  0.00     0.014 C 
HETATM    8  C6  UNK     1      29.506  -6.702  37.203  1.00  0.00     0.052 C 
HETATM    9  C7  UNK     1      34.510  -7.383  36.371  1.00  0.00     0.084 C 
HETATM   10  C8  UNK     1      33.093  -7.738  35.982  1.00  0.00     0.158 C 
HETATM   11  C9  UNK     1      29.872  -5.744  38.086  1.00  0.00     0.018 C 
HETATM   12  C13 UNK     1      28.940  -4.994  38.999  1.00  0.00     0.069 C 
HETATM   13  H8  UNK     1      31.452  -4.671  38.869  1.00  0.00     0.165 HD
ENDROOT
BRANCH   3  14
HETATM   14  C10 UNK     1      30.224  -7.040  34.843  1.00  0.00     0.029 A 
HETATM   15  C11 UNK     1      29.568  -8.073  34.002  1.00  0.00     0.194 A 
HETATM   16  O4  UNK     1      29.271  -9.176  34.441  1.00  0.00    -0.287 OA
HETATM   17  C15 UNK     1      29.292  -7.698  32.603  1.00  0.00     0.049 A 
HETATM   18  C16 UNK     1      29.653  -6.425  32.158  1.00  0.00     0.089 A 
HETATM   19  C17 UNK     1      28.677  -8.600  31.732  1.00  0.00     0.025 A 
HETATM   20  O2  UNK     1      30.258  -5.499  32.970  1.00  0.00    -0.321 OA
HETATM   21  C18 UNK     1      29.401  -6.050  30.838  1.00  0.00     0.039 A 
HETATM   22  C14 UNK     1      30.509  -5.864  34.270  1.00  0.00     0.154 A 
HETATM   23  C21 UNK     1      28.787  -6.949  29.966  1.00  0.00     0.009 A 
HETATM   24  C19 UNK     1      28.427  -8.221  30.412  1.00  0.00    -0.061 A 
HETATM   25  C22 UNK     1      27.771  -9.179  29.475  1.00  0.00     0.048 C 
ENDBRANCH   3  14
BRANCH   8  26
HETATM   26  C12 UNK     1      28.122  -7.195  37.114  1.00  0.00     0.292 C 
HETATM   27  O5  UNK     1      27.269  -6.672  36.422  1.00  0.00    -0.259 OA
BRANCH  26  28
HETATM   28  O3  UNK     1      28.004  -8.283  37.913  1.00  0.00    -0.316 OA
BRANCH  28  29
HETATM   29  C20 UNK     1      27.116  -8.125  39.024  1.00  0.00     0.205 C 
BRANCH  29  30
HETATM   30  C23 UNK     1      25.735  -8.613  38.627  1.00  0.00     0.202 C 
BRANCH  30  31
HETATM   31  O6  UNK     1      24.828  -7.518  38.661  1.00  0.00    -0.349 OA
BRANCH  31  32
HETATM   32  C24 UNK     1      23.492  -7.822  38.638  1.00  0.00     0.068 A 
HETATM   33  C25 UNK     1      22.660  -7.341  39.642  1.00  0.00     0.037 A 
HETATM   34  C27 UNK     1      21.300  -7.652  39.620  1.00  0.00     0.003 A 
HETATM   35  C29 UNK     1      20.781  -8.440  38.592  1.00  0.00     0.000 A 
HETATM   36  C28 UNK     1      21.624  -8.918  37.589  1.00  0.00     0.003 A 
HETATM   37  C26 UNK     1      22.983  -8.608  37.611  1.00  0.00     0.037 A 
ENDBRANCH  31  32
ENDBRANCH  30  31
ENDBRANCH  29  30
ENDBRANCH  28  29
ENDBRANCH  26  28
ENDBRANCH   8  26
TORSDOF 7
ENDMDL
MODEL 9
REMARK VINA RESULT:      -7.9      2.395      6.802
REMARK  7 active torsions:
REMARK  status: ('A' for Active; 'I' for Inactive)
REMARK    1  A    between atoms: C12_19  and  O3_3 
REMARK    2  A    between atoms: C20_27  and  O3_3 
REMARK    3  A    between atoms: C23_30  and  O6_6 
REMARK    4  A    between atoms: C24_31  and  O6_6 
REMARK    5  A    between atoms: C1_8  and  C10_17 
REMARK    6  A    between atoms: C12_19  and  C6_13 
REMARK    7  A    between atoms: C20_27  and  C23_30 
ROOT
HETATM    1  O1  UNK     1      29.821  -6.771  30.734  1.00  0.00    -0.293 OA
HETATM    2  N1  UNK     1      31.047 -11.330  31.130  1.00  0.00    -0.362 N 
HETATM    3  C1  UNK     1      30.472  -8.931  32.532  1.00  0.00     0.104 C 
HETATM    4  C2  UNK     1      30.522  -9.022  31.010  1.00  0.00     0.024 C 
HETATM    5  C3  UNK     1      30.823 -10.184  30.391  1.00  0.00     0.020 C 
HETATM    6  C4  UNK     1      30.935 -10.318  28.895  1.00  0.00     0.058 C 
HETATM    7  C5  UNK     1      31.172  -8.977  28.213  1.00  0.00     0.014 C 
HETATM    8  C6  UNK     1      30.592 -10.298  33.211  1.00  0.00     0.052 C 
HETATM    9  C7  UNK     1      30.165  -7.945  28.685  1.00  0.00     0.084 C 
HETATM   10  C8  UNK     1      30.167  -7.820  30.192  1.00  0.00     0.158 C 
HETATM   11  C9  UNK     1      30.893 -11.413  32.505  1.00  0.00     0.018 C 
HETATM   12  C13 UNK     1      31.082 -12.789  33.082  1.00  0.00     0.069 C 
HETATM   13  H8  UNK     1      31.267 -12.183  30.626  1.00  0.00     0.165 HD
ENDROOT
BRANCH   3  14
HETATM   14  C10 UNK     1      31.548  -8.005  33.034  1.00  0.00     0.029 A 
HETATM   15  C11 UNK     1      31.145  -6.807  33.811  1.00  0.00     0.194 A 
HETATM   16  O4  UNK     1      29.973  -6.551  34.053  1.00  0.00    -0.287 OA
HETATM   17  C15 UNK     1      32.238  -5.934  34.279  1.00  0.00     0.049 A 
HETATM   18  C16 UNK     1      33.556  -6.275  33.973  1.00  0.00     0.089 A 
HETATM   19  C17 UNK     1      31.962  -4.781  35.019  1.00  0.00     0.025 A 
HETATM   20  O2  UNK     1      33.885  -7.395  33.251  1.00  0.00    -0.321 OA
HETATM   21  C18 UNK     1      34.606  -5.463  34.406  1.00  0.00     0.039 A 
HETATM   22  C14 UNK     1      32.856  -8.197  32.822  1.00  0.00     0.154 A 
HETATM   23  C21 UNK     1      34.333  -4.312  35.145  1.00  0.00     0.009 A 
HETATM   24  C19 UNK     1      33.015  -3.972  35.450  1.00  0.00    -0.061 A 
HETATM   25  C22 UNK     1      32.729  -2.739  36.241  1.00  0.00     0.048 C 
ENDBRANCH   3  14
BRANCH   8  26
HETATM   26  C12 UNK     1      30.314 -10.340  34.655  1.00  0.00     0.292 C 
HETATM   27  O5  UNK     1      29.211 -10.141  35.130  1.00  0.00    -0.259 OA
BRANCH  26  28
HETATM   28  O3  UNK     1      31.468 -10.628  35.304  1.00  0.00    -0.316 OA
BRANCH  28  29
HETATM   29  C20 UNK     1      31.526 -10.183  36.663  1.00  0.00     0.205 C 
BRANCH  29  30
HETATM   30  C23 UNK     1      32.232  -8.841  36.715  1.00  0.00     0.202 C 
BRANCH  30  31
HETATM   31  O6  UNK     1      31.997  -8.242  37.983  1.00  0.00    -0.349 OA
BRANCH  31  32
HETATM   32  C24 UNK     1      31.233  -7.105  37.996  1.00  0.00     0.068 A 
HETATM   33  C25 UNK     1      29.950  -7.134  37.460  1.00  0.00     0.037 A 
HETATM   34  C27 UNK     1      29.172  -5.975  37.472  1.00  0.00     0.003 A 
HETATM   35  C29 UNK     1      29.680  -4.798  38.020  1.00  0.00     0.000 A 
HETATM   36  C28 UNK     1      30.968  -4.779  38.555  1.00  0.00     0.003 A 
HETATM   37  C26 UNK     1      31.747  -5.936  38.544  1.00  0.00     0.037 A 
ENDBRANCH  31  32
ENDBRANCH  30  31
ENDBRANCH  29  30
ENDBRANCH  28  29
ENDBRANCH  26  28
ENDBRANCH   8  26
TORSDOF 7
ENDMDL
MODEL 10
REMARK VINA RESULT:      -7.9      2.308      5.090
REMARK  7 active torsions:
REMARK  status: ('A' for Active; 'I' for Inactive)
REMARK    1  A    between atoms: C12_19  and  O3_3 
REMARK    2  A    between atoms: C20_27  and  O3_3 
REMARK    3  A    between atoms: C23_30  and  O6_6 
REMARK    4  A    between atoms: C24_31  and  O6_6 
REMARK    5  A    between atoms: C1_8  and  C10_17 
REMARK    6  A    between atoms: C12_19  and  C6_13 
REMARK    7  A    between atoms: C20_27  and  C23_30 
ROOT
HETATM    1  O1  UNK     1      31.286  -5.415  36.003  1.00  0.00    -0.293 OA
HETATM    2  N1  UNK     1      34.231  -8.835  34.562  1.00  0.00    -0.362 N 
HETATM    3  C1  UNK     1      31.519  -8.062  34.879  1.00  0.00     0.104 C 
HETATM    4  C2  UNK     1      32.695  -7.209  35.344  1.00  0.00     0.024 C 
HETATM    5  C3  UNK     1      33.968  -7.633  35.191  1.00  0.00     0.020 C 
HETATM    6  C4  UNK     1      35.163  -6.854  35.676  1.00  0.00     0.058 C 
HETATM    7  C5  UNK     1      34.793  -5.846  36.756  1.00  0.00     0.014 C 
HETATM    8  C6  UNK     1      31.960  -9.288  34.075  1.00  0.00     0.052 C 
HETATM    9  C7  UNK     1      33.614  -4.996  36.320  1.00  0.00     0.084 C 
HETATM   10  C8  UNK     1      32.433  -5.852  35.918  1.00  0.00     0.158 C 
HETATM   11  C9  UNK     1      33.264  -9.633  33.971  1.00  0.00     0.018 C 
HETATM   12  C13 UNK     1      33.795 -10.842  33.249  1.00  0.00     0.069 C 
HETATM   13  H8  UNK     1      35.201  -9.116  34.464  1.00  0.00     0.165 HD
ENDROOT
BRANCH   3  14
HETATM   14  C10 UNK     1      30.686  -8.486  36.059  1.00  0.00     0.029 A 
HETATM   15  C11 UNK     1      29.274  -8.033  36.128  1.00  0.00     0.194 A 
HETATM   16  O4  UNK     1      28.772  -7.330  35.260  1.00  0.00    -0.287 OA
HETATM   17  C15 UNK     1      28.502  -8.477  37.303  1.00  0.00     0.049 A 
HETATM   18  C16 UNK     1      29.126  -9.278  38.260  1.00  0.00     0.089 A 
HETATM   19  C17 UNK     1      27.164  -8.105  37.460  1.00  0.00     0.025 A 
HETATM   20  O2  UNK     1      30.435  -9.675  38.157  1.00  0.00    -0.321 OA
HETATM   21  C18 UNK     1      28.414  -9.710  39.381  1.00  0.00     0.039 A 
HETATM   22  C14 UNK     1      31.141  -9.253  37.058  1.00  0.00     0.154 A 
HETATM   23  C21 UNK     1      27.078  -9.339  39.539  1.00  0.00     0.009 A 
HETATM   24  C19 UNK     1      26.456  -8.538  38.581  1.00  0.00    -0.061 A 
HETATM   25  C22 UNK     1      25.027  -8.144  38.756  1.00  0.00     0.048 C 
ENDBRANCH   3  14
BRANCH   8  26
HETATM   26  C12 UNK     1      30.897 -10.034  33.383  1.00  0.00     0.292 C 
HETATM   27  O5  UNK     1      30.354 -11.017  33.854  1.00  0.00    -0.259 OA
BRANCH  26  28
HETATM   28  O3  UNK     1      30.663  -9.438  32.190  1.00  0.00    -0.316 OA
BRANCH  28  29
HETATM   29  C20 UNK     1      30.843 -10.279  31.046  1.00  0.00     0.205 C 
BRANCH  29  30
HETATM   30  C23 UNK     1      31.148  -9.413  29.838  1.00  0.00     0.202 C 
BRANCH  30  31
HETATM   31  O6  UNK     1      29.952  -9.217  29.093  1.00  0.00    -0.349 OA
BRANCH  31  32
HETATM   32  C24 UNK     1      29.059  -8.303  29.587  1.00  0.00     0.068 A 
HETATM   33  C25 UNK     1      29.476  -7.000  29.835  1.00  0.00     0.037 A 
HETATM   34  C27 UNK     1      28.568  -6.069  30.340  1.00  0.00     0.003 A 
HETATM   35  C29 UNK     1      27.249  -6.447  30.593  1.00  0.00     0.000 A 
HETATM   36  C28 UNK     1      26.840  -7.757  30.342  1.00  0.00     0.003 A 
HETATM   37  C26 UNK     1      27.747  -8.688  29.837  1.00  0.00     0.037 A 
ENDBRANCH  31  32
ENDBRANCH  30  31
ENDBRANCH  29  30
ENDBRANCH  28  29
ENDBRANCH  26  28
ENDBRANCH   8  26
TORSDOF 7
ENDMDL
