MODEL 1
REMARK VINA RESULT:      -9.4      0.000      0.000
REMARK  7 active torsions:
REMARK  status: ('A' for Active; 'I' for Inactive)
REMARK    1  A    between atoms: C15_23  and  O3_4 
REMARK    2  A    between atoms: C20_28  and  O3_4 
REMARK    3  A    between atoms: C5_13  and  N1_6 
REMARK    4  A    between atoms: C6_14  and  N2_7 
REMARK    5  A    between atoms: C17_25  and  N3_8 
REMARK       I    between atoms: C9_17  and  N3_8 
REMARK    6  A    between atoms: C5_13  and  C7_15 
REMARK    7  A    between atoms: C6_14  and  C9_17 
ROOT
HETATM    1  N1  UNK     1      19.224  -3.016  36.399  1.00  0.00     0.096 N 
HETATM    2  N2  UNK     1      18.345  -0.380  35.602  1.00  0.00     0.100 N 
HETATM    3  C1  UNK     1      18.641  -2.081  37.369  1.00  0.00     0.303 C 
HETATM    4  C2  UNK     1      19.895  -2.282  35.319  1.00  0.00     0.303 C 
HETATM    5  C3  UNK     1      17.673  -1.113  36.681  1.00  0.00     0.303 C 
HETATM    6  C4  UNK     1      18.926  -1.315  34.631  1.00  0.00     0.303 C 
ENDROOT
BRANCH   1   7
HETATM    7  C5  UNK     1      20.150  -3.936  37.056  1.00  0.00     0.312 C 
BRANCH   7   8
HETATM    8  C7  UNK     1      19.774  -5.360  36.842  1.00  0.00    -0.011 A 
HETATM    9  C10 UNK     1      18.617  -5.691  36.251  1.00  0.00     0.092 A 
HETATM   10  C13 UNK     1      18.202  -7.084  36.019  1.00  0.00     0.288 A 
HETATM   11  O1  UNK     1      19.075  -8.073  36.444  1.00  0.00    -0.275 OA
HETATM   12  O4  UNK     1      17.136  -7.349  35.475  1.00  0.00    -0.260 OA
HETATM   13  C11 UNK     1      20.298  -7.758  37.070  1.00  0.00     0.090 A 
HETATM   14  C8  UNK     1      20.678  -6.432  37.283  1.00  0.00     0.009 A 
HETATM   15  C14 UNK     1      21.098  -8.835  37.458  1.00  0.00     0.041 A 
HETATM   16  C12 UNK     1      21.908  -6.202  37.913  1.00  0.00     0.051 A 
HETATM   17  C15 UNK     1      22.721  -7.271  38.308  1.00  0.00     0.069 A 
HETATM   18  C16 UNK     1      22.316  -8.584  38.081  1.00  0.00     0.039 A 
BRANCH  17  19
HETATM   19  O3  UNK     1      23.913  -7.026  38.918  1.00  0.00    -0.351 OA
BRANCH  19  20
HETATM   20  C20 UNK     1      24.876  -8.078  38.906  1.00  0.00     0.171 C 
HETATM   21  C24 UNK     1      26.241  -7.494  38.607  1.00  0.00     0.034 C 
ENDBRANCH  19  20
ENDBRANCH  17  19
ENDBRANCH   7   8
ENDBRANCH   1   7
BRANCH   2  22
HETATM   22  C6  UNK     1      17.420   0.542  34.945  1.00  0.00     0.375 C 
BRANCH  22  23
HETATM   23  C9  UNK     1      18.190   1.738  34.414  1.00  0.00     0.250 C 
HETATM   24  O2  UNK     1      19.117   2.255  35.030  1.00  0.00    -0.271 OA
HETATM   25  N3  UNK     1      17.692   2.118  33.170  1.00  0.00    -0.326 N 
HETATM   26  H15 UNK     1      16.920   1.579  32.784  1.00  0.00     0.169 HD
BRANCH  25  27
HETATM   27  C17 UNK     1      18.137   3.182  32.350  1.00  0.00     0.035 A 
HETATM   28  C18 UNK     1      18.469   2.943  31.015  1.00  0.00     0.032 A 
HETATM   29  C21 UNK     1      18.908   3.991  30.207  1.00  0.00     0.044 A 
HETATM   30  C23 UNK     1      19.015   5.279  30.732  1.00  0.00     0.116 A 
HETATM   31  C22 UNK     1      18.683   5.518  32.066  1.00  0.00     0.044 A 
HETATM   32  F1  UNK     1      19.438   6.286  29.957  1.00  0.00    -0.206 F 
HETATM   33  C19 UNK     1      18.244   4.470  32.874  1.00  0.00     0.032 A 
ENDBRANCH  25  27
ENDBRANCH  22  23
ENDBRANCH   2  22
TORSDOF 7
ENDMDL
MODEL 2
REMARK VINA RESULT:      -9.1      6.044      8.735
REMARK  7 active torsions:
REMARK  status: ('A' for Active; 'I' for Inactive)
REMARK    1  A    between atoms: C15_23  and  O3_4 
REMARK    2  A    between atoms: C20_28  and  O3_4 
REMARK    3  A    between atoms: C5_13  and  N1_6 
REMARK    4  A    between atoms: C6_14  and  N2_7 
REMARK    5  A    between atoms: C17_25  and  N3_8 
REMARK       I    between atoms: C9_17  and  N3_8 
REMARK    6  A    between atoms: C5_13  and  C7_15 
REMARK    7  A    between atoms: C6_14  and  C9_17 
ROOT
HETATM    1  N1  UNK     1      18.884   3.638  31.322  1.00  0.00     0.096 N 
HETATM    2  N2  UNK     1      19.218   6.303  32.391  1.00  0.00     0.100 N 
HETATM    3  C1  UNK     1      19.325   4.751  30.472  1.00  0.00     0.303 C 
HETATM    4  C2  UNK     1      18.040   4.132  32.417  1.00  0.00     0.303 C 
HETATM    5  C3  UNK     1      20.064   5.810  31.298  1.00  0.00     0.303 C 
HETATM    6  C4  UNK     1      18.780   5.191  33.243  1.00  0.00     0.303 C 
ENDROOT
BRANCH   1   7
HETATM    7  C5  UNK     1      18.177   2.631  30.534  1.00  0.00     0.312 C 
BRANCH   7   8
HETATM    8  C7  UNK     1      18.906   1.333  30.496  1.00  0.00    -0.011 A 
HETATM    9  C10 UNK     1      19.548   0.931  29.390  1.00  0.00     0.092 A 
HETATM   10  C13 UNK     1      20.280  -0.344  29.305  1.00  0.00     0.288 A 
HETATM   11  O1  UNK     1      20.284  -1.137  30.443  1.00  0.00    -0.275 OA
HETATM   12  O4  UNK     1      20.856  -0.680  28.276  1.00  0.00    -0.260 OA
HETATM   13  C11 UNK     1      19.618  -0.742  31.620  1.00  0.00     0.090 A 
HETATM   14  C8  UNK     1      18.928   0.470  31.685  1.00  0.00     0.009 A 
HETATM   15  C14 UNK     1      19.688  -1.620  32.703  1.00  0.00     0.041 A 
HETATM   16  C12 UNK     1      18.290   0.789  32.891  1.00  0.00     0.051 A 
HETATM   17  C15 UNK     1      18.351  -0.081  33.986  1.00  0.00     0.069 A 
HETATM   18  C16 UNK     1      19.049  -1.283  33.891  1.00  0.00     0.039 A 
BRANCH  17  19
HETATM   19  O3  UNK     1      17.725   0.249  35.149  1.00  0.00    -0.351 OA
BRANCH  19  20
HETATM   20  C20 UNK     1      18.351   1.238  35.965  1.00  0.00     0.171 C 
HETATM   21  C24 UNK     1      17.689   1.245  37.326  1.00  0.00     0.034 C 
ENDBRANCH  19  20
ENDBRANCH  17  19
ENDBRANCH   7   8
ENDBRANCH   1   7
BRANCH   2  22
HETATM   22  C6  UNK     1      19.924   7.312  33.179  1.00  0.00     0.375 C 
BRANCH  22  23
HETATM   23  C9  UNK     1      18.946   7.997  34.117  1.00  0.00     0.250 C 
HETATM   24  O2  UNK     1      19.075   7.980  35.336  1.00  0.00    -0.271 OA
HETATM   25  N3  UNK     1      17.935   8.620  33.387  1.00  0.00    -0.326 N 
HETATM   26  H15 UNK     1      17.972   8.551  32.372  1.00  0.00     0.169 HD
BRANCH  25  27
HETATM   27  C17 UNK     1      16.838   9.360  33.889  1.00  0.00     0.035 A 
HETATM   28  C18 UNK     1      16.996  10.709  34.211  1.00  0.00     0.032 A 
HETATM   29  C21 UNK     1      15.915  11.438  34.706  1.00  0.00     0.044 A 
HETATM   30  C23 UNK     1      14.677  10.820  34.879  1.00  0.00     0.116 A 
HETATM   31  C22 UNK     1      14.520   9.472  34.557  1.00  0.00     0.044 A 
HETATM   32  F1  UNK     1      13.639  11.520  35.356  1.00  0.00    -0.206 F 
HETATM   33  C19 UNK     1      15.600   8.742  34.062  1.00  0.00     0.032 A 
ENDBRANCH  25  27
ENDBRANCH  22  23
ENDBRANCH   2  22
TORSDOF 7
ENDMDL
MODEL 3
REMARK VINA RESULT:      -8.7      7.369     13.778
REMARK  7 active torsions:
REMARK  status: ('A' for Active; 'I' for Inactive)
REMARK    1  A    between atoms: C15_23  and  O3_4 
REMARK    2  A    between atoms: C20_28  and  O3_4 
REMARK    3  A    between atoms: C5_13  and  N1_6 
REMARK    4  A    between atoms: C6_14  and  N2_7 
REMARK    5  A    between atoms: C17_25  and  N3_8 
REMARK       I    between atoms: C9_17  and  N3_8 
REMARK    6  A    between atoms: C5_13  and  C7_15 
REMARK    7  A    between atoms: C6_14  and  C9_17 
ROOT
HETATM    1  N1  UNK     1      18.561   6.815  33.153  1.00  0.00     0.096 N 
HETATM    2  N2  UNK     1      18.200   4.988  30.942  1.00  0.00     0.100 N 
HETATM    3  C1  UNK     1      18.308   5.387  33.378  1.00  0.00     0.303 C 
HETATM    4  C2  UNK     1      17.946   7.253  31.894  1.00  0.00     0.303 C 
HETATM    5  C3  UNK     1      18.817   4.550  32.199  1.00  0.00     0.303 C 
HETATM    6  C4  UNK     1      18.455   6.416  30.716  1.00  0.00     0.303 C 
ENDROOT
BRANCH   1   7
HETATM    7  C5  UNK     1      18.073   7.613  34.275  1.00  0.00     0.312 C 
BRANCH   7   8
HETATM    8  C7  UNK     1      16.683   8.099  34.057  1.00  0.00    -0.011 A 
HETATM    9  C10 UNK     1      15.670   7.241  33.866  1.00  0.00     0.092 A 
HETATM   10  C13 UNK     1      14.280   7.674  33.645  1.00  0.00     0.288 A 
HETATM   11  O1  UNK     1      14.047   9.041  33.643  1.00  0.00    -0.275 OA
HETATM   12  O4  UNK     1      13.379   6.860  33.475  1.00  0.00    -0.260 OA
HETATM   13  C11 UNK     1      15.090   9.967  33.839  1.00  0.00     0.090 A 
HETATM   14  C8  UNK     1      16.403   9.542  34.047  1.00  0.00     0.009 A 
HETATM   15  C14 UNK     1      14.739  11.319  33.814  1.00  0.00     0.041 A 
HETATM   16  C12 UNK     1      17.383  10.526  34.232  1.00  0.00     0.051 A 
HETATM   17  C15 UNK     1      17.047  11.884  34.210  1.00  0.00     0.069 A 
HETATM   18  C16 UNK     1      15.728  12.279  34.002  1.00  0.00     0.039 A 
BRANCH  17  19
HETATM   19  O3  UNK     1      18.015  12.824  34.394  1.00  0.00    -0.351 OA
BRANCH  19  20
HETATM   20  C20 UNK     1      17.863  14.056  33.691  1.00  0.00     0.171 C 
HETATM   21  C24 UNK     1      18.863  14.101  32.554  1.00  0.00     0.034 C 
ENDBRANCH  19  20
ENDBRANCH  17  19
ENDBRANCH   7   8
ENDBRANCH   1   7
BRANCH   2  22
HETATM   22  C6  UNK     1      18.687   4.189  29.818  1.00  0.00     0.375 C 
BRANCH  22  23
HETATM   23  C9  UNK     1      18.461   2.716  30.110  1.00  0.00     0.250 C 
HETATM   24  O2  UNK     1      17.354   2.255  30.369  1.00  0.00    -0.271 OA
HETATM   25  N3  UNK     1      19.664   2.018  30.027  1.00  0.00    -0.326 N 
HETATM   26  H15 UNK     1      20.502   2.545  29.789  1.00  0.00     0.169 HD
BRANCH  25  27
HETATM   27  C17 UNK     1      19.875   0.633  30.229  1.00  0.00     0.035 A 
HETATM   28  C18 UNK     1      19.568   0.054  31.461  1.00  0.00     0.032 A 
HETATM   29  C21 UNK     1      19.775  -1.310  31.661  1.00  0.00     0.044 A 
HETATM   30  C23 UNK     1      20.288  -2.096  30.629  1.00  0.00     0.116 A 
HETATM   31  C22 UNK     1      20.594  -1.517  29.398  1.00  0.00     0.044 A 
HETATM   32  F1  UNK     1      20.488  -3.407  30.821  1.00  0.00    -0.206 F 
HETATM   33  C19 UNK     1      20.388  -0.152  29.198  1.00  0.00     0.032 A 
ENDBRANCH  25  27
ENDBRANCH  22  23
ENDBRANCH   2  22
TORSDOF 7
ENDMDL
MODEL 4
REMARK VINA RESULT:      -8.6      8.635     12.505
REMARK  7 active torsions:
REMARK  status: ('A' for Active; 'I' for Inactive)
REMARK    1  A    between atoms: C15_23  and  O3_4 
REMARK    2  A    between atoms: C20_28  and  O3_4 
REMARK    3  A    between atoms: C5_13  and  N1_6 
REMARK    4  A    between atoms: C6_14  and  N2_7 
REMARK    5  A    between atoms: C17_25  and  N3_8 
REMARK       I    between atoms: C9_17  and  N3_8 
REMARK    6  A    between atoms: C5_13  and  C7_15 
REMARK    7  A    between atoms: C6_14  and  C9_17 
ROOT
HETATM    1  N1  UNK     1      27.014  -9.479  37.429  1.00  0.00     0.096 N 
HETATM    2  N2  UNK     1      29.869  -9.089  37.667  1.00  0.00     0.100 N 
HETATM    3  C1  UNK     1      27.785  -8.821  36.367  1.00  0.00     0.303 C 
HETATM    4  C2  UNK     1      27.648  -9.257  38.735  1.00  0.00     0.303 C 
HETATM    5  C3  UNK     1      29.237  -9.312  36.362  1.00  0.00     0.303 C 
HETATM    6  C4  UNK     1      29.099  -9.748  38.729  1.00  0.00     0.303 C 
ENDROOT
BRANCH   1   7
HETATM    7  C5  UNK     1      25.631  -9.007  37.436  1.00  0.00     0.312 C 
BRANCH   7   8
HETATM    8  C7  UNK     1      24.710  -9.958  36.754  1.00  0.00    -0.011 A 
HETATM    9  C10 UNK     1      25.144 -11.148  36.314  1.00  0.00     0.092 A 
HETATM   10  C13 UNK     1      24.270 -12.119  35.634  1.00  0.00     0.288 A 
HETATM   11  O1  UNK     1      22.945 -11.752  35.461  1.00  0.00    -0.275 OA
HETATM   12  O4  UNK     1      24.702 -13.199  35.244  1.00  0.00    -0.260 OA
HETATM   13  C11 UNK     1      22.460 -10.508  35.911  1.00  0.00     0.090 A 
HETATM   14  C8  UNK     1      23.300  -9.596  36.554  1.00  0.00     0.009 A 
HETATM   15  C14 UNK     1      21.109 -10.243  35.682  1.00  0.00     0.041 A 
HETATM   16  C12 UNK     1      22.741  -8.381  36.971  1.00  0.00     0.051 A 
HETATM   17  C15 UNK     1      21.388  -8.101  36.748  1.00  0.00     0.069 A 
HETATM   18  C16 UNK     1      20.574  -9.030  36.104  1.00  0.00     0.039 A 
BRANCH  17  19
HETATM   19  O3  UNK     1      20.865  -6.914  37.161  1.00  0.00    -0.351 OA
BRANCH  19  20
HETATM   20  C20 UNK     1      21.096  -6.541  38.519  1.00  0.00     0.171 C 
HETATM   21  C24 UNK     1      20.151  -7.318  39.411  1.00  0.00     0.034 C 
ENDBRANCH  19  20
ENDBRANCH  17  19
ENDBRANCH   7   8
ENDBRANCH   1   7
BRANCH   2  22
HETATM   22  C6  UNK     1      31.253  -9.558  37.661  1.00  0.00     0.375 C 
BRANCH  22  23
HETATM   23  C9  UNK     1      32.051  -8.768  36.639  1.00  0.00     0.250 C 
HETATM   24  O2  UNK     1      32.531  -9.281  35.634  1.00  0.00    -0.271 OA
HETATM   25  N3  UNK     1      32.129  -7.429  37.020  1.00  0.00    -0.326 N 
HETATM   26  H15 UNK     1      31.666  -7.155  37.883  1.00  0.00     0.169 HD
BRANCH  25  27
HETATM   27  C17 UNK     1      32.782  -6.375  36.338  1.00  0.00     0.035 A 
HETATM   28  C18 UNK     1      34.162  -6.212  36.463  1.00  0.00     0.032 A 
HETATM   29  C21 UNK     1      34.806  -5.174  35.791  1.00  0.00     0.044 A 
HETATM   30  C23 UNK     1      34.070  -4.297  34.994  1.00  0.00     0.116 A 
HETATM   31  C22 UNK     1      32.690  -4.459  34.870  1.00  0.00     0.044 A 
HETATM   32  F1  UNK     1      34.687  -3.298  34.350  1.00  0.00    -0.206 F 
HETATM   33  C19 UNK     1      32.046  -5.498  35.541  1.00  0.00     0.032 A 
ENDBRANCH  25  27
ENDBRANCH  22  23
ENDBRANCH   2  22
TORSDOF 7
ENDMDL
MODEL 5
REMARK VINA RESULT:      -8.3     26.327     30.076
REMARK  7 active torsions:
REMARK  status: ('A' for Active; 'I' for Inactive)
REMARK    1  A    between atoms: C15_23  and  O3_4 
REMARK    2  A    between atoms: C20_28  and  O3_4 
REMARK    3  A    between atoms: C5_13  and  N1_6 
REMARK    4  A    between atoms: C6_14  and  N2_7 
REMARK    5  A    between atoms: C17_25  and  N3_8 
REMARK       I    between atoms: C9_17  and  N3_8 
REMARK    6  A    between atoms: C5_13  and  C7_15 
REMARK    7  A    between atoms: C6_14  and  C9_17 
ROOT
HETATM    1  N1  UNK     1      16.805   9.508   9.686  1.00  0.00     0.096 N 
HETATM    2  N2  UNK     1      15.314   7.053  10.014  1.00  0.00     0.100 N 
HETATM    3  C1  UNK     1      17.391   8.345  10.363  1.00  0.00     0.303 C 
HETATM    4  C2  UNK     1      15.346   9.518   9.854  1.00  0.00     0.303 C 
HETATM    5  C3  UNK     1      16.771   7.042   9.845  1.00  0.00     0.303 C 
HETATM    6  C4  UNK     1      14.727   8.215   9.336  1.00  0.00     0.303 C 
ENDROOT
BRANCH   1   7
HETATM    7  C5  UNK     1      17.394  10.749  10.183  1.00  0.00     0.312 C 
BRANCH   7   8
HETATM    8  C7  UNK     1      18.391  11.318   9.235  1.00  0.00    -0.011 A 
HETATM    9  C10 UNK     1      18.107  11.457   7.932  1.00  0.00     0.092 A 
HETATM   10  C13 UNK     1      19.061  12.012   6.957  1.00  0.00     0.288 A 
HETATM   11  O1  UNK     1      20.298  12.400   7.448  1.00  0.00    -0.275 OA
HETATM   12  O4  UNK     1      18.767  12.125   5.773  1.00  0.00    -0.260 OA
HETATM   13  C11 UNK     1      20.626  12.266   8.812  1.00  0.00     0.090 A 
HETATM   14  C8  UNK     1      19.712  11.737   9.724  1.00  0.00     0.009 A 
HETATM   15  C14 UNK     1      21.902  12.687   9.193  1.00  0.00     0.041 A 
HETATM   16  C12 UNK     1      20.115  11.635  11.062  1.00  0.00     0.051 A 
HETATM   17  C15 UNK     1      21.390  12.053  11.460  1.00  0.00     0.069 A 
HETATM   18  C16 UNK     1      22.281  12.578  10.526  1.00  0.00     0.039 A 
BRANCH  17  19
HETATM   19  O3  UNK     1      21.762  11.946  12.765  1.00  0.00    -0.351 OA
BRANCH  19  20
HETATM   20  C20 UNK     1      20.856  12.458  13.741  1.00  0.00     0.171 C 
HETATM   21  C24 UNK     1      21.333  12.048  15.119  1.00  0.00     0.034 C 
ENDBRANCH  19  20
ENDBRANCH  17  19
ENDBRANCH   7   8
ENDBRANCH   1   7
BRANCH   2  22
HETATM   22  C6  UNK     1      14.724   5.811   9.519  1.00  0.00     0.375 C 
BRANCH  22  23
HETATM   23  C9  UNK     1      13.212   5.949   9.480  1.00  0.00     0.250 C 
HETATM   24  O2  UNK     1      12.516   5.894  10.489  1.00  0.00    -0.271 OA
HETATM   25  N3  UNK     1      12.780   6.148   8.170  1.00  0.00    -0.326 N 
HETATM   26  H15 UNK     1      13.486   6.180   7.438  1.00  0.00     0.169 HD
BRANCH  25  27
HETATM   27  C17 UNK     1      11.451   6.322   7.717  1.00  0.00     0.035 A 
HETATM   28  C18 UNK     1      11.118   6.012   6.397  1.00  0.00     0.032 A 
HETATM   29  C21 UNK     1       9.808   6.183   5.950  1.00  0.00     0.044 A 
HETATM   30  C23 UNK     1       8.831   6.663   6.821  1.00  0.00     0.116 A 
HETATM   31  C22 UNK     1       9.164   6.972   8.140  1.00  0.00     0.044 A 
HETATM   32  F1  UNK     1       7.573   6.829   6.392  1.00  0.00    -0.206 F 
HETATM   33  C19 UNK     1      10.473   6.801   8.588  1.00  0.00     0.032 A 
ENDBRANCH  25  27
ENDBRANCH  22  23
ENDBRANCH   2  22
TORSDOF 7
ENDMDL
MODEL 6
REMARK VINA RESULT:      -8.3     12.386     16.675
REMARK  7 active torsions:
REMARK  status: ('A' for Active; 'I' for Inactive)
REMARK    1  A    between atoms: C15_23  and  O3_4 
REMARK    2  A    between atoms: C20_28  and  O3_4 
REMARK    3  A    between atoms: C5_13  and  N1_6 
REMARK    4  A    between atoms: C6_14  and  N2_7 
REMARK    5  A    between atoms: C17_25  and  N3_8 
REMARK       I    between atoms: C9_17  and  N3_8 
REMARK    6  A    between atoms: C5_13  and  C7_15 
REMARK    7  A    between atoms: C6_14  and  C9_17 
ROOT
HETATM    1  N1  UNK     1      32.383  -5.779  35.864  1.00  0.00     0.096 N 
HETATM    2  N2  UNK     1      35.032  -6.351  34.857  1.00  0.00     0.100 N 
HETATM    3  C1  UNK     1      32.602  -6.795  34.827  1.00  0.00     0.303 C 
HETATM    4  C2  UNK     1      33.411  -4.733  35.782  1.00  0.00     0.303 C 
HETATM    5  C3  UNK     1      34.007  -7.397  34.940  1.00  0.00     0.303 C 
HETATM    6  C4  UNK     1      34.815  -5.336  35.896  1.00  0.00     0.303 C 
ENDROOT
BRANCH   1   7
HETATM    7  C5  UNK     1      31.045  -5.203  35.753  1.00  0.00     0.312 C 
BRANCH   7   8
HETATM    8  C7  UNK     1      30.274  -5.324  37.021  1.00  0.00    -0.011 A 
HETATM    9  C10 UNK     1      30.295  -4.347  37.940  1.00  0.00     0.092 A 
HETATM   10  C13 UNK     1      29.551  -4.422  39.209  1.00  0.00     0.288 A 
HETATM   11  O1  UNK     1      28.804  -5.569  39.426  1.00  0.00    -0.275 OA
HETATM   12  O4  UNK     1      29.593  -3.509  40.026  1.00  0.00    -0.260 OA
HETATM   13  C11 UNK     1      28.763  -6.613  38.480  1.00  0.00     0.090 A 
HETATM   14  C8  UNK     1      29.474  -6.528  37.282  1.00  0.00     0.009 A 
HETATM   15  C14 UNK     1      27.979  -7.721  38.806  1.00  0.00     0.041 A 
HETATM   16  C12 UNK     1      29.383  -7.609  36.395  1.00  0.00     0.051 A 
HETATM   17  C15 UNK     1      28.601  -8.727  36.707  1.00  0.00     0.069 A 
HETATM   18  C16 UNK     1      27.901  -8.783  37.910  1.00  0.00     0.039 A 
BRANCH  17  19
HETATM   19  O3  UNK     1      28.525  -9.766  35.830  1.00  0.00    -0.351 OA
BRANCH  19  20
HETATM   20  C20 UNK     1      29.572  -9.882  34.869  1.00  0.00     0.171 C 
HETATM   21  C24 UNK     1      28.962 -10.053  33.493  1.00  0.00     0.034 C 
ENDBRANCH  19  20
ENDBRANCH  17  19
ENDBRANCH   7   8
ENDBRANCH   1   7
BRANCH   2  22
HETATM   22  C6  UNK     1      36.372  -6.926  34.966  1.00  0.00     0.375 C 
BRANCH  22  23
HETATM   23  C9  UNK     1      36.656  -7.780  33.744  1.00  0.00     0.250 C 
HETATM   24  O2  UNK     1      36.599  -7.339  32.600  1.00  0.00    -0.271 OA
HETATM   25  N3  UNK     1      36.982  -9.079  34.129  1.00  0.00    -0.326 N 
HETATM   26  H15 UNK     1      36.997  -9.288  35.125  1.00  0.00     0.169 HD
BRANCH  25  27
HETATM   27  C17 UNK     1      37.312 -10.171  33.291  1.00  0.00     0.035 A 
HETATM   28  C18 UNK     1      36.389 -11.199  33.090  1.00  0.00     0.032 A 
HETATM   29  C21 UNK     1      36.713 -12.275  32.264  1.00  0.00     0.044 A 
HETATM   30  C23 UNK     1      37.959 -12.324  31.638  1.00  0.00     0.116 A 
HETATM   31  C22 UNK     1      38.880 -11.295  31.839  1.00  0.00     0.044 A 
HETATM   32  F1  UNK     1      38.271 -13.357  30.846  1.00  0.00    -0.206 F 
HETATM   33  C19 UNK     1      38.557 -10.219  32.665  1.00  0.00     0.032 A 
ENDBRANCH  25  27
ENDBRANCH  22  23
ENDBRANCH   2  22
TORSDOF 7
ENDMDL
MODEL 7
REMARK VINA RESULT:      -8.3      8.037     11.326
REMARK  7 active torsions:
REMARK  status: ('A' for Active; 'I' for Inactive)
REMARK    1  A    between atoms: C15_23  and  O3_4 
REMARK    2  A    between atoms: C20_28  and  O3_4 
REMARK    3  A    between atoms: C5_13  and  N1_6 
REMARK    4  A    between atoms: C6_14  and  N2_7 
REMARK    5  A    between atoms: C17_25  and  N3_8 
REMARK       I    between atoms: C9_17  and  N3_8 
REMARK    6  A    between atoms: C5_13  and  C7_15 
REMARK    7  A    between atoms: C6_14  and  C9_17 
ROOT
HETATM    1  N1  UNK     1      25.616  -8.263  38.199  1.00  0.00     0.096 N 
HETATM    2  N2  UNK     1      28.470  -8.478  37.794  1.00  0.00     0.100 N 
HETATM    3  C1  UNK     1      26.495  -7.095  38.332  1.00  0.00     0.303 C 
HETATM    4  C2  UNK     1      26.344  -9.493  38.534  1.00  0.00     0.303 C 
HETATM    5  C3  UNK     1      27.744  -7.249  37.457  1.00  0.00     0.303 C 
HETATM    6  C4  UNK     1      27.592  -9.646  37.659  1.00  0.00     0.303 C 
ENDROOT
BRANCH   1   7
HETATM    7  C5  UNK     1      24.428  -8.117  39.037  1.00  0.00     0.312 C 
BRANCH   7   8
HETATM    8  C7  UNK     1      23.236  -7.692  38.253  1.00  0.00    -0.011 A 
HETATM    9  C10 UNK     1      22.592  -6.550  38.534  1.00  0.00     0.092 A 
HETATM   10  C13 UNK     1      21.409  -6.089  37.788  1.00  0.00     0.288 A 
HETATM   11  O1  UNK     1      20.971  -6.899  36.752  1.00  0.00    -0.275 OA
HETATM   12  O4  UNK     1      20.846  -5.038  38.075  1.00  0.00    -0.260 OA
HETATM   13  C11 UNK     1      21.626  -8.106  36.432  1.00  0.00     0.090 A 
HETATM   14  C8  UNK     1      22.746  -8.530  37.149  1.00  0.00     0.009 A 
HETATM   15  C14 UNK     1      21.097  -8.841  35.370  1.00  0.00     0.041 A 
HETATM   16  C12 UNK     1      23.339  -9.742  36.770  1.00  0.00     0.051 A 
HETATM   17  C15 UNK     1      22.820 -10.491  35.708  1.00  0.00     0.069 A 
HETATM   18  C16 UNK     1      21.701 -10.041  35.010  1.00  0.00     0.039 A 
BRANCH  17  19
HETATM   19  O3  UNK     1      23.412 -11.665  35.354  1.00  0.00    -0.351 OA
BRANCH  19  20
HETATM   20  C20 UNK     1      24.605 -12.025  36.048  1.00  0.00     0.171 C 
HETATM   21  C24 UNK     1      24.683 -13.534  36.145  1.00  0.00     0.034 C 
ENDBRANCH  19  20
ENDBRANCH  17  19
ENDBRANCH   7   8
ENDBRANCH   1   7
BRANCH   2  22
HETATM   22  C6  UNK     1      29.660  -8.624  36.958  1.00  0.00     0.375 C 
BRANCH  22  23
HETATM   23  C9  UNK     1      30.629  -7.493  37.255  1.00  0.00     0.250 C 
HETATM   24  O2  UNK     1      31.062  -7.272  38.381  1.00  0.00    -0.271 OA
HETATM   25  N3  UNK     1      30.927  -6.794  36.087  1.00  0.00    -0.326 N 
HETATM   26  H15 UNK     1      30.491  -7.109  35.223  1.00  0.00     0.169 HD
BRANCH  25  27
HETATM   27  C17 UNK     1      31.786  -5.679  35.943  1.00  0.00     0.035 A 
HETATM   28  C18 UNK     1      32.993  -5.811  35.256  1.00  0.00     0.032 A 
HETATM   29  C21 UNK     1      33.840  -4.712  35.115  1.00  0.00     0.044 A 
HETATM   30  C23 UNK     1      33.479  -3.480  35.660  1.00  0.00     0.116 A 
HETATM   31  C22 UNK     1      32.272  -3.347  36.346  1.00  0.00     0.044 A 
HETATM   32  F1  UNK     1      34.292  -2.424  35.526  1.00  0.00    -0.206 F 
HETATM   33  C19 UNK     1      31.426  -4.447  36.488  1.00  0.00     0.032 A 
ENDBRANCH  25  27
ENDBRANCH  22  23
ENDBRANCH   2  22
TORSDOF 7
ENDMDL
MODEL 8
REMARK VINA RESULT:      -8.3      8.746     12.650
REMARK  7 active torsions:
REMARK  status: ('A' for Active; 'I' for Inactive)
REMARK    1  A    between atoms: C15_23  and  O3_4 
REMARK    2  A    between atoms: C20_28  and  O3_4 
REMARK    3  A    between atoms: C5_13  and  N1_6 
REMARK    4  A    between atoms: C6_14  and  N2_7 
REMARK    5  A    between atoms: C17_25  and  N3_8 
REMARK       I    between atoms: C9_17  and  N3_8 
REMARK    6  A    between atoms: C5_13  and  C7_15 
REMARK    7  A    between atoms: C6_14  and  C9_17 
ROOT
HETATM    1  N1  UNK     1      29.308  -6.375  37.462  1.00  0.00     0.096 N 
HETATM    2  N2  UNK     1      26.707  -7.251  38.368  1.00  0.00     0.100 N 
HETATM    3  C1  UNK     1      28.755  -5.921  38.744  1.00  0.00     0.303 C 
HETATM    4  C2  UNK     1      28.228  -6.668  36.512  1.00  0.00     0.303 C 
HETATM    5  C3  UNK     1      27.786  -6.960  39.319  1.00  0.00     0.303 C 
HETATM    6  C4  UNK     1      27.261  -7.708  37.088  1.00  0.00     0.303 C 
ENDROOT
BRANCH   1   7
HETATM    7  C5  UNK     1      30.229  -5.382  36.914  1.00  0.00     0.312 C 
BRANCH   7   8
HETATM    8  C7  UNK     1      31.534  -5.981  36.522  1.00  0.00    -0.011 A 
HETATM    9  C10 UNK     1      32.497  -6.199  37.429  1.00  0.00     0.092 A 
HETATM   10  C13 UNK     1      33.803  -6.788  37.089  1.00  0.00     0.288 A 
HETATM   11  O1  UNK     1      34.009  -7.121  35.759  1.00  0.00    -0.275 OA
HETATM   12  O4  UNK     1      34.660  -6.973  37.946  1.00  0.00    -0.260 OA
HETATM   13  C11 UNK     1      33.017  -6.903  34.782  1.00  0.00     0.090 A 
HETATM   14  C8  UNK     1      31.784  -6.344  35.119  1.00  0.00     0.009 A 
HETATM   15  C14 UNK     1      33.335  -7.275  33.475  1.00  0.00     0.041 A 
HETATM   16  C12 UNK     1      30.852  -6.158  34.090  1.00  0.00     0.051 A 
HETATM   17  C15 UNK     1      31.156  -6.526  32.774  1.00  0.00     0.069 A 
HETATM   18  C16 UNK     1      32.395  -7.083  32.468  1.00  0.00     0.039 A 
BRANCH  17  19
HETATM   19  O3  UNK     1      30.235  -6.338  31.789  1.00  0.00    -0.351 OA
BRANCH  19  20
HETATM   20  C20 UNK     1      29.375  -5.206  31.911  1.00  0.00     0.171 C 
HETATM   21  C24 UNK     1      29.864  -4.113  30.984  1.00  0.00     0.034 C 
ENDBRANCH  19  20
ENDBRANCH  17  19
ENDBRANCH   7   8
ENDBRANCH   1   7
BRANCH   2  22
HETATM   22  C6  UNK     1      25.784  -8.243  38.917  1.00  0.00     0.375 C 
BRANCH  22  23
HETATM   23  C9  UNK     1      24.355  -7.815  38.635  1.00  0.00     0.250 C 
HETATM   24  O2  UNK     1      23.928  -6.702  38.923  1.00  0.00    -0.271 OA
HETATM   25  N3  UNK     1      23.655  -8.850  38.017  1.00  0.00    -0.326 N 
HETATM   26  H15 UNK     1      24.156  -9.717  37.833  1.00  0.00     0.169 HD
BRANCH  25  27
HETATM   27  C17 UNK     1      22.304  -8.847  37.594  1.00  0.00     0.035 A 
HETATM   28  C18 UNK     1      21.998  -8.736  36.237  1.00  0.00     0.032 A 
HETATM   29  C21 UNK     1      20.667  -8.733  35.820  1.00  0.00     0.044 A 
HETATM   30  C23 UNK     1      19.642  -8.841  36.760  1.00  0.00     0.116 A 
HETATM   31  C22 UNK     1      19.949  -8.953  38.117  1.00  0.00     0.044 A 
HETATM   32  F1  UNK     1      18.364  -8.837  36.361  1.00  0.00    -0.206 F 
HETATM   33  C19 UNK     1      21.280  -8.956  38.533  1.00  0.00     0.032 A 
ENDBRANCH  25  27
ENDBRANCH  22  23
ENDBRANCH   2  22
TORSDOF 7
ENDMDL
MODEL 9
REMARK VINA RESULT:      -8.2      8.244     12.483
REMARK  7 active torsions:
REMARK  status: ('A' for Active; 'I' for Inactive)
REMARK    1  A    between atoms: C15_23  and  O3_4 
REMARK    2  A    between atoms: C20_28  and  O3_4 
REMARK    3  A    between atoms: C5_13  and  N1_6 
REMARK    4  A    between atoms: C6_14  and  N2_7 
REMARK    5  A    between atoms: C17_25  and  N3_8 
REMARK       I    between atoms: C9_17  and  N3_8 
REMARK    6  A    between atoms: C5_13  and  C7_15 
REMARK    7  A    between atoms: C6_14  and  C9_17 
ROOT
HETATM    1  N1  UNK     1      29.726  -8.777  37.567  1.00  0.00     0.096 N 
HETATM    2  N2  UNK     1      26.844  -8.879  37.369  1.00  0.00     0.100 N 
HETATM    3  C1  UNK     1      28.885  -8.939  38.760  1.00  0.00     0.303 C 
HETATM    4  C2  UNK     1      29.006  -8.029  36.529  1.00  0.00     0.303 C 
HETATM    5  C3  UNK     1      27.562  -9.628  38.406  1.00  0.00     0.303 C 
HETATM    6  C4  UNK     1      27.684  -8.719  36.176  1.00  0.00     0.303 C 
ENDROOT
BRANCH   1   7
HETATM    7  C5  UNK     1      30.985  -8.117  37.905  1.00  0.00     0.312 C 
BRANCH   7   8
HETATM    8  C7  UNK     1      30.861  -6.634  37.899  1.00  0.00    -0.011 A 
HETATM    9  C10 UNK     1      30.033  -6.004  38.744  1.00  0.00     0.092 A 
HETATM   10  C13 UNK     1      29.877  -4.540  38.774  1.00  0.00     0.288 A 
HETATM   11  O1  UNK     1      30.639  -3.813  37.873  1.00  0.00    -0.275 OA
HETATM   12  O4  UNK     1      29.109  -3.998  39.562  1.00  0.00    -0.260 OA
HETATM   13  C11 UNK     1      31.518  -4.447  36.972  1.00  0.00     0.090 A 
HETATM   14  C8  UNK     1      31.656  -5.836  36.954  1.00  0.00     0.009 A 
HETATM   15  C14 UNK     1      32.234  -3.615  36.108  1.00  0.00     0.041 A 
HETATM   16  C12 UNK     1      32.548  -6.388  36.027  1.00  0.00     0.051 A 
HETATM   17  C15 UNK     1      33.274  -5.568  35.155  1.00  0.00     0.069 A 
HETATM   18  C16 UNK     1      33.117  -4.185  35.196  1.00  0.00     0.039 A 
BRANCH  17  19
HETATM   19  O3  UNK     1      34.137  -6.126  34.262  1.00  0.00    -0.351 OA
BRANCH  19  20
HETATM   20  C20 UNK     1      34.861  -7.277  34.692  1.00  0.00     0.171 C 
HETATM   21  C24 UNK     1      36.312  -6.898  34.900  1.00  0.00     0.034 C 
ENDBRANCH  19  20
ENDBRANCH  17  19
ENDBRANCH   7   8
ENDBRANCH   1   7
BRANCH   2  22
HETATM   22  C6  UNK     1      25.583  -9.537  37.031  1.00  0.00     0.375 C 
BRANCH  22  23
HETATM   23  C9  UNK     1      24.423  -8.697  37.536  1.00  0.00     0.250 C 
HETATM   24  O2  UNK     1      24.580  -7.715  38.254  1.00  0.00    -0.271 OA
HETATM   25  N3  UNK     1      23.216  -9.206  37.059  1.00  0.00    -0.326 N 
HETATM   26  H15 UNK     1      23.253 -10.028  36.460  1.00  0.00     0.169 HD
BRANCH  25  27
HETATM   27  C17 UNK     1      21.914  -8.709  37.303  1.00  0.00     0.035 A 
HETATM   28  C18 UNK     1      21.270  -7.937  36.334  1.00  0.00     0.032 A 
HETATM   29  C21 UNK     1      19.986  -7.447  36.573  1.00  0.00     0.044 A 
HETATM   30  C23 UNK     1      19.346  -7.729  37.780  1.00  0.00     0.116 A 
HETATM   31  C22 UNK     1      19.990  -8.501  38.748  1.00  0.00     0.044 A 
HETATM   32  F1  UNK     1      18.114  -7.258  38.011  1.00  0.00    -0.206 F 
HETATM   33  C19 UNK     1      21.273  -8.991  38.509  1.00  0.00     0.032 A 
ENDBRANCH  25  27
ENDBRANCH  22  23
ENDBRANCH   2  22
TORSDOF 7
ENDMDL
MODEL 10
REMARK VINA RESULT:      -8.2     27.747     31.150
REMARK  7 active torsions:
REMARK  status: ('A' for Active; 'I' for Inactive)
REMARK    1  A    between atoms: C15_23  and  O3_4 
REMARK    2  A    between atoms: C20_28  and  O3_4 
REMARK    3  A    between atoms: C5_13  and  N1_6 
REMARK    4  A    between atoms: C6_14  and  N2_7 
REMARK    5  A    between atoms: C17_25  and  N3_8 
REMARK       I    between atoms: C9_17  and  N3_8 
REMARK    6  A    between atoms: C5_13  and  C7_15 
REMARK    7  A    between atoms: C6_14  and  C9_17 
ROOT
HETATM    1  N1  UNK     1      17.174  10.549  10.506  1.00  0.00     0.096 N 
HETATM    2  N2  UNK     1      15.681   8.093  10.198  1.00  0.00     0.100 N 
HETATM    3  C1  UNK     1      15.768  10.455  10.917  1.00  0.00     0.303 C 
HETATM    4  C2  UNK     1      17.448   9.623   9.400  1.00  0.00     0.303 C 
HETATM    5  C3  UNK     1      15.407   9.017  11.305  1.00  0.00     0.303 C 
HETATM    6  C4  UNK     1      17.087   8.185   9.789  1.00  0.00     0.303 C 
ENDROOT
BRANCH   1   7
HETATM    7  C5  UNK     1      17.515  11.920  10.133  1.00  0.00     0.312 C 
BRANCH   7   8
HETATM    8  C7  UNK     1      18.981  12.104   9.950  1.00  0.00    -0.011 A 
HETATM    9  C10 UNK     1      19.844  11.814  10.934  1.00  0.00     0.092 A 
HETATM   10  C13 UNK     1      21.301  11.982  10.800  1.00  0.00     0.288 A 
HETATM   11  O1  UNK     1      21.764  12.462   9.585  1.00  0.00    -0.275 OA
HETATM   12  O4  UNK     1      22.061  11.706  11.722  1.00  0.00    -0.260 OA
HETATM   13  C11 UNK     1      20.881  12.777   8.532  1.00  0.00     0.090 A 
HETATM   14  C8  UNK     1      19.502  12.613   8.674  1.00  0.00     0.009 A 
HETATM   15  C14 UNK     1      21.459  13.254   7.354  1.00  0.00     0.041 A 
HETATM   16  C12 UNK     1      18.693  12.951   7.581  1.00  0.00     0.051 A 
HETATM   17  C15 UNK     1      19.256  13.431   6.394  1.00  0.00     0.069 A 
HETATM   18  C16 UNK     1      20.637  13.582   6.281  1.00  0.00     0.039 A 
BRANCH  17  19
HETATM   19  O3  UNK     1      18.452  13.751   5.343  1.00  0.00    -0.351 OA
BRANCH  19  20
HETATM   20  C20 UNK     1      17.352  14.620   5.610  1.00  0.00     0.171 C 
HETATM   21  C24 UNK     1      17.795  16.053   5.405  1.00  0.00     0.034 C 
ENDBRANCH  19  20
ENDBRANCH  17  19
ENDBRANCH   7   8
ENDBRANCH   1   7
BRANCH   2  22
HETATM   22  C6  UNK     1      15.338   6.721  10.569  1.00  0.00     0.375 C 
BRANCH  22  23
HETATM   23  C9  UNK     1      14.503   6.093   9.468  1.00  0.00     0.250 C 
HETATM   24  O2  UNK     1      14.848   5.078   8.872  1.00  0.00    -0.271 OA
HETATM   25  N3  UNK     1      13.336   6.829   9.269  1.00  0.00    -0.326 N 
HETATM   26  H15 UNK     1      13.187   7.648   9.854  1.00  0.00     0.169 HD
BRANCH  25  27
HETATM   27  C17 UNK     1      12.302   6.573   8.337  1.00  0.00     0.035 A 
HETATM   28  C18 UNK     1      11.003   6.326   8.787  1.00  0.00     0.032 A 
HETATM   29  C21 UNK     1       9.984   6.074   7.869  1.00  0.00     0.044 A 
HETATM   30  C23 UNK     1      10.262   6.067   6.502  1.00  0.00     0.116 A 
HETATM   31  C22 UNK     1      11.560   6.314   6.054  1.00  0.00     0.044 A 
HETATM   32  F1  UNK     1       9.284   5.823   5.621  1.00  0.00    -0.206 F 
HETATM   33  C19 UNK     1      12.579   6.567   6.971  1.00  0.00     0.032 A 
ENDBRANCH  25  27
ENDBRANCH  22  23
ENDBRANCH   2  22
TORSDOF 7
ENDMDL
