MODEL 1
REMARK VINA RESULT:      -8.6      0.000      0.000
REMARK  6 active torsions:
REMARK  status: ('A' for Active; 'I' for Inactive)
REMARK    1  A    between atoms: C14_21  and  O3_3 
REMARK    2  A    between atoms: C21_28  and  O3_3 
REMARK    3  A    between atoms: C30_37  and  O6_6 
REMARK    4  A    between atoms: C12_19  and  C6_13 
REMARK    5  A    between atoms: C10_17  and  C14_21 
REMARK    6  A    between atoms: C21_28  and  C24_31 
ROOT
HETATM    1  O1  UNK     1      29.926  -9.803  36.766  1.00  0.00    -0.293 OA
HETATM    2  N1  UNK     1      29.217  -5.170  37.442  1.00  0.00    -0.362 N 
HETATM    3  C1  UNK     1      27.077  -8.155  38.290  1.00  0.00    -0.036 C 
HETATM    4  C2  UNK     1      27.346  -6.722  37.788  1.00  0.00     0.067 C 
HETATM    5  C3  UNK     1      27.689  -9.159  37.302  1.00  0.00     0.092 C 
HETATM    6  C4  UNK     1      28.777  -6.477  37.379  1.00  0.00     0.021 C 
HETATM    7  C5  UNK     1      29.621  -7.462  37.007  1.00  0.00     0.024 C 
HETATM    8  C6  UNK     1      31.060  -7.156  36.596  1.00  0.00     0.104 C 
HETATM    9  C7  UNK     1      29.151  -8.881  37.021  1.00  0.00     0.159 C 
HETATM   10  C8  UNK     1      25.557  -8.386  38.369  1.00  0.00     0.015 C 
HETATM   11  C9  UNK     1      27.666  -8.359  39.701  1.00  0.00     0.015 C 
HETATM   12  C10 UNK     1      31.457  -5.709  36.905  1.00  0.00     0.052 C 
HETATM   13  C11 UNK     1      30.539  -4.787  37.272  1.00  0.00     0.018 C 
HETATM   14  C13 UNK     1      30.820  -3.333  37.536  1.00  0.00     0.069 C 
HETATM   15  H12 UNK     1      28.553  -4.458  37.726  1.00  0.00     0.165 HD
ENDROOT
BRANCH   8  16
HETATM   16  C12 UNK     1      31.269  -7.451  35.131  1.00  0.00     0.029 A 
HETATM   17  C15 UNK     1      32.328  -8.416  34.745  1.00  0.00     0.194 A 
HETATM   18  O5  UNK     1      33.033  -8.976  35.576  1.00  0.00    -0.287 OA
HETATM   19  C17 UNK     1      32.489  -8.667  33.301  1.00  0.00     0.049 A 
HETATM   20  C18 UNK     1      31.658  -8.000  32.400  1.00  0.00     0.089 A 
HETATM   21  C19 UNK     1      33.460  -9.559  32.836  1.00  0.00     0.025 A 
HETATM   22  O2  UNK     1      30.690  -7.115  32.801  1.00  0.00    -0.321 OA
HETATM   23  C20 UNK     1      31.793  -8.223  31.029  1.00  0.00     0.039 A 
HETATM   24  C16 UNK     1      30.552  -6.891  34.149  1.00  0.00     0.154 A 
HETATM   25  C23 UNK     1      32.761  -9.113  30.563  1.00  0.00     0.009 A 
HETATM   26  C22 UNK     1      33.591  -9.779  31.465  1.00  0.00    -0.061 A 
HETATM   27  C25 UNK     1      34.624 -10.731  30.960  1.00  0.00     0.048 C 
ENDBRANCH   8  16
BRANCH  12  28
HETATM   28  C14 UNK     1      32.894  -5.388  36.838  1.00  0.00     0.292 C 
HETATM   29  O4  UNK     1      33.649  -5.502  37.785  1.00  0.00    -0.259 OA
BRANCH  28  30
HETATM   30  O3  UNK     1      33.179  -4.966  35.583  1.00  0.00    -0.313 OA
BRANCH  30  31
HETATM   31  C21 UNK     1      34.546  -4.604  35.361  1.00  0.00     0.217 C 
BRANCH  31  32
HETATM   32  C24 UNK     1      35.214  -5.680  34.556  1.00  0.00    -0.034 A 
HETATM   33  C27 UNK     1      35.081  -5.686  33.173  1.00  0.00     0.012 A 
HETATM   34  C29 UNK     1      35.703  -6.685  32.424  1.00  0.00     0.037 A 
HETATM   35  C30 UNK     1      36.455  -7.671  33.065  1.00  0.00     0.068 A 
HETATM   36  C28 UNK     1      36.583  -7.657  34.454  1.00  0.00     0.037 A 
HETATM   37  C26 UNK     1      35.962  -6.657  35.202  1.00  0.00     0.012 A 
BRANCH  35  38
HETATM   38  O6  UNK     1      37.061  -8.647  32.335  1.00  0.00    -0.356 OA
HETATM   39  C31 UNK     1      37.525  -9.795  33.045  1.00  0.00     0.210 C 
ENDBRANCH  35  38
ENDBRANCH  31  32
ENDBRANCH  30  31
ENDBRANCH  28  30
ENDBRANCH  12  28
TORSDOF 6
ENDMDL
MODEL 2
REMARK VINA RESULT:      -8.5      1.327      1.848
REMARK  6 active torsions:
REMARK  status: ('A' for Active; 'I' for Inactive)
REMARK    1  A    between atoms: C14_21  and  O3_3 
REMARK    2  A    between atoms: C21_28  and  O3_3 
REMARK    3  A    between atoms: C30_37  and  O6_6 
REMARK    4  A    between atoms: C12_19  and  C6_13 
REMARK    5  A    between atoms: C10_17  and  C14_21 
REMARK    6  A    between atoms: C21_28  and  C24_31 
ROOT
HETATM    1  O1  UNK     1      30.180  -9.581  35.112  1.00  0.00    -0.293 OA
HETATM    2  N1  UNK     1      29.037  -5.564  37.344  1.00  0.00    -0.362 N 
HETATM    3  C1  UNK     1      27.504  -9.006  37.492  1.00  0.00    -0.036 C 
HETATM    4  C2  UNK     1      27.484  -7.464  37.446  1.00  0.00     0.067 C 
HETATM    5  C3  UNK     1      28.030  -9.544  36.154  1.00  0.00     0.092 C 
HETATM    6  C4  UNK     1      28.763  -6.853  36.929  1.00  0.00     0.021 C 
HETATM    7  C5  UNK     1      29.634  -7.512  36.138  1.00  0.00     0.024 C 
HETATM    8  C6  UNK     1      30.912  -6.841  35.638  1.00  0.00     0.104 C 
HETATM    9  C7  UNK     1      29.360  -8.934  35.763  1.00  0.00     0.159 C 
HETATM   10  C8  UNK     1      26.072  -9.523  37.719  1.00  0.00     0.015 C 
HETATM   11  C9  UNK     1      28.384  -9.504  38.658  1.00  0.00     0.015 C 
HETATM   12  C10 UNK     1      31.176  -5.503  36.334  1.00  0.00     0.052 C 
HETATM   13  C11 UNK     1      30.239  -4.913  37.112  1.00  0.00     0.018 C 
HETATM   14  C13 UNK     1      30.380  -3.576  37.786  1.00  0.00     0.069 C 
HETATM   15  H12 UNK     1      28.358  -5.102  37.938  1.00  0.00     0.165 HD
ENDROOT
BRANCH   8  16
HETATM   16  C12 UNK     1      30.861  -6.648  34.142  1.00  0.00     0.029 A 
HETATM   17  C15 UNK     1      31.875  -7.334  33.303  1.00  0.00     0.194 A 
HETATM   18  O5  UNK     1      32.746  -8.047  33.786  1.00  0.00    -0.287 OA
HETATM   19  C17 UNK     1      31.779  -7.110  31.849  1.00  0.00     0.049 A 
HETATM   20  C18 UNK     1      30.766  -6.288  31.354  1.00  0.00     0.089 A 
HETATM   21  C19 UNK     1      32.688  -7.712  30.973  1.00  0.00     0.025 A 
HETATM   22  O2  UNK     1      29.848  -5.673  32.167  1.00  0.00    -0.321 OA
HETATM   23  C20 UNK     1      30.657  -6.063  29.981  1.00  0.00     0.039 A 
HETATM   24  C16 UNK     1      29.950  -5.890  33.519  1.00  0.00     0.154 A 
HETATM   25  C23 UNK     1      31.562  -6.662  29.106  1.00  0.00     0.009 A 
HETATM   26  C22 UNK     1      32.575  -7.485  29.601  1.00  0.00    -0.061 A 
HETATM   27  C25 UNK     1      33.540  -8.124  28.659  1.00  0.00     0.048 C 
ENDBRANCH   8  16
BRANCH  12  28
HETATM   28  C14 UNK     1      32.517  -4.919  36.161  1.00  0.00     0.292 C 
HETATM   29  O4  UNK     1      32.707  -3.789  35.753  1.00  0.00    -0.259 OA
BRANCH  28  30
HETATM   30  O3  UNK     1      33.435  -5.844  36.529  1.00  0.00    -0.313 OA
BRANCH  30  31
HETATM   31  C21 UNK     1      34.797  -5.479  36.281  1.00  0.00     0.217 C 
BRANCH  31  32
HETATM   32  C24 UNK     1      35.270  -6.168  35.034  1.00  0.00    -0.034 A 
HETATM   33  C27 UNK     1      35.851  -7.428  35.123  1.00  0.00     0.012 A 
HETATM   34  C29 UNK     1      36.289  -8.069  33.965  1.00  0.00     0.037 A 
HETATM   35  C30 UNK     1      36.144  -7.446  32.725  1.00  0.00     0.068 A 
HETATM   36  C28 UNK     1      35.560  -6.182  32.644  1.00  0.00     0.037 A 
HETATM   37  C26 UNK     1      35.121  -5.541  33.803  1.00  0.00     0.012 A 
BRANCH  35  38
HETATM   38  O6  UNK     1      36.573  -8.070  31.594  1.00  0.00    -0.356 OA
HETATM   39  C31 UNK     1      36.015  -9.353  31.309  1.00  0.00     0.210 C 
ENDBRANCH  35  38
ENDBRANCH  31  32
ENDBRANCH  30  31
ENDBRANCH  28  30
ENDBRANCH  12  28
TORSDOF 6
ENDMDL
MODEL 3
REMARK VINA RESULT:      -8.5      1.369      1.637
REMARK  6 active torsions:
REMARK  status: ('A' for Active; 'I' for Inactive)
REMARK    1  A    between atoms: C14_21  and  O3_3 
REMARK    2  A    between atoms: C21_28  and  O3_3 
REMARK    3  A    between atoms: C30_37  and  O6_6 
REMARK    4  A    between atoms: C12_19  and  C6_13 
REMARK    5  A    between atoms: C10_17  and  C14_21 
REMARK    6  A    between atoms: C21_28  and  C24_31 
ROOT
HETATM    1  O1  UNK     1      29.034  -9.760  35.530  1.00  0.00    -0.293 OA
HETATM    2  N1  UNK     1      30.121  -6.096  38.326  1.00  0.00    -0.362 N 
HETATM    3  C1  UNK     1      27.230  -8.514  38.419  1.00  0.00    -0.036 C 
HETATM    4  C2  UNK     1      27.903  -7.131  38.530  1.00  0.00     0.067 C 
HETATM    5  C3  UNK     1      27.283  -8.985  36.958  1.00  0.00     0.092 C 
HETATM    6  C4  UNK     1      29.244  -7.048  37.844  1.00  0.00     0.021 C 
HETATM    7  C5  UNK     1      29.617  -7.870  36.841  1.00  0.00     0.024 C 
HETATM    8  C6  UNK     1      30.986  -7.737  36.177  1.00  0.00     0.104 C 
HETATM    9  C7  UNK     1      28.685  -8.947  36.385  1.00  0.00     0.159 C 
HETATM   10  C8  UNK     1      25.760  -8.397  38.859  1.00  0.00     0.015 C 
HETATM   11  C9  UNK     1      27.927  -9.536  39.341  1.00  0.00     0.015 C 
HETATM   12  C10 UNK     1      31.911  -6.784  36.940  1.00  0.00     0.052 C 
HETATM   13  C11 UNK     1      31.448  -5.995  37.936  1.00  0.00     0.018 C 
HETATM   14  C13 UNK     1      32.262  -4.987  38.700  1.00  0.00     0.069 C 
HETATM   15  H12 UNK     1      29.805  -5.497  39.080  1.00  0.00     0.165 HD
ENDROOT
BRANCH   8  16
HETATM   16  C12 UNK     1      30.842  -7.285  34.745  1.00  0.00     0.029 A 
HETATM   17  C15 UNK     1      31.502  -8.079  33.679  1.00  0.00     0.194 A 
HETATM   18  O5  UNK     1      32.157  -9.083  33.927  1.00  0.00    -0.287 OA
HETATM   19  C17 UNK     1      31.328  -7.592  32.299  1.00  0.00     0.049 A 
HETATM   20  C18 UNK     1      30.572  -6.441  32.075  1.00  0.00     0.089 A 
HETATM   21  C19 UNK     1      31.912  -8.271  31.225  1.00  0.00     0.025 A 
HETATM   22  O2  UNK     1      29.976  -5.737  33.091  1.00  0.00    -0.321 OA
HETATM   23  C20 UNK     1      30.394  -5.963  30.776  1.00  0.00     0.039 A 
HETATM   24  C16 UNK     1      30.147  -6.202  34.372  1.00  0.00     0.154 A 
HETATM   25  C23 UNK     1      30.975  -6.638  29.703  1.00  0.00     0.009 A 
HETATM   26  C22 UNK     1      31.732  -7.789  29.927  1.00  0.00    -0.061 A 
HETATM   27  C25 UNK     1      32.351  -8.508  28.775  1.00  0.00     0.048 C 
ENDBRANCH   8  16
BRANCH  12  28
HETATM   28  C14 UNK     1      33.338  -6.813  36.575  1.00  0.00     0.292 C 
HETATM   29  O4  UNK     1      34.132  -7.607  37.044  1.00  0.00    -0.259 OA
BRANCH  28  30
HETATM   30  O3  UNK     1      33.567  -5.834  35.668  1.00  0.00    -0.313 OA
BRANCH  30  31
HETATM   31  C21 UNK     1      34.947  -5.534  35.435  1.00  0.00     0.217 C 
BRANCH  31  32
HETATM   32  C24 UNK     1      35.488  -6.483  34.406  1.00  0.00    -0.034 A 
HETATM   33  C27 UNK     1      34.838  -6.616  33.185  1.00  0.00     0.012 A 
HETATM   34  C29 UNK     1      35.342  -7.496  32.227  1.00  0.00     0.037 A 
HETATM   35  C30 UNK     1      36.492  -8.239  32.498  1.00  0.00     0.068 A 
HETATM   36  C28 UNK     1      37.138  -8.099  33.727  1.00  0.00     0.037 A 
HETATM   37  C26 UNK     1      36.635  -7.217  34.684  1.00  0.00     0.012 A 
BRANCH  35  38
HETATM   38  O6  UNK     1      36.983  -9.099  31.565  1.00  0.00    -0.356 OA
HETATM   39  C31 UNK     1      37.774 -10.189  32.040  1.00  0.00     0.210 C 
ENDBRANCH  35  38
ENDBRANCH  31  32
ENDBRANCH  30  31
ENDBRANCH  28  30
ENDBRANCH  12  28
TORSDOF 6
ENDMDL
MODEL 4
REMARK VINA RESULT:      -8.5      2.474      6.995
REMARK  6 active torsions:
REMARK  status: ('A' for Active; 'I' for Inactive)
REMARK    1  A    between atoms: C14_21  and  O3_3 
REMARK    2  A    between atoms: C21_28  and  O3_3 
REMARK    3  A    between atoms: C30_37  and  O6_6 
REMARK    4  A    between atoms: C12_19  and  C6_13 
REMARK    5  A    between atoms: C10_17  and  C14_21 
REMARK    6  A    between atoms: C21_28  and  C24_31 
ROOT
HETATM    1  O1  UNK     1      28.993  -5.971  31.786  1.00  0.00    -0.293 OA
HETATM    2  N1  UNK     1      31.853  -9.745  31.856  1.00  0.00    -0.362 N 
HETATM    3  C1  UNK     1      29.052  -8.800  29.516  1.00  0.00    -0.036 C 
HETATM    4  C2  UNK     1      29.895  -9.765  30.375  1.00  0.00     0.067 C 
HETATM    5  C3  UNK     1      28.310  -7.821  30.437  1.00  0.00     0.092 C 
HETATM    6  C4  UNK     1      30.720  -9.077  31.433  1.00  0.00     0.021 C 
HETATM    7  C5  UNK     1      30.423  -7.860  31.933  1.00  0.00     0.024 C 
HETATM    8  C6  UNK     1      31.292  -7.213  33.010  1.00  0.00     0.104 C 
HETATM    9  C7  UNK     1      29.237  -7.117  31.406  1.00  0.00     0.159 C 
HETATM   10  C8  UNK     1      28.026  -9.610  28.705  1.00  0.00     0.015 C 
HETATM   11  C9  UNK     1      29.949  -8.031  28.523  1.00  0.00     0.015 C 
HETATM   12  C10 UNK     1      32.604  -7.971  33.230  1.00  0.00     0.052 C 
HETATM   13  C11 UNK     1      32.815  -9.192  32.687  1.00  0.00     0.018 C 
HETATM   14  C13 UNK     1      34.042 -10.039  32.895  1.00  0.00     0.069 C 
HETATM   15  H12 UNK     1      32.043 -10.658  31.458  1.00  0.00     0.165 HD
ENDROOT
BRANCH   8  16
HETATM   16  C12 UNK     1      30.533  -7.100  34.309  1.00  0.00     0.029 A 
HETATM   17  C15 UNK     1      30.754  -5.904  35.159  1.00  0.00     0.194 A 
HETATM   18  O5  UNK     1      31.529  -5.011  34.838  1.00  0.00    -0.287 OA
HETATM   19  C17 UNK     1      29.987  -5.845  36.416  1.00  0.00     0.049 A 
HETATM   20  C18 UNK     1      29.118  -6.891  36.731  1.00  0.00     0.089 A 
HETATM   21  C19 UNK     1      30.125  -4.759  37.286  1.00  0.00     0.025 A 
HETATM   22  O2  UNK     1      28.943  -7.980  35.915  1.00  0.00    -0.321 OA
HETATM   23  C20 UNK     1      28.383  -6.855  37.916  1.00  0.00     0.039 A 
HETATM   24  C16 UNK     1      29.665  -8.021  34.747  1.00  0.00     0.154 A 
HETATM   25  C23 UNK     1      28.519  -5.773  38.785  1.00  0.00     0.009 A 
HETATM   26  C22 UNK     1      29.388  -4.727  38.470  1.00  0.00    -0.061 A 
HETATM   27  C25 UNK     1      29.529  -3.571  39.403  1.00  0.00     0.048 C 
ENDBRANCH   8  16
BRANCH  12  28
HETATM   28  C14 UNK     1      33.645  -7.280  34.011  1.00  0.00     0.292 C 
HETATM   29  O4  UNK     1      34.095  -6.191  33.709  1.00  0.00    -0.259 OA
BRANCH  28  30
HETATM   30  O3  UNK     1      33.975  -8.062  35.066  1.00  0.00    -0.313 OA
BRANCH  30  31
HETATM   31  C21 UNK     1      33.737  -7.477  36.351  1.00  0.00     0.217 C 
BRANCH  31  32
HETATM   32  C24 UNK     1      32.723  -8.304  37.086  1.00  0.00    -0.034 A 
HETATM   33  C27 UNK     1      32.265  -9.490  36.524  1.00  0.00     0.012 A 
HETATM   34  C29 UNK     1      31.324 -10.259  37.207  1.00  0.00     0.037 A 
HETATM   35  C30 UNK     1      30.846  -9.837  38.449  1.00  0.00     0.068 A 
HETATM   36  C28 UNK     1      31.311  -8.645  39.006  1.00  0.00     0.037 A 
HETATM   37  C26 UNK     1      32.253  -7.877  38.323  1.00  0.00     0.012 A 
BRANCH  35  38
HETATM   38  O6  UNK     1      29.926 -10.586  39.115  1.00  0.00    -0.356 OA
HETATM   39  C31 UNK     1      28.706  -9.942  39.482  1.00  0.00     0.210 C 
ENDBRANCH  35  38
ENDBRANCH  31  32
ENDBRANCH  30  31
ENDBRANCH  28  30
ENDBRANCH  12  28
TORSDOF 6
ENDMDL
MODEL 5
REMARK VINA RESULT:      -8.4      2.615      4.077
REMARK  6 active torsions:
REMARK  status: ('A' for Active; 'I' for Inactive)
REMARK    1  A    between atoms: C14_21  and  O3_3 
REMARK    2  A    between atoms: C21_28  and  O3_3 
REMARK    3  A    between atoms: C30_37  and  O6_6 
REMARK    4  A    between atoms: C12_19  and  C6_13 
REMARK    5  A    between atoms: C10_17  and  C14_21 
REMARK    6  A    between atoms: C21_28  and  C24_31 
ROOT
HETATM    1  O1  UNK     1      27.355  -9.929  35.734  1.00  0.00    -0.293 OA
HETATM    2  N1  UNK     1      28.428  -5.756  37.698  1.00  0.00    -0.362 N 
HETATM    3  C1  UNK     1      25.981  -8.430  38.736  1.00  0.00    -0.036 C 
HETATM    4  C2  UNK     1      26.460  -6.981  38.509  1.00  0.00     0.067 C 
HETATM    5  C3  UNK     1      25.819  -9.127  37.378  1.00  0.00     0.092 C 
HETATM    6  C4  UNK     1      27.619  -6.866  37.550  1.00  0.00     0.021 C 
HETATM    7  C5  UNK     1      27.904  -7.795  36.615  1.00  0.00     0.024 C 
HETATM    8  C6  UNK     1      29.088  -7.624  35.665  1.00  0.00     0.104 C 
HETATM    9  C7  UNK     1      27.065  -9.030  36.522  1.00  0.00     0.159 C 
HETATM   10  C8  UNK     1      24.621  -8.404  39.458  1.00  0.00     0.015 C 
HETATM   11  C9  UNK     1      26.980  -9.202  39.624  1.00  0.00     0.015 C 
HETATM   12  C10 UNK     1      29.998  -6.462  36.074  1.00  0.00     0.052 C 
HETATM   13  C11 UNK     1      29.627  -5.575  37.026  1.00  0.00     0.018 C 
HETATM   14  C13 UNK     1      30.422  -4.371  37.453  1.00  0.00     0.069 C 
HETATM   15  H12 UNK     1      28.181  -5.079  38.411  1.00  0.00     0.165 HD
ENDROOT
BRANCH   8  16
HETATM   16  C12 UNK     1      28.609  -7.433  34.247  1.00  0.00     0.029 A 
HETATM   17  C15 UNK     1      28.901  -8.493  33.250  1.00  0.00     0.194 A 
HETATM   18  O5  UNK     1      29.517  -9.510  33.543  1.00  0.00    -0.287 OA
HETATM   19  C17 UNK     1      28.410  -8.255  31.881  1.00  0.00     0.049 A 
HETATM   20  C18 UNK     1      27.714  -7.078  31.604  1.00  0.00     0.089 A 
HETATM   21  C19 UNK     1      28.636  -9.194  30.869  1.00  0.00     0.025 A 
HETATM   22  O2  UNK     1      27.464  -6.124  32.557  1.00  0.00    -0.321 OA
HETATM   23  C20 UNK     1      27.240  -6.833  30.314  1.00  0.00     0.039 A 
HETATM   24  C16 UNK     1      27.928  -6.358  33.829  1.00  0.00     0.154 A 
HETATM   25  C23 UNK     1      27.464  -7.767  29.304  1.00  0.00     0.009 A 
HETATM   26  C22 UNK     1      28.160  -8.945  29.581  1.00  0.00    -0.061 A 
HETATM   27  C25 UNK     1      28.396  -9.942  28.495  1.00  0.00     0.048 C 
ENDBRANCH   8  16
BRANCH  12  28
HETATM   28  C14 UNK     1      31.318  -6.393  35.424  1.00  0.00     0.292 C 
HETATM   29  O4  UNK     1      31.543  -5.716  34.439  1.00  0.00    -0.259 OA
BRANCH  28  30
HETATM   30  O3  UNK     1      32.173  -7.190  36.108  1.00  0.00    -0.313 OA
BRANCH  30  31
HETATM   31  C21 UNK     1      33.173  -7.832  35.311  1.00  0.00     0.217 C 
BRANCH  31  32
HETATM   32  C24 UNK     1      32.734  -9.236  35.011  1.00  0.00    -0.034 A 
HETATM   33  C27 UNK     1      31.952  -9.923  35.932  1.00  0.00     0.012 A 
HETATM   34  C29 UNK     1      31.543 -11.227  35.654  1.00  0.00     0.037 A 
HETATM   35  C30 UNK     1      31.919 -11.836  34.456  1.00  0.00     0.068 A 
HETATM   36  C28 UNK     1      32.705 -11.139  33.538  1.00  0.00     0.037 A 
HETATM   37  C26 UNK     1      33.113  -9.835  33.816  1.00  0.00     0.012 A 
BRANCH  35  38
HETATM   38  O6  UNK     1      31.522 -13.109  34.185  1.00  0.00    -0.356 OA
HETATM   39  C31 UNK     1      31.118 -13.391  32.845  1.00  0.00     0.210 C 
ENDBRANCH  35  38
ENDBRANCH  31  32
ENDBRANCH  30  31
ENDBRANCH  28  30
ENDBRANCH  12  28
TORSDOF 6
ENDMDL
MODEL 6
REMARK VINA RESULT:      -8.4      2.223      6.911
REMARK  6 active torsions:
REMARK  status: ('A' for Active; 'I' for Inactive)
REMARK    1  A    between atoms: C14_21  and  O3_3 
REMARK    2  A    between atoms: C21_28  and  O3_3 
REMARK    3  A    between atoms: C30_37  and  O6_6 
REMARK    4  A    between atoms: C12_19  and  C6_13 
REMARK    5  A    between atoms: C10_17  and  C14_21 
REMARK    6  A    between atoms: C21_28  and  C24_31 
ROOT
HETATM    1  O1  UNK     1      29.797  -7.310  32.149  1.00  0.00    -0.293 OA
HETATM    2  N1  UNK     1      34.100  -9.030  31.176  1.00  0.00    -0.362 N 
HETATM    3  C1  UNK     1      30.929  -8.982  29.137  1.00  0.00    -0.036 C 
HETATM    4  C2  UNK     1      32.228  -9.601  29.693  1.00  0.00     0.067 C 
HETATM    5  C3  UNK     1      29.926  -8.797  30.284  1.00  0.00     0.092 C 
HETATM    6  C4  UNK     1      32.744  -8.921  30.936  1.00  0.00     0.021 C 
HETATM    7  C5  UNK     1      31.962  -8.203  31.769  1.00  0.00     0.024 C 
HETATM    8  C6  UNK     1      32.538  -7.540  33.019  1.00  0.00     0.104 C 
HETATM    9  C7  UNK     1      30.511  -8.028  31.451  1.00  0.00     0.159 C 
HETATM   10  C8  UNK     1      30.327  -9.931  28.085  1.00  0.00     0.015 C 
HETATM   11  C9  UNK     1      31.220  -7.630  28.451  1.00  0.00     0.015 C 
HETATM   12  C10 UNK     1      34.068  -7.579  33.045  1.00  0.00     0.052 C 
HETATM   13  C11 UNK     1      34.772  -8.331  32.167  1.00  0.00     0.018 C 
HETATM   14  C13 UNK     1      36.268  -8.482  32.151  1.00  0.00     0.069 C 
HETATM   15  H12 UNK     1      34.654  -9.579  30.528  1.00  0.00     0.165 HD
ENDROOT
BRANCH   8  16
HETATM   16  C12 UNK     1      31.981  -8.182  34.266  1.00  0.00     0.029 A 
HETATM   17  C15 UNK     1      31.019  -7.411  35.093  1.00  0.00     0.194 A 
HETATM   18  O5  UNK     1      30.668  -6.277  34.795  1.00  0.00    -0.287 OA
HETATM   19  C17 UNK     1      30.507  -8.086  36.299  1.00  0.00     0.049 A 
HETATM   20  C18 UNK     1      30.943  -9.379  36.589  1.00  0.00     0.089 A 
HETATM   21  C19 UNK     1      29.597  -7.444  37.143  1.00  0.00     0.025 A 
HETATM   22  O2  UNK     1      31.833 -10.057  35.796  1.00  0.00    -0.321 OA
HETATM   23  C20 UNK     1      30.471 -10.037  37.726  1.00  0.00     0.039 A 
HETATM   24  C16 UNK     1      32.303  -9.416  34.676  1.00  0.00     0.154 A 
HETATM   25  C23 UNK     1      29.563  -9.398  38.571  1.00  0.00     0.009 A 
HETATM   26  C22 UNK     1      29.127  -8.105  38.279  1.00  0.00    -0.061 A 
HETATM   27  C25 UNK     1      28.155  -7.426  39.186  1.00  0.00     0.048 C 
ENDBRANCH   8  16
BRANCH  12  28
HETATM   28  C14 UNK     1      34.737  -6.713  34.032  1.00  0.00     0.292 C 
HETATM   29  O4  UNK     1      35.647  -7.091  34.745  1.00  0.00    -0.259 OA
BRANCH  28  30
HETATM   30  O3  UNK     1      34.163  -5.487  33.982  1.00  0.00    -0.313 OA
BRANCH  30  31
HETATM   31  C21 UNK     1      34.552  -4.593  35.030  1.00  0.00     0.217 C 
BRANCH  31  32
HETATM   32  C24 UNK     1      33.514  -4.628  36.114  1.00  0.00    -0.034 A 
HETATM   33  C27 UNK     1      32.439  -3.748  36.065  1.00  0.00     0.012 A 
HETATM   34  C29 UNK     1      31.474  -3.781  37.071  1.00  0.00     0.037 A 
HETATM   35  C30 UNK     1      31.591  -4.693  38.120  1.00  0.00     0.068 A 
HETATM   36  C28 UNK     1      32.673  -5.573  38.162  1.00  0.00     0.037 A 
HETATM   37  C26 UNK     1      33.637  -5.540  37.155  1.00  0.00     0.012 A 
BRANCH  35  38
HETATM   38  O6  UNK     1      30.650  -4.725  39.103  1.00  0.00    -0.356 OA
HETATM   39  C31 UNK     1      29.431  -4.023  38.859  1.00  0.00     0.210 C 
ENDBRANCH  35  38
ENDBRANCH  31  32
ENDBRANCH  30  31
ENDBRANCH  28  30
ENDBRANCH  12  28
TORSDOF 6
ENDMDL
MODEL 7
REMARK VINA RESULT:      -8.4      1.748      2.315
REMARK  6 active torsions:
REMARK  status: ('A' for Active; 'I' for Inactive)
REMARK    1  A    between atoms: C14_21  and  O3_3 
REMARK    2  A    between atoms: C21_28  and  O3_3 
REMARK    3  A    between atoms: C30_37  and  O6_6 
REMARK    4  A    between atoms: C12_19  and  C6_13 
REMARK    5  A    between atoms: C10_17  and  C14_21 
REMARK    6  A    between atoms: C21_28  and  C24_31 
ROOT
HETATM    1  O1  UNK     1      27.857  -9.832  35.641  1.00  0.00    -0.293 OA
HETATM    2  N1  UNK     1      29.328  -6.201  38.301  1.00  0.00    -0.362 N 
HETATM    3  C1  UNK     1      26.225  -8.332  38.511  1.00  0.00    -0.036 C 
HETATM    4  C2  UNK     1      27.027  -7.016  38.568  1.00  0.00     0.067 C 
HETATM    5  C3  UNK     1      26.210  -8.851  37.066  1.00  0.00     0.092 C 
HETATM    6  C4  UNK     1      28.358  -7.081  37.862  1.00  0.00     0.021 C 
HETATM    7  C5  UNK     1      28.635  -7.965  36.881  1.00  0.00     0.024 C 
HETATM    8  C6  UNK     1      30.000  -7.982  36.195  1.00  0.00     0.104 C 
HETATM    9  C7  UNK     1      27.599  -8.963  36.474  1.00  0.00     0.159 C 
HETATM   10  C8  UNK     1      24.780  -8.063  38.967  1.00  0.00     0.015 C 
HETATM   11  C9  UNK     1      26.838  -9.385  39.457  1.00  0.00     0.015 C 
HETATM   12  C10 UNK     1      31.023  -7.098  36.915  1.00  0.00     0.052 C 
HETATM   13  C11 UNK     1      30.652  -6.237  37.890  1.00  0.00     0.018 C 
HETATM   14  C13 UNK     1      31.569  -5.287  38.611  1.00  0.00     0.069 C 
HETATM   15  H12 UNK     1      29.081  -5.552  39.040  1.00  0.00     0.165 HD
ENDROOT
BRANCH   8  16
HETATM   16  C12 UNK     1      29.875  -7.563  34.751  1.00  0.00     0.029 A 
HETATM   17  C15 UNK     1      30.326  -8.506  33.697  1.00  0.00     0.194 A 
HETATM   18  O5  UNK     1      30.793  -9.606  33.964  1.00  0.00    -0.287 OA
HETATM   19  C17 UNK     1      30.181  -8.046  32.304  1.00  0.00     0.049 A 
HETATM   20  C18 UNK     1      29.642  -6.782  32.059  1.00  0.00     0.089 A 
HETATM   21  C19 UNK     1      30.577  -8.861  31.239  1.00  0.00     0.025 A 
HETATM   22  O2  UNK     1      29.237  -5.942  33.065  1.00  0.00    -0.321 OA
HETATM   23  C20 UNK     1      29.497  -6.327  30.748  1.00  0.00     0.039 A 
HETATM   24  C16 UNK     1      29.379  -6.384  34.358  1.00  0.00     0.154 A 
HETATM   25  C23 UNK     1      29.890  -7.138  29.684  1.00  0.00     0.009 A 
HETATM   26  C22 UNK     1      30.429  -8.402  29.930  1.00  0.00    -0.061 A 
HETATM   27  C25 UNK     1      30.848  -9.265  28.787  1.00  0.00     0.048 C 
ENDBRANCH   8  16
BRANCH  12  28
HETATM   28  C14 UNK     1      32.435  -7.272  36.532  1.00  0.00     0.292 C 
HETATM   29  O4  UNK     1      33.137  -8.170  36.958  1.00  0.00    -0.259 OA
BRANCH  28  30
HETATM   30  O3  UNK     1      32.767  -6.287  35.664  1.00  0.00    -0.313 OA
BRANCH  30  31
HETATM   31  C21 UNK     1      34.172  -6.095  35.473  1.00  0.00     0.217 C 
BRANCH  31  32
HETATM   32  C24 UNK     1      34.548  -6.556  34.095  1.00  0.00    -0.034 A 
HETATM   33  C27 UNK     1      33.551  -6.898  33.189  1.00  0.00     0.012 A 
HETATM   34  C29 UNK     1      33.899  -7.324  31.908  1.00  0.00     0.037 A 
HETATM   35  C30 UNK     1      35.243  -7.407  31.541  1.00  0.00     0.068 A 
HETATM   36  C28 UNK     1      36.237  -7.062  32.457  1.00  0.00     0.037 A 
HETATM   37  C26 UNK     1      35.889  -6.634  33.738  1.00  0.00     0.012 A 
BRANCH  35  38
HETATM   38  O6  UNK     1      35.584  -7.824  30.292  1.00  0.00    -0.356 OA
HETATM   39  C31 UNK     1      34.906  -7.212  29.195  1.00  0.00     0.210 C 
ENDBRANCH  35  38
ENDBRANCH  31  32
ENDBRANCH  30  31
ENDBRANCH  28  30
ENDBRANCH  12  28
TORSDOF 6
ENDMDL
MODEL 8
REMARK VINA RESULT:      -8.4      2.345      3.715
REMARK  6 active torsions:
REMARK  status: ('A' for Active; 'I' for Inactive)
REMARK    1  A    between atoms: C14_21  and  O3_3 
REMARK    2  A    between atoms: C21_28  and  O3_3 
REMARK    3  A    between atoms: C30_37  and  O6_6 
REMARK    4  A    between atoms: C12_19  and  C6_13 
REMARK    5  A    between atoms: C10_17  and  C14_21 
REMARK    6  A    between atoms: C21_28  and  C24_31 
ROOT
HETATM    1  O1  UNK     1      27.499  -9.927  35.744  1.00  0.00    -0.293 OA
HETATM    2  N1  UNK     1      28.483  -5.722  37.687  1.00  0.00    -0.362 N 
HETATM    3  C1  UNK     1      26.098  -8.444  38.743  1.00  0.00    -0.036 C 
HETATM    4  C2  UNK     1      26.545  -6.987  38.508  1.00  0.00     0.067 C 
HETATM    5  C3  UNK     1      25.949  -9.151  37.388  1.00  0.00     0.092 C 
HETATM    6  C4  UNK     1      27.699  -6.850  37.546  1.00  0.00     0.021 C 
HETATM    7  C5  UNK     1      28.003  -7.778  36.615  1.00  0.00     0.024 C 
HETATM    8  C6  UNK     1      29.181  -7.585  35.661  1.00  0.00     0.104 C 
HETATM    9  C7  UNK     1      27.190  -9.031  36.529  1.00  0.00     0.159 C 
HETATM   10  C8  UNK     1      24.740  -8.445  39.467  1.00  0.00     0.015 C 
HETATM   11  C9  UNK     1      27.115  -9.190  39.632  1.00  0.00     0.015 C 
HETATM   12  C10 UNK     1      30.065  -6.401  36.063  1.00  0.00     0.052 C 
HETATM   13  C11 UNK     1      29.677  -5.518  37.011  1.00  0.00     0.018 C 
HETATM   14  C13 UNK     1      30.445  -4.294  37.431  1.00  0.00     0.069 C 
HETATM   15  H12 UNK     1      28.222  -5.048  38.398  1.00  0.00     0.165 HD
ENDROOT
BRANCH   8  16
HETATM   16  C12 UNK     1      28.694  -7.411  34.244  1.00  0.00     0.029 A 
HETATM   17  C15 UNK     1      28.987  -8.480  33.257  1.00  0.00     0.194 A 
HETATM   18  O5  UNK     1      29.608  -9.492  33.558  1.00  0.00    -0.287 OA
HETATM   19  C17 UNK     1      28.489  -8.260  31.887  1.00  0.00     0.049 A 
HETATM   20  C18 UNK     1      27.787  -7.088  31.601  1.00  0.00     0.089 A 
HETATM   21  C19 UNK     1      28.713  -9.209  30.885  1.00  0.00     0.025 A 
HETATM   22  O2  UNK     1      27.537  -6.124  32.545  1.00  0.00    -0.321 OA
HETATM   23  C20 UNK     1      27.307  -6.859  30.311  1.00  0.00     0.039 A 
HETATM   24  C16 UNK     1      28.008  -6.343  33.816  1.00  0.00     0.154 A 
HETATM   25  C23 UNK     1      27.530  -7.804  29.309  1.00  0.00     0.009 A 
HETATM   26  C22 UNK     1      28.231  -8.976  29.596  1.00  0.00    -0.061 A 
HETATM   27  C25 UNK     1      28.466  -9.983  28.521  1.00  0.00     0.048 C 
ENDBRANCH   8  16
BRANCH  12  28
HETATM   28  C14 UNK     1      31.382  -6.306  35.410  1.00  0.00     0.292 C 
HETATM   29  O4  UNK     1      31.862  -5.257  35.022  1.00  0.00    -0.259 OA
BRANCH  28  30
HETATM   30  O3  UNK     1      31.912  -7.550  35.336  1.00  0.00    -0.313 OA
BRANCH  30  31
HETATM   31  C21 UNK     1      33.128  -7.647  34.587  1.00  0.00     0.217 C 
BRANCH  31  32
HETATM   32  C24 UNK     1      32.817  -8.161  33.211  1.00  0.00    -0.034 A 
HETATM   33  C27 UNK     1      32.416  -7.273  32.221  1.00  0.00     0.012 A 
HETATM   34  C29 UNK     1      32.129  -7.749  30.942  1.00  0.00     0.037 A 
HETATM   35  C30 UNK     1      32.244  -9.112  30.663  1.00  0.00     0.068 A 
HETATM   36  C28 UNK     1      32.646  -9.996  31.664  1.00  0.00     0.037 A 
HETATM   37  C26 UNK     1      32.935  -9.519  32.942  1.00  0.00     0.012 A 
BRANCH  35  38
HETATM   38  O6  UNK     1      31.962  -9.578  29.416  1.00  0.00    -0.356 OA
HETATM   39  C31 UNK     1      31.919  -8.620  28.358  1.00  0.00     0.210 C 
ENDBRANCH  35  38
ENDBRANCH  31  32
ENDBRANCH  30  31
ENDBRANCH  28  30
ENDBRANCH  12  28
TORSDOF 6
ENDMDL
MODEL 9
REMARK VINA RESULT:      -8.3      2.457      5.931
REMARK  6 active torsions:
REMARK  status: ('A' for Active; 'I' for Inactive)
REMARK    1  A    between atoms: C14_21  and  O3_3 
REMARK    2  A    between atoms: C21_28  and  O3_3 
REMARK    3  A    between atoms: C30_37  and  O6_6 
REMARK    4  A    between atoms: C12_19  and  C6_13 
REMARK    5  A    between atoms: C10_17  and  C14_21 
REMARK    6  A    between atoms: C21_28  and  C24_31 
ROOT
HETATM    1  O1  UNK     1      30.545  -9.353  32.152  1.00  0.00    -0.293 OA
HETATM    2  N1  UNK     1      31.295  -4.888  33.540  1.00  0.00    -0.362 N 
HETATM    3  C1  UNK     1      28.612  -6.389  31.357  1.00  0.00    -0.036 C 
HETATM    4  C2  UNK     1      29.647  -5.322  31.772  1.00  0.00     0.067 C 
HETATM    5  C3  UNK     1      29.347  -7.673  30.948  1.00  0.00     0.092 C 
HETATM    6  C4  UNK     1      30.697  -5.831  32.727  1.00  0.00     0.021 C 
HETATM    7  C5  UNK     1      31.031  -7.134  32.839  1.00  0.00     0.024 C 
HETATM    8  C6  UNK     1      32.108  -7.593  33.820  1.00  0.00     0.104 C 
HETATM    9  C7  UNK     1      30.317  -8.152  32.008  1.00  0.00     0.159 C 
HETATM   10  C8  UNK     1      27.801  -5.865  30.158  1.00  0.00     0.015 C 
HETATM   11  C9  UNK     1      27.630  -6.674  32.512  1.00  0.00     0.015 C 
HETATM   12  C10 UNK     1      32.532  -6.478  34.781  1.00  0.00     0.052 C 
HETATM   13  C11 UNK     1      32.148  -5.195  34.589  1.00  0.00     0.018 C 
HETATM   14  C13 UNK     1      32.561  -4.024  35.439  1.00  0.00     0.069 C 
HETATM   15  H12 UNK     1      31.018  -3.919  33.426  1.00  0.00     0.165 HD
ENDROOT
BRANCH   8  16
HETATM   16  C12 UNK     1      33.310  -8.125  33.080  1.00  0.00     0.029 A 
HETATM   17  C15 UNK     1      33.774  -9.504  33.376  1.00  0.00     0.194 A 
HETATM   18  O5  UNK     1      33.213 -10.216  34.199  1.00  0.00    -0.287 OA
HETATM   19  C17 UNK     1      34.951  -9.973  32.624  1.00  0.00     0.049 A 
HETATM   20  C18 UNK     1      35.551  -9.117  31.699  1.00  0.00     0.089 A 
HETATM   21  C19 UNK     1      35.465 -11.256  32.832  1.00  0.00     0.025 A 
HETATM   22  O2  UNK     1      35.088  -7.849  31.454  1.00  0.00    -0.321 OA
HETATM   23  C20 UNK     1      36.667  -9.541  30.976  1.00  0.00     0.039 A 
HETATM   24  C16 UNK     1      33.990  -7.425  32.163  1.00  0.00     0.154 A 
HETATM   25  C23 UNK     1      37.181 -10.821  31.181  1.00  0.00     0.009 A 
HETATM   26  C22 UNK     1      36.581 -11.676  32.107  1.00  0.00    -0.061 A 
HETATM   27  C25 UNK     1      37.136 -13.045  32.322  1.00  0.00     0.048 C 
ENDBRANCH   8  16
BRANCH  12  28
HETATM   28  C14 UNK     1      33.328  -6.880  35.953  1.00  0.00     0.292 C 
HETATM   29  O4  UNK     1      34.518  -6.655  36.062  1.00  0.00    -0.259 OA
BRANCH  28  30
HETATM   30  O3  UNK     1      32.509  -7.512  36.828  1.00  0.00    -0.313 OA
BRANCH  30  31
HETATM   31  C21 UNK     1      32.457  -6.934  38.136  1.00  0.00     0.217 C 
BRANCH  31  32
HETATM   32  C24 UNK     1      31.111  -6.302  38.340  1.00  0.00    -0.034 A 
HETATM   33  C27 UNK     1      29.972  -7.098  38.338  1.00  0.00     0.012 A 
HETATM   34  C29 UNK     1      28.721  -6.513  38.529  1.00  0.00     0.037 A 
HETATM   35  C30 UNK     1      28.617  -5.134  38.721  1.00  0.00     0.068 A 
HETATM   36  C28 UNK     1      29.766  -4.343  38.721  1.00  0.00     0.037 A 
HETATM   37  C26 UNK     1      31.017  -4.929  38.531  1.00  0.00     0.012 A 
BRANCH  35  38
HETATM   38  O6  UNK     1      27.397  -4.562  38.906  1.00  0.00    -0.356 OA
HETATM   39  C31 UNK     1      26.252  -5.385  38.683  1.00  0.00     0.210 C 
ENDBRANCH  35  38
ENDBRANCH  31  32
ENDBRANCH  30  31
ENDBRANCH  28  30
ENDBRANCH  12  28
TORSDOF 6
ENDMDL
MODEL 10
REMARK VINA RESULT:      -8.3      2.135      4.225
REMARK  6 active torsions:
REMARK  status: ('A' for Active; 'I' for Inactive)
REMARK    1  A    between atoms: C14_21  and  O3_3 
REMARK    2  A    between atoms: C21_28  and  O3_3 
REMARK    3  A    between atoms: C30_37  and  O6_6 
REMARK    4  A    between atoms: C12_19  and  C6_13 
REMARK    5  A    between atoms: C10_17  and  C14_21 
REMARK    6  A    between atoms: C21_28  and  C24_31 
ROOT
HETATM    1  O1  UNK     1      31.960  -6.286  37.055  1.00  0.00    -0.293 OA
HETATM    2  N1  UNK     1      27.797  -6.617  34.822  1.00  0.00    -0.362 N 
HETATM    3  C1  UNK     1      28.632  -6.387  38.492  1.00  0.00    -0.036 C 
HETATM    4  C2  UNK     1      27.866  -6.911  37.260  1.00  0.00     0.067 C 
HETATM    5  C3  UNK     1      30.089  -6.866  38.422  1.00  0.00     0.092 C 
HETATM    6  C4  UNK     1      28.587  -6.688  35.954  1.00  0.00     0.021 C 
HETATM    7  C5  UNK     1      29.922  -6.520  35.862  1.00  0.00     0.024 C 
HETATM    8  C6  UNK     1      30.601  -6.304  34.510  1.00  0.00     0.104 C 
HETATM    9  C7  UNK     1      30.753  -6.520  37.106  1.00  0.00     0.159 C 
HETATM   10  C8  UNK     1      27.976  -6.944  39.768  1.00  0.00     0.015 C 
HETATM   11  C9  UNK     1      28.573  -4.846  38.556  1.00  0.00     0.015 C 
HETATM   12  C10 UNK     1      29.592  -6.052  33.387  1.00  0.00     0.052 C 
HETATM   13  C11 UNK     1      28.266  -6.248  33.571  1.00  0.00     0.018 C 
HETATM   14  C13 UNK     1      27.205  -6.087  32.516  1.00  0.00     0.069 C 
HETATM   15  H12 UNK     1      26.798  -6.749  34.932  1.00  0.00     0.165 HD
ENDROOT
BRANCH   8  16
HETATM   16  C12 UNK     1      31.482  -7.479  34.164  1.00  0.00     0.029 A 
HETATM   17  C15 UNK     1      32.911  -7.227  33.851  1.00  0.00     0.194 A 
HETATM   18  O5  UNK     1      33.392  -6.101  33.866  1.00  0.00    -0.287 OA
HETATM   19  C17 UNK     1      33.725  -8.410  33.519  1.00  0.00     0.049 A 
HETATM   20  C18 UNK     1      33.124  -9.669  33.517  1.00  0.00     0.089 A 
HETATM   21  C19 UNK     1      35.082  -8.277  33.210  1.00  0.00     0.025 A 
HETATM   22  O2  UNK     1      31.798  -9.857  33.814  1.00  0.00    -0.321 OA
HETATM   23  C20 UNK     1      33.877 -10.802  33.206  1.00  0.00     0.039 A 
HETATM   24  C16 UNK     1      31.051  -8.746  34.120  1.00  0.00     0.154 A 
HETATM   25  C23 UNK     1      35.231 -10.673  32.897  1.00  0.00     0.009 A 
HETATM   26  C22 UNK     1      35.832  -9.413  32.899  1.00  0.00    -0.061 A 
HETATM   27  C25 UNK     1      37.281  -9.281  32.568  1.00  0.00     0.048 C 
ENDBRANCH   8  16
BRANCH  12  28
HETATM   28  C14 UNK     1      30.129  -5.532  32.117  1.00  0.00     0.292 C 
HETATM   29  O4  UNK     1      30.440  -4.368  31.950  1.00  0.00    -0.259 OA
BRANCH  28  30
HETATM   30  O3  UNK     1      30.199  -6.556  31.233  1.00  0.00    -0.313 OA
BRANCH  30  31
HETATM   31  C21 UNK     1      31.302  -6.496  30.323  1.00  0.00     0.217 C 
BRANCH  31  32
HETATM   32  C24 UNK     1      31.888  -7.869  30.171  1.00  0.00    -0.034 A 
HETATM   33  C27 UNK     1      33.245  -8.012  29.910  1.00  0.00     0.012 A 
HETATM   34  C29 UNK     1      33.791  -9.288  29.771  1.00  0.00     0.037 A 
HETATM   35  C30 UNK     1      32.975 -10.413  29.894  1.00  0.00     0.068 A 
HETATM   36  C28 UNK     1      31.613 -10.261  30.157  1.00  0.00     0.037 A 
HETATM   37  C26 UNK     1      31.068  -8.984  30.297  1.00  0.00     0.012 A 
BRANCH  35  38
HETATM   38  O6  UNK     1      33.506 -11.658  29.757  1.00  0.00    -0.356 OA
HETATM   39  C31 UNK     1      32.743 -12.750  30.270  1.00  0.00     0.210 C 
ENDBRANCH  35  38
ENDBRANCH  31  32
ENDBRANCH  30  31
ENDBRANCH  28  30
ENDBRANCH  12  28
TORSDOF 6
ENDMDL
