MODEL 1
REMARK VINA RESULT:      -8.2      0.000      0.000
REMARK  8 active torsions:
REMARK  status: ('A' for Active; 'I' for Inactive)
REMARK    1  A    between atoms: C1_7  and  O1_2 
REMARK    2  A    between atoms: C2_8  and  O1_2 
REMARK    3  A    between atoms: C5_11  and  O2_3 
REMARK    4  A    between atoms: C21_27  and  O3_4 
REMARK    5  A    between atoms: C2_8  and  C3_9 
REMARK    6  A    between atoms: C4_10  and  C9_15 
REMARK    7  A    between atoms: C12_18  and  C14_20 
REMARK    8  A    between atoms: C13_19  and  C21_27 
ROOT
HETATM    1  N1  UNK     1      22.594  -6.498  38.941  1.00  0.00    -0.191 NA
HETATM    2  C9  UNK     1      21.087  -3.762  37.481  1.00  0.00     0.035 C 
HETATM    3  C12 UNK     1      20.909  -5.109  37.529  1.00  0.00     0.055 C 
HETATM    4  C24 UNK     1      21.847  -5.870  38.314  1.00  0.00     0.100 C 
ENDROOT
BRANCH   3   5
HETATM    5  C14 UNK     1      19.834  -5.809  36.846  1.00  0.00    -0.015 A 
HETATM    6  C17 UNK     1      20.074  -6.425  35.617  1.00  0.00     0.014 A 
HETATM    7  C19 UNK     1      19.042  -7.096  34.960  1.00  0.00     0.024 A 
HETATM    8  C22 UNK     1      17.771  -7.151  35.532  1.00  0.00     0.034 A 
HETATM    9  C20 UNK     1      17.531  -6.535  36.761  1.00  0.00     0.024 A 
HETATM   10 Cl1  UNK     1      16.499  -7.979  34.723  1.00  0.00    -0.084 Cl
HETATM   11  C18 UNK     1      18.563  -5.864  37.418  1.00  0.00     0.014 A 
ENDBRANCH   3   5
BRANCH   2  12
HETATM   12  C4  UNK     1      20.258  -2.815  36.723  1.00  0.00    -0.032 A 
HETATM   13  C6  UNK     1      19.203  -2.172  37.356  1.00  0.00     0.051 A 
HETATM   14  C5  UNK     1      18.416  -1.273  36.636  1.00  0.00     0.102 A 
HETATM   15  C1  UNK     1      18.691  -1.027  35.291  1.00  0.00     0.102 A 
HETATM   16  C7  UNK     1      19.754  -1.680  34.665  1.00  0.00     0.040 A 
HETATM   17  C8  UNK     1      20.541  -2.579  35.385  1.00  0.00     0.014 A 
BRANCH  14  18
HETATM   18  O2  UNK     1      17.381  -0.643  37.257  1.00  0.00    -0.353 OA
HETATM   19  C23 UNK     1      17.673   0.586  37.919  1.00  0.00     0.210 C 
ENDBRANCH  14  18
BRANCH  15  20
HETATM   20  O1  UNK     1      17.930  -0.152  34.577  1.00  0.00    -0.344 OA
BRANCH  20  21
HETATM   21  C2  UNK     1      18.366   1.205  34.536  1.00  0.00     0.214 C 
BRANCH  21  22
HETATM   22  C3  UNK     1      18.370   1.676  33.112  1.00  0.00    -0.034 A 
HETATM   23  C10 UNK     1      18.729   0.797  32.097  1.00  0.00     0.010 A 
HETATM   24  C15 UNK     1      18.732   1.235  30.773  1.00  0.00     0.019 A 
HETATM   25  C13 UNK     1      18.376   2.549  30.473  1.00  0.00     0.037 A 
HETATM   26  C16 UNK     1      18.016   3.426  31.496  1.00  0.00     0.019 A 
HETATM   27  C11 UNK     1      18.014   2.988  32.820  1.00  0.00     0.010 A 
BRANCH  25  28
HETATM   28  C21 UNK     1      18.379   3.007  29.091  1.00  0.00     0.176 C 
HETATM   29  O4  UNK     1      18.029   2.337  28.114  1.00  0.00    -0.646 OA
BRANCH  28  30
HETATM   30  O3  UNK     1      18.821   4.289  28.969  1.00  0.00    -0.773 OA
HETATM   31  H18 UNK     1      19.118   4.487  28.056  1.00  0.00     0.167 HD
ENDBRANCH  28  30
ENDBRANCH  25  28
ENDBRANCH  21  22
ENDBRANCH  20  21
ENDBRANCH  15  20
ENDBRANCH   2  12
TORSDOF 8
ENDMDL
MODEL 2
REMARK VINA RESULT:      -8.1     11.500     14.153
REMARK  8 active torsions:
REMARK  status: ('A' for Active; 'I' for Inactive)
REMARK    1  A    between atoms: C1_7  and  O1_2 
REMARK    2  A    between atoms: C2_8  and  O1_2 
REMARK    3  A    between atoms: C5_11  and  O2_3 
REMARK    4  A    between atoms: C21_27  and  O3_4 
REMARK    5  A    between atoms: C2_8  and  C3_9 
REMARK    6  A    between atoms: C4_10  and  C9_15 
REMARK    7  A    between atoms: C12_18  and  C14_20 
REMARK    8  A    between atoms: C13_19  and  C21_27 
ROOT
HETATM    1  N1  UNK     1      30.074  -2.856  29.890  1.00  0.00    -0.191 NA
HETATM    2  C9  UNK     1      30.433  -5.048  32.528  1.00  0.00     0.035 C 
HETATM    3  C12 UNK     1      29.983  -5.074  31.245  1.00  0.00     0.055 C 
HETATM    4  C24 UNK     1      30.037  -3.841  30.503  1.00  0.00     0.100 C 
ENDROOT
BRANCH   3   5
HETATM    5  C14 UNK     1      29.464  -6.265  30.593  1.00  0.00    -0.015 A 
HETATM    6  C17 UNK     1      30.318  -7.084  29.853  1.00  0.00     0.014 A 
HETATM    7  C19 UNK     1      29.819  -8.226  29.227  1.00  0.00     0.024 A 
HETATM    8  C22 UNK     1      28.468  -8.550  29.341  1.00  0.00     0.034 A 
HETATM    9  C20 UNK     1      27.614  -7.731  30.080  1.00  0.00     0.024 A 
HETATM   10 Cl1  UNK     1      27.853  -9.960  28.569  1.00  0.00    -0.084 Cl
HETATM   11  C18 UNK     1      28.111  -6.589  30.706  1.00  0.00     0.014 A 
ENDBRANCH   3   5
BRANCH   2  12
HETATM   12  C4  UNK     1      30.442  -6.188  33.455  1.00  0.00    -0.032 A 
HETATM   13  C6  UNK     1      31.630  -6.864  33.694  1.00  0.00     0.051 A 
HETATM   14  C5  UNK     1      31.638  -7.946  34.575  1.00  0.00     0.102 A 
HETATM   15  C1  UNK     1      30.458  -8.340  35.206  1.00  0.00     0.102 A 
HETATM   16  C7  UNK     1      29.270  -7.652  34.957  1.00  0.00     0.040 A 
HETATM   17  C8  UNK     1      29.262  -6.570  34.077  1.00  0.00     0.014 A 
BRANCH  14  18
HETATM   18  O2  UNK     1      32.803  -8.610  34.809  1.00  0.00    -0.353 OA
HETATM   19  C23 UNK     1      33.887  -7.851  35.340  1.00  0.00     0.210 C 
ENDBRANCH  14  18
BRANCH  15  20
HETATM   20  O1  UNK     1      30.452  -9.394  36.069  1.00  0.00    -0.344 OA
BRANCH  20  21
HETATM   21  C2  UNK     1      30.929  -9.155  37.391  1.00  0.00     0.214 C 
BRANCH  21  22
HETATM   22  C3  UNK     1      30.329  -7.879  37.905  1.00  0.00    -0.034 A 
HETATM   23  C10 UNK     1      29.010  -7.867  38.343  1.00  0.00     0.010 A 
HETATM   24  C15 UNK     1      28.452  -6.681  38.821  1.00  0.00     0.019 A 
HETATM   25  C13 UNK     1      29.217  -5.516  38.858  1.00  0.00     0.037 A 
HETATM   26  C16 UNK     1      30.540  -5.536  38.417  1.00  0.00     0.019 A 
HETATM   27  C11 UNK     1      31.098  -6.721  37.938  1.00  0.00     0.010 A 
BRANCH  25  28
HETATM   28  C21 UNK     1      28.636  -4.279  39.355  1.00  0.00     0.176 C 
HETATM   29  O4  UNK     1      27.516  -3.845  39.063  1.00  0.00    -0.646 OA
BRANCH  28  30
HETATM   30  O3  UNK     1      29.469  -3.617  40.205  1.00  0.00    -0.773 OA
HETATM   31  H18 UNK     1      29.192  -2.685  40.336  1.00  0.00     0.167 HD
ENDBRANCH  28  30
ENDBRANCH  25  28
ENDBRANCH  21  22
ENDBRANCH  20  21
ENDBRANCH  15  20
ENDBRANCH   2  12
TORSDOF 8
ENDMDL
MODEL 3
REMARK VINA RESULT:      -8.1     11.702     14.421
REMARK  8 active torsions:
REMARK  status: ('A' for Active; 'I' for Inactive)
REMARK    1  A    between atoms: C1_7  and  O1_2 
REMARK    2  A    between atoms: C2_8  and  O1_2 
REMARK    3  A    between atoms: C5_11  and  O2_3 
REMARK    4  A    between atoms: C21_27  and  O3_4 
REMARK    5  A    between atoms: C2_8  and  C3_9 
REMARK    6  A    between atoms: C4_10  and  C9_15 
REMARK    7  A    between atoms: C12_18  and  C14_20 
REMARK    8  A    between atoms: C13_19  and  C21_27 
ROOT
HETATM    1  N1  UNK     1      29.404  -3.505  40.040  1.00  0.00    -0.191 NA
HETATM    2  C9  UNK     1      28.796  -6.098  37.849  1.00  0.00     0.035 C 
HETATM    3  C12 UNK     1      29.842  -5.312  38.223  1.00  0.00     0.055 C 
HETATM    4  C24 UNK     1      29.590  -4.314  39.229  1.00  0.00     0.100 C 
ENDROOT
BRANCH   3   5
HETATM    5  C14 UNK     1      31.181  -5.431  37.670  1.00  0.00    -0.015 A 
HETATM    6  C17 UNK     1      32.096  -6.316  38.242  1.00  0.00     0.014 A 
HETATM    7  C19 UNK     1      33.382  -6.429  37.712  1.00  0.00     0.024 A 
HETATM    8  C22 UNK     1      33.752  -5.659  36.610  1.00  0.00     0.034 A 
HETATM    9  C20 UNK     1      32.837  -4.774  36.038  1.00  0.00     0.024 A 
HETATM   10 Cl1  UNK     1      35.337  -5.799  35.956  1.00  0.00    -0.084 Cl
HETATM   11  C18 UNK     1      31.552  -4.660  36.568  1.00  0.00     0.014 A 
ENDBRANCH   3   5
BRANCH   2  12
HETATM   12  C4  UNK     1      28.840  -7.153  36.828  1.00  0.00    -0.032 A 
HETATM   13  C6  UNK     1      28.473  -6.856  35.523  1.00  0.00     0.051 A 
HETATM   14  C5  UNK     1      28.515  -7.858  34.554  1.00  0.00     0.102 A 
HETATM   15  C1  UNK     1      28.922  -9.146  34.899  1.00  0.00     0.102 A 
HETATM   16  C7  UNK     1      29.288  -9.432  36.215  1.00  0.00     0.040 A 
HETATM   17  C8  UNK     1      29.247  -8.431  37.185  1.00  0.00     0.014 A 
BRANCH  14  18
HETATM   18  O2  UNK     1      28.154  -7.567  33.273  1.00  0.00    -0.353 OA
HETATM   19  C23 UNK     1      28.088  -6.188  32.915  1.00  0.00     0.210 C 
ENDBRANCH  14  18
BRANCH  15  20
HETATM   20  O1  UNK     1      28.967 -10.134  33.962  1.00  0.00    -0.344 OA
BRANCH  20  21
HETATM   21  C2  UNK     1      30.256 -10.619  33.592  1.00  0.00     0.214 C 
BRANCH  21  22
HETATM   22  C3  UNK     1      30.487 -10.334  32.137  1.00  0.00    -0.034 A 
HETATM   23  C10 UNK     1      30.132 -11.283  31.185  1.00  0.00     0.010 A 
HETATM   24  C15 UNK     1      30.347 -11.017  29.832  1.00  0.00     0.019 A 
HETATM   25  C13 UNK     1      30.914  -9.805  29.441  1.00  0.00     0.037 A 
HETATM   26  C16 UNK     1      31.267  -8.858  30.401  1.00  0.00     0.019 A 
HETATM   27  C11 UNK     1      31.054  -9.124  31.754  1.00  0.00     0.010 A 
BRANCH  25  28
HETATM   28  C21 UNK     1      31.138  -9.529  28.031  1.00  0.00     0.176 C 
HETATM   29  O4  UNK     1      31.920  -8.684  27.582  1.00  0.00    -0.646 OA
BRANCH  28  30
HETATM   30  O3  UNK     1      30.380 -10.317  27.219  1.00  0.00    -0.773 OA
HETATM   31  H18 UNK     1      30.613 -11.265  27.310  1.00  0.00     0.167 HD
ENDBRANCH  28  30
ENDBRANCH  25  28
ENDBRANCH  21  22
ENDBRANCH  20  21
ENDBRANCH  15  20
ENDBRANCH   2  12
TORSDOF 8
ENDMDL
MODEL 4
REMARK VINA RESULT:      -8.1     12.152     15.215
REMARK  8 active torsions:
REMARK  status: ('A' for Active; 'I' for Inactive)
REMARK    1  A    between atoms: C1_7  and  O1_2 
REMARK    2  A    between atoms: C2_8  and  O1_2 
REMARK    3  A    between atoms: C5_11  and  O2_3 
REMARK    4  A    between atoms: C21_27  and  O3_4 
REMARK    5  A    between atoms: C2_8  and  C3_9 
REMARK    6  A    between atoms: C4_10  and  C9_15 
REMARK    7  A    between atoms: C12_18  and  C14_20 
REMARK    8  A    between atoms: C13_19  and  C21_27 
ROOT
HETATM    1  N1  UNK     1      31.688  -9.204  27.703  1.00  0.00    -0.191 NA
HETATM    2  C9  UNK     1      33.079  -8.524  30.784  1.00  0.00     0.035 C 
HETATM    3  C12 UNK     1      31.887  -8.354  30.152  1.00  0.00     0.055 C 
HETATM    4  C24 UNK     1      31.786  -8.828  28.797  1.00  0.00     0.100 C 
ENDROOT
BRANCH   3   5
HETATM    5  C14 UNK     1      30.725  -7.734  30.768  1.00  0.00    -0.015 A 
HETATM    6  C17 UNK     1      30.587  -6.346  30.755  1.00  0.00     0.014 A 
HETATM    7  C19 UNK     1      29.472  -5.750  31.347  1.00  0.00     0.024 A 
HETATM    8  C22 UNK     1      28.497  -6.542  31.950  1.00  0.00     0.034 A 
HETATM    9  C20 UNK     1      28.635  -7.931  31.963  1.00  0.00     0.024 A 
HETATM   10 Cl1  UNK     1      27.122  -5.808  32.679  1.00  0.00    -0.084 Cl
HETATM   11  C18 UNK     1      29.749  -8.527  31.372  1.00  0.00     0.014 A 
ENDBRANCH   3   5
BRANCH   2  12
HETATM   12  C4  UNK     1      33.391  -8.092  32.154  1.00  0.00    -0.032 A 
HETATM   13  C6  UNK     1      32.961  -8.859  33.227  1.00  0.00     0.051 A 
HETATM   14  C5  UNK     1      33.258  -8.450  34.526  1.00  0.00     0.102 A 
HETATM   15  C1  UNK     1      33.982  -7.276  34.739  1.00  0.00     0.102 A 
HETATM   16  C7  UNK     1      34.409  -6.513  33.652  1.00  0.00     0.040 A 
HETATM   17  C8  UNK     1      34.112  -6.923  32.352  1.00  0.00     0.014 A 
BRANCH  14  18
HETATM   18  O2  UNK     1      32.835  -9.202  35.580  1.00  0.00    -0.353 OA
HETATM   19  C23 UNK     1      31.452  -9.547  35.617  1.00  0.00     0.210 C 
ENDBRANCH  14  18
BRANCH  15  20
HETATM   20  O1  UNK     1      34.278  -6.865  36.003  1.00  0.00    -0.344 OA
BRANCH  20  21
HETATM   21  C2  UNK     1      34.184  -5.467  36.270  1.00  0.00     0.214 C 
BRANCH  21  22
HETATM   22  C3  UNK     1      32.914  -5.196  37.021  1.00  0.00    -0.034 A 
HETATM   23  C10 UNK     1      32.445  -6.128  37.939  1.00  0.00     0.010 A 
HETATM   24  C15 UNK     1      31.265  -5.876  38.638  1.00  0.00     0.019 A 
HETATM   25  C13 UNK     1      30.562  -4.693  38.415  1.00  0.00     0.037 A 
HETATM   26  C16 UNK     1      31.039  -3.761  37.493  1.00  0.00     0.019 A 
HETATM   27  C11 UNK     1      32.219  -4.014  36.793  1.00  0.00     0.010 A 
BRANCH  25  28
HETATM   28  C21 UNK     1      29.330  -4.429  39.144  1.00  0.00     0.176 C 
HETATM   29  O4  UNK     1      28.236  -4.953  38.911  1.00  0.00    -0.646 OA
BRANCH  28  30
HETATM   30  O3  UNK     1      29.501  -3.520  40.142  1.00  0.00    -0.773 OA
HETATM   31  H18 UNK     1      29.000  -2.694  39.973  1.00  0.00     0.167 HD
ENDBRANCH  28  30
ENDBRANCH  25  28
ENDBRANCH  21  22
ENDBRANCH  20  21
ENDBRANCH  15  20
ENDBRANCH   2  12
TORSDOF 8
ENDMDL
MODEL 5
REMARK VINA RESULT:      -8.0     11.762     14.720
REMARK  8 active torsions:
REMARK  status: ('A' for Active; 'I' for Inactive)
REMARK    1  A    between atoms: C1_7  and  O1_2 
REMARK    2  A    between atoms: C2_8  and  O1_2 
REMARK    3  A    between atoms: C5_11  and  O2_3 
REMARK    4  A    between atoms: C21_27  and  O3_4 
REMARK    5  A    between atoms: C2_8  and  C3_9 
REMARK    6  A    between atoms: C4_10  and  C9_15 
REMARK    7  A    between atoms: C12_18  and  C14_20 
REMARK    8  A    between atoms: C13_19  and  C21_27 
ROOT
HETATM    1  N1  UNK     1      25.129  -8.279  39.024  1.00  0.00    -0.191 NA
HETATM    2  C9  UNK     1      28.138  -6.617  38.751  1.00  0.00     0.035 C 
HETATM    3  C12 UNK     1      27.381  -7.467  38.008  1.00  0.00     0.055 C 
HETATM    4  C24 UNK     1      26.136  -7.912  38.579  1.00  0.00     0.100 C 
ENDROOT
BRANCH   3   5
HETATM    5  C14 UNK     1      27.755  -7.939  36.685  1.00  0.00    -0.015 A 
HETATM    6  C17 UNK     1      27.907  -7.030  35.638  1.00  0.00     0.014 A 
HETATM    7  C19 UNK     1      28.266  -7.482  34.367  1.00  0.00     0.024 A 
HETATM    8  C22 UNK     1      28.474  -8.843  34.145  1.00  0.00     0.034 A 
HETATM    9  C20 UNK     1      28.322  -9.752  35.192  1.00  0.00     0.024 A 
HETATM   10 Cl1  UNK     1      28.917  -9.401  32.579  1.00  0.00    -0.084 Cl
HETATM   11  C18 UNK     1      27.963  -9.301  36.462  1.00  0.00     0.014 A 
ENDBRANCH   3   5
BRANCH   2  12
HETATM   12  C4  UNK     1      29.445  -6.070  38.361  1.00  0.00    -0.032 A 
HETATM   13  C6  UNK     1      30.556  -6.901  38.345  1.00  0.00     0.051 A 
HETATM   14  C5  UNK     1      31.796  -6.381  37.973  1.00  0.00     0.102 A 
HETATM   15  C1  UNK     1      31.911  -5.036  37.623  1.00  0.00     0.102 A 
HETATM   16  C7  UNK     1      30.787  -4.210  37.644  1.00  0.00     0.040 A 
HETATM   17  C8  UNK     1      29.546  -4.730  38.014  1.00  0.00     0.014 A 
BRANCH  14  18
HETATM   18  O2  UNK     1      32.887  -7.196  37.958  1.00  0.00    -0.353 OA
HETATM   19  C23 UNK     1      32.916  -8.222  36.968  1.00  0.00     0.210 C 
ENDBRANCH  14  18
BRANCH  15  20
HETATM   20  O1  UNK     1      33.116  -4.515  37.259  1.00  0.00    -0.344 OA
BRANCH  20  21
HETATM   21  C2  UNK     1      33.295  -4.194  35.881  1.00  0.00     0.214 C 
BRANCH  21  22
HETATM   22  C3  UNK     1      34.175  -5.231  35.246  1.00  0.00    -0.034 A 
HETATM   23  C10 UNK     1      35.327  -5.650  35.901  1.00  0.00     0.010 A 
HETATM   24  C15 UNK     1      36.144  -6.615  35.311  1.00  0.00     0.019 A 
HETATM   25  C13 UNK     1      35.803  -7.153  34.071  1.00  0.00     0.037 A 
HETATM   26  C16 UNK     1      34.645  -6.728  33.420  1.00  0.00     0.019 A 
HETATM   27  C11 UNK     1      33.829  -5.763  34.009  1.00  0.00     0.010 A 
BRANCH  25  28
HETATM   28  C21 UNK     1      36.655  -8.158  33.455  1.00  0.00     0.176 C 
HETATM   29  O4  UNK     1      36.795  -8.331  32.240  1.00  0.00    -0.646 OA
BRANCH  28  30
HETATM   30  O3  UNK     1      37.310  -8.920  34.374  1.00  0.00    -0.773 OA
HETATM   31  H18 UNK     1      36.688  -9.380  34.976  1.00  0.00     0.167 HD
ENDBRANCH  28  30
ENDBRANCH  25  28
ENDBRANCH  21  22
ENDBRANCH  20  21
ENDBRANCH  15  20
ENDBRANCH   2  12
TORSDOF 8
ENDMDL
MODEL 6
REMARK VINA RESULT:      -8.0     11.474     14.814
REMARK  8 active torsions:
REMARK  status: ('A' for Active; 'I' for Inactive)
REMARK    1  A    between atoms: C1_7  and  O1_2 
REMARK    2  A    between atoms: C2_8  and  O1_2 
REMARK    3  A    between atoms: C5_11  and  O2_3 
REMARK    4  A    between atoms: C21_27  and  O3_4 
REMARK    5  A    between atoms: C2_8  and  C3_9 
REMARK    6  A    between atoms: C4_10  and  C9_15 
REMARK    7  A    between atoms: C12_18  and  C14_20 
REMARK    8  A    between atoms: C13_19  and  C21_27 
ROOT
HETATM    1  N1  UNK     1      33.502  -8.296  28.618  1.00  0.00    -0.191 NA
HETATM    2  C9  UNK     1      33.814  -7.855  32.023  1.00  0.00     0.035 C 
HETATM    3  C12 UNK     1      32.838  -7.788  31.080  1.00  0.00     0.055 C 
HETATM    4  C24 UNK     1      33.215  -8.071  29.719  1.00  0.00     0.100 C 
ENDROOT
BRANCH   3   5
HETATM    5  C14 UNK     1      31.452  -7.456  31.370  1.00  0.00    -0.015 A 
HETATM    6  C17 UNK     1      30.566  -8.454  31.774  1.00  0.00     0.014 A 
HETATM    7  C19 UNK     1      29.236  -8.136  32.052  1.00  0.00     0.024 A 
HETATM    8  C22 UNK     1      28.794  -6.819  31.928  1.00  0.00     0.034 A 
HETATM    9  C20 UNK     1      29.680  -5.820  31.524  1.00  0.00     0.024 A 
HETATM   10 Cl1  UNK     1      27.155  -6.426  32.272  1.00  0.00    -0.084 Cl
HETATM   11  C18 UNK     1      31.010  -6.138  31.245  1.00  0.00     0.014 A 
ENDBRANCH   3   5
BRANCH   2  12
HETATM   12  C4  UNK     1      33.641  -7.581  33.457  1.00  0.00    -0.032 A 
HETATM   13  C6  UNK     1      33.771  -6.280  33.924  1.00  0.00     0.051 A 
HETATM   14  C5  UNK     1      33.606  -6.020  35.284  1.00  0.00     0.102 A 
HETATM   15  C1  UNK     1      33.313  -7.062  36.163  1.00  0.00     0.102 A 
HETATM   16  C7  UNK     1      33.184  -8.366  35.681  1.00  0.00     0.040 A 
HETATM   17  C8  UNK     1      33.349  -8.626  34.321  1.00  0.00     0.014 A 
BRANCH  14  18
HETATM   18  O2  UNK     1      33.735  -4.744  35.743  1.00  0.00    -0.353 OA
HETATM   19  C23 UNK     1      32.580  -3.911  35.674  1.00  0.00     0.210 C 
ENDBRANCH  14  18
BRANCH  15  20
HETATM   20  O1  UNK     1      33.149  -6.822  37.493  1.00  0.00    -0.344 OA
BRANCH  20  21
HETATM   21  C2  UNK     1      32.324  -7.730  38.221  1.00  0.00     0.214 C 
BRANCH  21  22
HETATM   22  C3  UNK     1      30.937  -7.165  38.314  1.00  0.00    -0.034 A 
HETATM   23  C10 UNK     1      29.843  -8.021  38.287  1.00  0.00     0.010 A 
HETATM   24  C15 UNK     1      28.553  -7.495  38.375  1.00  0.00     0.019 A 
HETATM   25  C13 UNK     1      28.368  -6.118  38.489  1.00  0.00     0.037 A 
HETATM   26  C16 UNK     1      29.471  -5.266  38.515  1.00  0.00     0.019 A 
HETATM   27  C11 UNK     1      30.760  -5.791  38.427  1.00  0.00     0.010 A 
BRANCH  25  28
HETATM   28  C21 UNK     1      27.023  -5.570  38.579  1.00  0.00     0.176 C 
HETATM   29  O4  UNK     1      25.977  -6.221  38.488  1.00  0.00    -0.646 OA
BRANCH  28  30
HETATM   30  O3  UNK     1      27.023  -4.224  38.781  1.00  0.00    -0.773 OA
HETATM   31  H18 UNK     1      27.807  -3.794  38.378  1.00  0.00     0.167 HD
ENDBRANCH  28  30
ENDBRANCH  25  28
ENDBRANCH  21  22
ENDBRANCH  20  21
ENDBRANCH  15  20
ENDBRANCH   2  12
TORSDOF 8
ENDMDL
MODEL 7
REMARK VINA RESULT:      -8.0     11.596     14.478
REMARK  8 active torsions:
REMARK  status: ('A' for Active; 'I' for Inactive)
REMARK    1  A    between atoms: C1_7  and  O1_2 
REMARK    2  A    between atoms: C2_8  and  O1_2 
REMARK    3  A    between atoms: C5_11  and  O2_3 
REMARK    4  A    between atoms: C21_27  and  O3_4 
REMARK    5  A    between atoms: C2_8  and  C3_9 
REMARK    6  A    between atoms: C4_10  and  C9_15 
REMARK    7  A    between atoms: C12_18  and  C14_20 
REMARK    8  A    between atoms: C13_19  and  C21_27 
ROOT
HETATM    1  N1  UNK     1      28.346  -8.973  30.245  1.00  0.00    -0.191 NA
HETATM    2  C9  UNK     1      31.007  -8.043  32.232  1.00  0.00     0.035 C 
HETATM    3  C12 UNK     1      29.695  -8.369  32.384  1.00  0.00     0.055 C 
HETATM    4  C24 UNK     1      28.956  -8.702  31.195  1.00  0.00     0.100 C 
ENDROOT
BRANCH   3   5
HETATM    5  C14 UNK     1      29.013  -8.403  33.668  1.00  0.00    -0.015 A 
HETATM    6  C17 UNK     1      28.591  -7.214  34.265  1.00  0.00     0.014 A 
HETATM    7  C19 UNK     1      27.937  -7.246  35.497  1.00  0.00     0.024 A 
HETATM    8  C22 UNK     1      27.705  -8.466  36.131  1.00  0.00     0.034 A 
HETATM    9  C20 UNK     1      28.127  -9.655  35.535  1.00  0.00     0.024 A 
HETATM   10 Cl1  UNK     1      26.898  -8.506  37.650  1.00  0.00    -0.084 Cl
HETATM   11  C18 UNK     1      28.781  -9.623  34.303  1.00  0.00     0.014 A 
ENDBRANCH   3   5
BRANCH   2  12
HETATM   12  C4  UNK     1      31.923  -7.653  33.312  1.00  0.00    -0.032 A 
HETATM   13  C6  UNK     1      32.093  -6.309  33.611  1.00  0.00     0.051 A 
HETATM   14  C5  UNK     1      32.962  -5.938  34.637  1.00  0.00     0.102 A 
HETATM   15  C1  UNK     1      33.654  -6.915  35.352  1.00  0.00     0.102 A 
HETATM   16  C7  UNK     1      33.475  -8.264  35.042  1.00  0.00     0.040 A 
HETATM   17  C8  UNK     1      32.605  -8.635  34.016  1.00  0.00     0.014 A 
BRANCH  14  18
HETATM   18  O2  UNK     1      33.129  -4.619  34.930  1.00  0.00    -0.353 OA
HETATM   19  C23 UNK     1      34.374  -4.026  34.567  1.00  0.00     0.210 C 
ENDBRANCH  14  18
BRANCH  15  20
HETATM   20  O1  UNK     1      34.506  -6.567  36.356  1.00  0.00    -0.344 OA
BRANCH  20  21
HETATM   21  C2  UNK     1      34.185  -7.023  37.668  1.00  0.00     0.214 C 
BRANCH  21  22
HETATM   22  C3  UNK     1      32.772  -6.634  37.990  1.00  0.00    -0.034 A 
HETATM   23  C10 UNK     1      32.461  -5.298  38.212  1.00  0.00     0.010 A 
HETATM   24  C15 UNK     1      31.147  -4.935  38.511  1.00  0.00     0.019 A 
HETATM   25  C13 UNK     1      30.155  -5.912  38.585  1.00  0.00     0.037 A 
HETATM   26  C16 UNK     1      30.474  -7.250  38.361  1.00  0.00     0.019 A 
HETATM   27  C11 UNK     1      31.788  -7.613  38.063  1.00  0.00     0.010 A 
BRANCH  25  28
HETATM   28  C21 UNK     1      28.785  -5.534  38.898  1.00  0.00     0.176 C 
HETATM   29  O4  UNK     1      28.057  -6.097  39.723  1.00  0.00    -0.646 OA
BRANCH  28  30
HETATM   30  O3  UNK     1      28.361  -4.464  38.170  1.00  0.00    -0.773 OA
HETATM   31  H18 UNK     1      28.047  -4.729  37.280  1.00  0.00     0.167 HD
ENDBRANCH  28  30
ENDBRANCH  25  28
ENDBRANCH  21  22
ENDBRANCH  20  21
ENDBRANCH  15  20
ENDBRANCH   2  12
TORSDOF 8
ENDMDL
MODEL 8
REMARK VINA RESULT:      -8.0     11.041     13.836
REMARK  8 active torsions:
REMARK  status: ('A' for Active; 'I' for Inactive)
REMARK    1  A    between atoms: C1_7  and  O1_2 
REMARK    2  A    between atoms: C2_8  and  O1_2 
REMARK    3  A    between atoms: C5_11  and  O2_3 
REMARK    4  A    between atoms: C21_27  and  O3_4 
REMARK    5  A    between atoms: C2_8  and  C3_9 
REMARK    6  A    between atoms: C4_10  and  C9_15 
REMARK    7  A    between atoms: C12_18  and  C14_20 
REMARK    8  A    between atoms: C13_19  and  C21_27 
ROOT
HETATM    1  N1  UNK     1      24.934  -6.192  29.977  1.00  0.00    -0.191 NA
HETATM    2  C9  UNK     1      27.593  -6.359  32.166  1.00  0.00     0.035 C 
HETATM    3  C12 UNK     1      27.264  -6.835  30.936  1.00  0.00     0.055 C 
HETATM    4  C24 UNK     1      25.972  -6.474  30.413  1.00  0.00     0.100 C 
ENDROOT
BRANCH   3   5
HETATM    5  C14 UNK     1      28.139  -7.673  30.131  1.00  0.00    -0.015 A 
HETATM    6  C17 UNK     1      29.306  -7.139  29.584  1.00  0.00     0.014 A 
HETATM    7  C19 UNK     1      30.145  -7.942  28.811  1.00  0.00     0.024 A 
HETATM    8  C22 UNK     1      29.818  -9.279  28.588  1.00  0.00     0.034 A 
HETATM    9  C20 UNK     1      28.651  -9.813  29.135  1.00  0.00     0.024 A 
HETATM   10 Cl1  UNK     1      30.853 -10.270  27.636  1.00  0.00    -0.084 Cl
HETATM   11  C18 UNK     1      27.811  -9.010  29.907  1.00  0.00     0.014 A 
ENDBRANCH   3   5
BRANCH   2  12
HETATM   12  C4  UNK     1      28.847  -6.630  32.882  1.00  0.00    -0.032 A 
HETATM   13  C6  UNK     1      28.941  -7.751  33.695  1.00  0.00     0.051 A 
HETATM   14  C5  UNK     1      30.132  -8.008  34.374  1.00  0.00     0.102 A 
HETATM   15  C1  UNK     1      31.216  -7.141  34.234  1.00  0.00     0.102 A 
HETATM   16  C7  UNK     1      31.109  -6.017  33.415  1.00  0.00     0.040 A 
HETATM   17  C8  UNK     1      29.918  -5.760  32.735  1.00  0.00     0.014 A 
BRANCH  14  18
HETATM   18  O2  UNK     1      30.225  -9.108  35.172  1.00  0.00    -0.353 OA
HETATM   19  C23 UNK     1      29.124  -9.375  36.038  1.00  0.00     0.210 C 
ENDBRANCH  14  18
BRANCH  15  20
HETATM   20  O1  UNK     1      32.384  -7.380  34.892  1.00  0.00    -0.344 OA
BRANCH  20  21
HETATM   21  C2  UNK     1      32.957  -6.293  35.614  1.00  0.00     0.214 C 
BRANCH  21  22
HETATM   22  C3  UNK     1      31.932  -5.737  36.559  1.00  0.00    -0.034 A 
HETATM   23  C10 UNK     1      31.321  -6.577  37.482  1.00  0.00     0.010 A 
HETATM   24  C15 UNK     1      30.368  -6.061  38.360  1.00  0.00     0.019 A 
HETATM   25  C13 UNK     1      30.034  -4.708  38.310  1.00  0.00     0.037 A 
HETATM   26  C16 UNK     1      30.653  -3.871  37.382  1.00  0.00     0.019 A 
HETATM   27  C11 UNK     1      31.604  -4.388  36.503  1.00  0.00     0.010 A 
BRANCH  25  28
HETATM   28  C21 UNK     1      29.040  -4.169  39.226  1.00  0.00     0.176 C 
HETATM   29  O4  UNK     1      27.818  -4.320  39.125  1.00  0.00    -0.646 OA
BRANCH  28  30
HETATM   30  O3  UNK     1      29.601  -3.457  40.242  1.00  0.00    -0.773 OA
HETATM   31  H18 UNK     1      28.926  -2.980  40.769  1.00  0.00     0.167 HD
ENDBRANCH  28  30
ENDBRANCH  25  28
ENDBRANCH  21  22
ENDBRANCH  20  21
ENDBRANCH  15  20
ENDBRANCH   2  12
TORSDOF 8
ENDMDL
MODEL 9
REMARK VINA RESULT:      -8.0     12.737     15.926
REMARK  8 active torsions:
REMARK  status: ('A' for Active; 'I' for Inactive)
REMARK    1  A    between atoms: C1_7  and  O1_2 
REMARK    2  A    between atoms: C2_8  and  O1_2 
REMARK    3  A    between atoms: C5_11  and  O2_3 
REMARK    4  A    between atoms: C21_27  and  O3_4 
REMARK    5  A    between atoms: C2_8  and  C3_9 
REMARK    6  A    between atoms: C4_10  and  C9_15 
REMARK    7  A    between atoms: C12_18  and  C14_20 
REMARK    8  A    between atoms: C13_19  and  C21_27 
ROOT
HETATM    1  N1  UNK     1      30.220  -1.977  31.191  1.00  0.00    -0.191 NA
HETATM    2  C9  UNK     1      30.692  -5.136  29.889  1.00  0.00     0.035 C 
HETATM    3  C12 UNK     1      30.234  -4.573  31.040  1.00  0.00     0.055 C 
HETATM    4  C24 UNK     1      30.230  -3.135  31.114  1.00  0.00     0.100 C 
ENDROOT
BRANCH   3   5
HETATM    5  C14 UNK     1      29.752  -5.337  32.179  1.00  0.00    -0.015 A 
HETATM    6  C17 UNK     1      30.641  -5.738  33.177  1.00  0.00     0.014 A 
HETATM    7  C19 UNK     1      30.179  -6.472  34.269  1.00  0.00     0.024 A 
HETATM    8  C22 UNK     1      28.828  -6.804  34.364  1.00  0.00     0.034 A 
HETATM    9  C20 UNK     1      27.939  -6.404  33.367  1.00  0.00     0.024 A 
HETATM   10 Cl1  UNK     1      28.257  -7.709  35.712  1.00  0.00    -0.084 Cl
HETATM   11  C18 UNK     1      28.401  -5.670  32.274  1.00  0.00     0.014 A 
ENDBRANCH   3   5
BRANCH   2  12
HETATM   12  C4  UNK     1      30.798  -6.577  29.624  1.00  0.00    -0.032 A 
HETATM   13  C6  UNK     1      32.031  -7.203  29.740  1.00  0.00     0.051 A 
HETATM   14  C5  UNK     1      32.132  -8.571  29.489  1.00  0.00     0.102 A 
HETATM   15  C1  UNK     1      30.999  -9.299  29.123  1.00  0.00     0.102 A 
HETATM   16  C7  UNK     1      29.765  -8.657  29.009  1.00  0.00     0.040 A 
HETATM   17  C8  UNK     1      29.664  -7.289  29.261  1.00  0.00     0.014 A 
BRANCH  14  18
HETATM   18  O2  UNK     1      33.342  -9.186  29.602  1.00  0.00    -0.353 OA
HETATM   19  C23 UNK     1      34.415  -8.414  30.136  1.00  0.00     0.210 C 
ENDBRANCH  14  18
BRANCH  15  20
HETATM   20  O1  UNK     1      31.084 -10.635  28.875  1.00  0.00    -0.344 OA
BRANCH  20  21
HETATM   21  C2  UNK     1      30.168 -11.483  29.564  1.00  0.00     0.214 C 
BRANCH  21  22
HETATM   22  C3  UNK     1      30.543 -11.533  31.016  1.00  0.00    -0.034 A 
HETATM   23  C10 UNK     1      31.612 -12.322  31.423  1.00  0.00     0.010 A 
HETATM   24  C15 UNK     1      31.962 -12.368  32.773  1.00  0.00     0.019 A 
HETATM   25  C13 UNK     1      31.241 -11.624  33.705  1.00  0.00     0.037 A 
HETATM   26  C16 UNK     1      30.170 -10.833  33.289  1.00  0.00     0.019 A 
HETATM   27  C11 UNK     1      29.819 -10.788  31.940  1.00  0.00     0.010 A 
BRANCH  25  28
HETATM   28  C21 UNK     1      31.605 -11.672  35.113  1.00  0.00     0.176 C 
HETATM   29  O4  UNK     1      31.571 -10.715  35.894  1.00  0.00    -0.646 OA
BRANCH  28  30
HETATM   30  O3  UNK     1      32.000 -12.914  35.506  1.00  0.00    -0.773 OA
HETATM   31  H18 UNK     1      31.972 -13.014  36.481  1.00  0.00     0.167 HD
ENDBRANCH  28  30
ENDBRANCH  25  28
ENDBRANCH  21  22
ENDBRANCH  20  21
ENDBRANCH  15  20
ENDBRANCH   2  12
TORSDOF 8
ENDMDL
MODEL 10
REMARK VINA RESULT:      -8.0     11.599     14.488
REMARK  8 active torsions:
REMARK  status: ('A' for Active; 'I' for Inactive)
REMARK    1  A    between atoms: C1_7  and  O1_2 
REMARK    2  A    between atoms: C2_8  and  O1_2 
REMARK    3  A    between atoms: C5_11  and  O2_3 
REMARK    4  A    between atoms: C21_27  and  O3_4 
REMARK    5  A    between atoms: C2_8  and  C3_9 
REMARK    6  A    between atoms: C4_10  and  C9_15 
REMARK    7  A    between atoms: C12_18  and  C14_20 
REMARK    8  A    between atoms: C13_19  and  C21_27 
ROOT
HETATM    1  N1  UNK     1      32.837  -8.838  28.561  1.00  0.00    -0.191 NA
HETATM    2  C9  UNK     1      32.432  -7.601  31.754  1.00  0.00     0.035 C 
HETATM    3  C12 UNK     1      31.669  -7.824  30.651  1.00  0.00     0.055 C 
HETATM    4  C24 UNK     1      32.324  -8.386  29.498  1.00  0.00     0.100 C 
ENDROOT
BRANCH   3   5
HETATM    5  C14 UNK     1      30.246  -7.534  30.579  1.00  0.00    -0.015 A 
HETATM    6  C17 UNK     1      29.319  -8.577  30.614  1.00  0.00     0.014 A 
HETATM    7  C19 UNK     1      27.954  -8.299  30.544  1.00  0.00     0.024 A 
HETATM    8  C22 UNK     1      27.515  -6.979  30.440  1.00  0.00     0.034 A 
HETATM    9  C20 UNK     1      28.442  -5.937  30.404  1.00  0.00     0.024 A 
HETATM   10 Cl1  UNK     1      25.831  -6.636  30.354  1.00  0.00    -0.084 Cl
HETATM   11  C18 UNK     1      29.807  -6.214  30.474  1.00  0.00     0.014 A 
ENDBRANCH   3   5
BRANCH   2  12
HETATM   12  C4  UNK     1      31.961  -7.017  33.017  1.00  0.00    -0.032 A 
HETATM   13  C6  UNK     1      32.606  -5.904  33.537  1.00  0.00     0.051 A 
HETATM   14  C5  UNK     1      32.158  -5.349  34.736  1.00  0.00     0.102 A 
HETATM   15  C1  UNK     1      31.072  -5.914  35.403  1.00  0.00     0.102 A 
HETATM   16  C7  UNK     1      30.432  -7.033  34.871  1.00  0.00     0.040 A 
HETATM   17  C8  UNK     1      30.879  -7.588  33.671  1.00  0.00     0.014 A 
BRANCH  14  18
HETATM   18  O2  UNK     1      32.791  -4.256  35.246  1.00  0.00    -0.353 OA
HETATM   19  C23 UNK     1      34.139  -4.036  34.835  1.00  0.00     0.210 C 
ENDBRANCH  14  18
BRANCH  15  20
HETATM   20  O1  UNK     1      30.625  -5.382  36.575  1.00  0.00    -0.344 OA
BRANCH  20  21
HETATM   21  C2  UNK     1      31.030  -6.030  37.778  1.00  0.00     0.214 C 
BRANCH  21  22
HETATM   22  C3  UNK     1      29.912  -6.906  38.264  1.00  0.00    -0.034 A 
HETATM   23  C10 UNK     1      30.011  -8.285  38.129  1.00  0.00     0.010 A 
HETATM   24  C15 UNK     1      28.972  -9.099  38.581  1.00  0.00     0.019 A 
HETATM   25  C13 UNK     1      27.842  -8.528  39.165  1.00  0.00     0.037 A 
HETATM   26  C16 UNK     1      27.751  -7.143  39.298  1.00  0.00     0.019 A 
HETATM   27  C11 UNK     1      28.789  -6.329  38.845  1.00  0.00     0.010 A 
BRANCH  25  28
HETATM   28  C21 UNK     1      26.758  -9.376  39.636  1.00  0.00     0.176 C 
HETATM   29  O4  UNK     1      26.896 -10.458  40.216  1.00  0.00    -0.646 OA
BRANCH  28  30
HETATM   30  O3  UNK     1      25.532  -8.849  39.369  1.00  0.00    -0.773 OA
HETATM   31  H18 UNK     1      25.480  -8.486  38.460  1.00  0.00     0.167 HD
ENDBRANCH  28  30
ENDBRANCH  25  28
ENDBRANCH  21  22
ENDBRANCH  20  21
ENDBRANCH  15  20
ENDBRANCH   2  12
TORSDOF 8
ENDMDL
