MODEL 1
REMARK VINA RESULT:      -8.8      0.000      0.000
REMARK  7 active torsions:
REMARK  status: ('A' for Active; 'I' for Inactive)
REMARK    1  A    between atoms: C20_27  and  O3_3 
REMARK    2  A    between atoms: C23_30  and  O3_3 
REMARK    3  A    between atoms: C21_28  and  O4_4 
REMARK    4  A    between atoms: C15_22  and  N1_6 
REMARK    5  A    between atoms: C1_8  and  C4_11 
REMARK    6  A    between atoms: C2_9  and  C5_12 
REMARK    7  A    between atoms: C13_20  and  C20_27 
ROOT
HETATM    1  O1  UNK     1      35.044  -6.449  33.110  1.00  0.00    -0.291 OA
HETATM    2  O2  UNK     1      32.936  -9.398  35.199  1.00  0.00    -0.274 OA
HETATM    3  O5  UNK     1      32.772 -10.636  33.292  1.00  0.00    -0.259 OA
HETATM    4  N2  UNK     1      35.913  -7.979  28.627  1.00  0.00    -0.191 NA
HETATM    5  C1  UNK     1      34.084  -8.701  31.611  1.00  0.00     0.109 C 
HETATM    6  C3  UNK     1      33.866  -8.533  33.104  1.00  0.00     0.066 A 
HETATM    7  C6  UNK     1      34.331  -7.451  33.744  1.00  0.00     0.104 A 
HETATM    8  C7  UNK     1      35.051  -7.663  31.050  1.00  0.00     0.086 C 
HETATM    9  C12 UNK     1      34.101  -7.262  35.174  1.00  0.00     0.033 A 
HETATM   10  C15 UNK     1      35.468  -6.612  31.793  1.00  0.00     0.159 C 
HETATM   11  C16 UNK     1      33.154  -9.609  33.842  1.00  0.00     0.298 A 
HETATM   12  C17 UNK     1      33.399  -8.247  35.864  1.00  0.00     0.092 A 
HETATM   13  C26 UNK     1      34.544  -6.144  35.890  1.00  0.00     0.017 A 
HETATM   14  C27 UNK     1      33.130  -8.149  37.229  1.00  0.00     0.038 A 
HETATM   15  C28 UNK     1      35.527  -7.838  29.712  1.00  0.00     0.100 C 
HETATM   16  C29 UNK     1      34.283  -6.030  37.260  1.00  0.00     0.001 A 
HETATM   17  C30 UNK     1      33.577  -7.031  37.928  1.00  0.00     0.003 A 
ENDROOT
BRANCH   5  18
HETATM   18  C4  UNK     1      32.775  -8.637  30.878  1.00  0.00    -0.043 A 
HETATM   19  C11 UNK     1      31.887  -7.603  31.147  1.00  0.00     0.020 A 
HETATM   20  C13 UNK     1      30.670  -7.543  30.466  1.00  0.00    -0.000 A 
HETATM   21  C21 UNK     1      30.352  -8.519  29.521  1.00  0.00     0.076 A 
HETATM   22  C22 UNK     1      31.250  -9.554  29.257  1.00  0.00     0.038 A 
HETATM   23  C14 UNK     1      32.466  -9.612  29.938  1.00  0.00     0.011 A 
BRANCH  20  24
HETATM   24  C20 UNK     1      29.722  -6.429  30.760  1.00  0.00     0.217 C 
BRANCH  24  25
HETATM   25  O3  UNK     1      30.292  -5.571  31.739  1.00  0.00    -0.347 OA
BRANCH  25  26
HETATM   26  C23 UNK     1      30.024  -5.865  33.050  1.00  0.00     0.069 A 
HETATM   27  C24 UNK     1      28.786  -6.394  33.396  1.00  0.00     0.037 A 
HETATM   28  C18 UNK     1      28.512  -6.693  34.731  1.00  0.00     0.011 A 
HETATM   29  C5  UNK     1      29.478  -6.461  35.710  1.00  0.00    -0.050 A 
HETATM   30  C19 UNK     1      30.718  -5.931  35.355  1.00  0.00     0.011 A 
HETATM   31  C25 UNK     1      30.992  -5.632  34.020  1.00  0.00     0.037 A 
BRANCH  29  32
HETATM   32  C2  UNK     1      29.185  -6.782  37.137  1.00  0.00    -0.024 C 
HETATM   33  C10 UNK     1      27.706  -6.540  37.589  1.00  0.00     0.019 C 
HETATM   34  C8  UNK     1      30.058  -5.922  38.101  1.00  0.00     0.019 C 
HETATM   35  C9  UNK     1      29.474  -8.282  37.451  1.00  0.00     0.019 C 
ENDBRANCH  29  32
ENDBRANCH  25  26
ENDBRANCH  24  25
ENDBRANCH  20  24
BRANCH  21  36
HETATM   36  O4  UNK     1      29.170  -8.476  28.846  1.00  0.00    -0.355 OA
HETATM   37  C31 UNK     1      28.542  -9.724  28.557  1.00  0.00     0.210 C 
ENDBRANCH  21  36
ENDBRANCH   5  18
BRANCH  10  38
HETATM   38  N1  UNK     1      36.319  -5.632  31.364  1.00  0.00    -0.379 N 
HETATM   39  H22 UNK     1      37.234  -5.896  31.022  1.00  0.00     0.158 HD
HETATM   40  H23 UNK     1      36.047  -4.657  31.389  1.00  0.00     0.158 HD
ENDBRANCH  10  38
TORSDOF 7
ENDMDL
MODEL 2
REMARK VINA RESULT:      -8.5      2.791      6.040
REMARK  7 active torsions:
REMARK  status: ('A' for Active; 'I' for Inactive)
REMARK    1  A    between atoms: C20_27  and  O3_3 
REMARK    2  A    between atoms: C23_30  and  O3_3 
REMARK    3  A    between atoms: C21_28  and  O4_4 
REMARK    4  A    between atoms: C15_22  and  N1_6 
REMARK    5  A    between atoms: C1_8  and  C4_11 
REMARK    6  A    between atoms: C2_9  and  C5_12 
REMARK    7  A    between atoms: C13_20  and  C20_27 
ROOT
HETATM    1  O1  UNK     1      30.862  -8.052  30.306  1.00  0.00    -0.291 OA
HETATM    2  O2  UNK     1      29.833 -10.513  33.529  1.00  0.00    -0.274 OA
HETATM    3  O5  UNK     1      29.344  -8.673  34.783  1.00  0.00    -0.259 OA
HETATM    4  N2  UNK     1      29.865  -3.471  31.413  1.00  0.00    -0.191 NA
HETATM    5  C1  UNK     1      30.116  -6.770  32.765  1.00  0.00     0.109 C 
HETATM    6  C3  UNK     1      30.153  -8.276  32.582  1.00  0.00     0.066 A 
HETATM    7  C6  UNK     1      30.522  -8.813  31.410  1.00  0.00     0.104 A 
HETATM    8  C7  UNK     1      30.300  -6.025  31.446  1.00  0.00     0.086 C 
HETATM    9  C12 UNK     1      30.592 -10.261  31.231  1.00  0.00     0.033 A 
HETATM   10  C15 UNK     1      30.662  -6.672  30.314  1.00  0.00     0.159 C 
HETATM   11  C16 UNK     1      29.743  -9.138  33.720  1.00  0.00     0.298 A 
HETATM   12  C17 UNK     1      30.247 -11.075  32.306  1.00  0.00     0.092 A 
HETATM   13  C26 UNK     1      30.989 -10.877  30.038  1.00  0.00     0.017 A 
HETATM   14  C27 UNK     1      30.289 -12.467  32.227  1.00  0.00     0.038 A 
HETATM   15  C28 UNK     1      30.060  -4.615  31.428  1.00  0.00     0.100 C 
HETATM   16  C29 UNK     1      31.035 -12.272  29.941  1.00  0.00     0.001 A 
HETATM   17  C30 UNK     1      30.686 -13.066  31.034  1.00  0.00     0.003 A 
ENDROOT
BRANCH   5  18
HETATM   18  C4  UNK     1      31.159  -6.334  33.753  1.00  0.00    -0.043 A 
HETATM   19  C11 UNK     1      30.772  -5.701  34.927  1.00  0.00     0.020 A 
HETATM   20  C13 UNK     1      31.742  -5.294  35.844  1.00  0.00    -0.000 A 
HETATM   21  C21 UNK     1      33.092  -5.525  35.580  1.00  0.00     0.076 A 
HETATM   22  C22 UNK     1      33.472  -6.162  34.398  1.00  0.00     0.038 A 
HETATM   23  C14 UNK     1      32.501  -6.567  33.481  1.00  0.00     0.011 A 
BRANCH  20  24
HETATM   24  C20 UNK     1      31.317  -4.617  37.105  1.00  0.00     0.217 C 
BRANCH  24  25
HETATM   25  O3  UNK     1      31.396  -5.537  38.184  1.00  0.00    -0.347 OA
BRANCH  25  26
HETATM   26  C23 UNK     1      30.335  -6.389  38.348  1.00  0.00     0.069 A 
HETATM   27  C24 UNK     1      29.111  -5.889  38.779  1.00  0.00     0.037 A 
HETATM   28  C18 UNK     1      28.032  -6.755  38.948  1.00  0.00     0.011 A 
HETATM   29  C5  UNK     1      28.182  -8.117  38.684  1.00  0.00    -0.050 A 
HETATM   30  C19 UNK     1      29.413  -8.611  38.251  1.00  0.00     0.011 A 
HETATM   31  C25 UNK     1      30.493  -7.745  38.083  1.00  0.00     0.037 A 
BRANCH  29  32
HETATM   32  C2  UNK     1      27.027  -9.043  38.863  1.00  0.00    -0.024 C 
HETATM   33  C10 UNK     1      25.636  -8.351  39.055  1.00  0.00     0.019 C 
HETATM   34  C8  UNK     1      27.216  -9.947  40.120  1.00  0.00     0.019 C 
HETATM   35  C9  UNK     1      26.856  -9.981  37.628  1.00  0.00     0.019 C 
ENDBRANCH  29  32
ENDBRANCH  25  26
ENDBRANCH  24  25
ENDBRANCH  20  24
BRANCH  21  36
HETATM   36  O4  UNK     1      34.052  -5.136  36.464  1.00  0.00    -0.355 OA
HETATM   37  C31 UNK     1      35.307  -5.809  36.396  1.00  0.00     0.210 C 
ENDBRANCH  21  36
ENDBRANCH   5  18
BRANCH  10  38
HETATM   38  N1  UNK     1      30.862  -6.081  29.098  1.00  0.00    -0.379 N 
HETATM   39  H22 UNK     1      31.277  -6.625  28.352  1.00  0.00     0.158 HD
HETATM   40  H23 UNK     1      30.605  -5.115  28.939  1.00  0.00     0.158 HD
ENDBRANCH  10  38
TORSDOF 7
ENDMDL
MODEL 3
REMARK VINA RESULT:      -8.4      1.966      5.798
REMARK  7 active torsions:
REMARK  status: ('A' for Active; 'I' for Inactive)
REMARK    1  A    between atoms: C20_27  and  O3_3 
REMARK    2  A    between atoms: C23_30  and  O3_3 
REMARK    3  A    between atoms: C21_28  and  O4_4 
REMARK    4  A    between atoms: C15_22  and  N1_6 
REMARK    5  A    between atoms: C1_8  and  C4_11 
REMARK    6  A    between atoms: C2_9  and  C5_12 
REMARK    7  A    between atoms: C13_20  and  C20_27 
ROOT
HETATM    1  O1  UNK     1      32.741  -8.905  30.205  1.00  0.00    -0.291 OA
HETATM    2  O2  UNK     1      28.962  -7.386  31.160  1.00  0.00    -0.274 OA
HETATM    3  O5  UNK     1      29.911  -5.962  32.667  1.00  0.00    -0.259 OA
HETATM    4  N2  UNK     1      36.117  -6.354  32.507  1.00  0.00    -0.191 NA
HETATM    5  C1  UNK     1      32.596  -6.927  32.281  1.00  0.00     0.109 C 
HETATM    6  C3  UNK     1      31.384  -7.439  31.525  1.00  0.00     0.066 A 
HETATM    7  C6  UNK     1      31.518  -8.374  30.572  1.00  0.00     0.104 A 
HETATM    8  C7  UNK     1      33.906  -7.412  31.666  1.00  0.00     0.086 C 
HETATM    9  C12 UNK     1      30.356  -8.897  29.859  1.00  0.00     0.033 A 
HETATM   10  C15 UNK     1      33.923  -8.354  30.695  1.00  0.00     0.159 C 
HETATM   11  C16 UNK     1      30.053  -6.860  31.843  1.00  0.00     0.298 A 
HETATM   12  C17 UNK     1      29.101  -8.387  30.180  1.00  0.00     0.092 A 
HETATM   13  C26 UNK     1      30.432  -9.886  28.871  1.00  0.00     0.017 A 
HETATM   14  C27 UNK     1      27.936  -8.831  29.554  1.00  0.00     0.038 A 
HETATM   15  C28 UNK     1      35.126  -6.827  32.130  1.00  0.00     0.100 C 
HETATM   16  C29 UNK     1      29.274 -10.341  28.232  1.00  0.00     0.001 A 
HETATM   17  C30 UNK     1      28.028  -9.815  28.574  1.00  0.00     0.003 A 
ENDROOT
BRANCH   5  18
HETATM   18  C4  UNK     1      32.524  -7.331  33.726  1.00  0.00    -0.043 A 
HETATM   19  C11 UNK     1      32.346  -6.360  34.703  1.00  0.00     0.020 A 
HETATM   20  C13 UNK     1      32.281  -6.736  36.045  1.00  0.00    -0.000 A 
HETATM   21  C21 UNK     1      32.394  -8.081  36.399  1.00  0.00     0.076 A 
HETATM   22  C22 UNK     1      32.573  -9.050  35.411  1.00  0.00     0.038 A 
HETATM   23  C14 UNK     1      32.638  -8.673  34.069  1.00  0.00     0.011 A 
BRANCH  20  24
HETATM   24  C20 UNK     1      32.087  -5.688  37.090  1.00  0.00     0.217 C 
BRANCH  24  25
HETATM   25  O3  UNK     1      30.760  -5.185  37.012  1.00  0.00    -0.347 OA
BRANCH  25  26
HETATM   26  C23 UNK     1      29.751  -6.051  37.342  1.00  0.00     0.069 A 
HETATM   27  C24 UNK     1      28.953  -6.593  36.340  1.00  0.00     0.037 A 
HETATM   28  C18 UNK     1      27.925  -7.473  36.676  1.00  0.00     0.011 A 
HETATM   29  C5  UNK     1      27.701  -7.807  38.012  1.00  0.00    -0.050 A 
HETATM   30  C19 UNK     1      28.505  -7.260  39.011  1.00  0.00     0.011 A 
HETATM   31  C25 UNK     1      29.533  -6.379  38.676  1.00  0.00     0.037 A 
BRANCH  29  32
HETATM   32  C2  UNK     1      26.602  -8.749  38.370  1.00  0.00    -0.024 C 
HETATM   33  C10 UNK     1      25.225  -8.081  38.697  1.00  0.00     0.019 C 
HETATM   34  C8  UNK     1      26.966  -9.588  39.635  1.00  0.00     0.019 C 
HETATM   35  C9  UNK     1      26.312  -9.749  37.209  1.00  0.00     0.019 C 
ENDBRANCH  29  32
ENDBRANCH  25  26
ENDBRANCH  24  25
ENDBRANCH  20  24
BRANCH  21  36
HETATM   36  O4  UNK     1      32.332  -8.466  37.704  1.00  0.00    -0.355 OA
HETATM   37  C31 UNK     1      31.381  -9.475  38.038  1.00  0.00     0.210 C 
ENDBRANCH  21  36
ENDBRANCH   5  18
BRANCH  10  38
HETATM   38  N1  UNK     1      35.050  -8.853  30.102  1.00  0.00    -0.379 N 
HETATM   39  H22 UNK     1      35.360  -9.784  30.349  1.00  0.00     0.158 HD
HETATM   40  H23 UNK     1      35.572  -8.305  29.430  1.00  0.00     0.158 HD
ENDBRANCH  10  38
TORSDOF 7
ENDMDL
MODEL 4
REMARK VINA RESULT:      -8.3      2.747      6.395
REMARK  7 active torsions:
REMARK  status: ('A' for Active; 'I' for Inactive)
REMARK    1  A    between atoms: C20_27  and  O3_3 
REMARK    2  A    between atoms: C23_30  and  O3_3 
REMARK    3  A    between atoms: C21_28  and  O4_4 
REMARK    4  A    between atoms: C15_22  and  N1_6 
REMARK    5  A    between atoms: C1_8  and  C4_11 
REMARK    6  A    between atoms: C2_9  and  C5_12 
REMARK    7  A    between atoms: C13_20  and  C20_27 
ROOT
HETATM    1  O1  UNK     1      33.594 -11.657  31.613  1.00  0.00    -0.291 OA
HETATM    2  O2  UNK     1      33.602  -8.128  29.366  1.00  0.00    -0.274 OA
HETATM    3  O5  UNK     1      35.567  -7.508  30.341  1.00  0.00    -0.259 OA
HETATM    4  N2  UNK     1      37.716 -11.987  34.083  1.00  0.00    -0.191 NA
HETATM    5  C1  UNK     1      35.724  -9.791  32.087  1.00  0.00     0.109 C 
HETATM    6  C3  UNK     1      34.618  -9.561  31.074  1.00  0.00     0.066 A 
HETATM    7  C6  UNK     1      33.644 -10.468  30.908  1.00  0.00     0.104 A 
HETATM    8  C7  UNK     1      35.700 -11.207  32.655  1.00  0.00     0.086 C 
HETATM    9  C12 UNK     1      32.557 -10.244  29.958  1.00  0.00     0.033 A 
HETATM   10  C15 UNK     1      34.668 -12.048  32.410  1.00  0.00     0.159 C 
HETATM   11  C16 UNK     1      34.656  -8.324  30.252  1.00  0.00     0.298 A 
HETATM   12  C17 UNK     1      32.565  -9.069  29.213  1.00  0.00     0.092 A 
HETATM   13  C26 UNK     1      31.505 -11.145  29.758  1.00  0.00     0.017 A 
HETATM   14  C27 UNK     1      31.566  -8.770  28.287  1.00  0.00     0.038 A 
HETATM   15  C28 UNK     1      36.814 -11.638  33.443  1.00  0.00     0.100 C 
HETATM   16  C29 UNK     1      30.495 -10.861  28.832  1.00  0.00     0.001 A 
HETATM   17  C30 UNK     1      30.525  -9.675  28.098  1.00  0.00     0.003 A 
ENDROOT
BRANCH   5  18
HETATM   18  C4  UNK     1      35.634  -8.788  33.201  1.00  0.00    -0.043 A 
HETATM   19  C11 UNK     1      34.444  -8.646  33.905  1.00  0.00     0.020 A 
HETATM   20  C13 UNK     1      34.361  -7.713  34.939  1.00  0.00    -0.000 A 
HETATM   21  C21 UNK     1      35.469  -6.930  35.261  1.00  0.00     0.076 A 
HETATM   22  C22 UNK     1      36.660  -7.079  34.550  1.00  0.00     0.038 A 
HETATM   23  C14 UNK     1      36.742  -8.011  33.516  1.00  0.00     0.011 A 
BRANCH  20  24
HETATM   24  C20 UNK     1      33.080  -7.568  35.691  1.00  0.00     0.217 C 
BRANCH  24  25
HETATM   25  O3  UNK     1      32.192  -8.612  35.314  1.00  0.00    -0.347 OA
BRANCH  25  26
HETATM   26  C23 UNK     1      31.299  -8.333  34.313  1.00  0.00     0.069 A 
HETATM   27  C24 UNK     1      30.777  -7.049  34.195  1.00  0.00     0.037 A 
HETATM   28  C18 UNK     1      29.868  -6.765  33.177  1.00  0.00     0.011 A 
HETATM   29  C5  UNK     1      29.486  -7.765  32.282  1.00  0.00    -0.050 A 
HETATM   30  C19 UNK     1      30.014  -9.050  32.407  1.00  0.00     0.011 A 
HETATM   31  C25 UNK     1      30.923  -9.335  33.425  1.00  0.00     0.037 A 
BRANCH  29  32
HETATM   32  C2  UNK     1      28.514  -7.460  31.193  1.00  0.00    -0.024 C 
HETATM   33  C10 UNK     1      27.861  -8.706  30.508  1.00  0.00     0.019 C 
HETATM   34  C8  UNK     1      29.192  -6.661  30.038  1.00  0.00     0.019 C 
HETATM   35  C9  UNK     1      27.322  -6.604  31.722  1.00  0.00     0.019 C 
ENDBRANCH  29  32
ENDBRANCH  25  26
ENDBRANCH  24  25
ENDBRANCH  20  24
BRANCH  21  36
HETATM   36  O4  UNK     1      35.406  -6.015  36.269  1.00  0.00    -0.355 OA
HETATM   37  C31 UNK     1      34.857  -4.738  35.952  1.00  0.00     0.210 C 
ENDBRANCH  21  36
ENDBRANCH   5  18
BRANCH  10  38
HETATM   38  N1  UNK     1      34.561 -13.324  32.890  1.00  0.00    -0.379 N 
HETATM   39  H22 UNK     1      34.137 -14.032  32.304  1.00  0.00     0.158 HD
HETATM   40  H23 UNK     1      34.894 -13.563  33.816  1.00  0.00     0.158 HD
ENDBRANCH  10  38
TORSDOF 7
ENDMDL
MODEL 5
REMARK VINA RESULT:      -8.2      2.547      6.887
REMARK  7 active torsions:
REMARK  status: ('A' for Active; 'I' for Inactive)
REMARK    1  A    between atoms: C20_27  and  O3_3 
REMARK    2  A    between atoms: C23_30  and  O3_3 
REMARK    3  A    between atoms: C21_28  and  O4_4 
REMARK    4  A    between atoms: C15_22  and  N1_6 
REMARK    5  A    between atoms: C1_8  and  C4_11 
REMARK    6  A    between atoms: C2_9  and  C5_12 
REMARK    7  A    between atoms: C13_20  and  C20_27 
ROOT
HETATM    1  O1  UNK     1      32.764  -9.264  30.563  1.00  0.00    -0.291 OA
HETATM    2  O2  UNK     1      29.246  -7.002  30.660  1.00  0.00    -0.274 OA
HETATM    3  O5  UNK     1      30.319  -5.378  31.845  1.00  0.00    -0.259 OA
HETATM    4  N2  UNK     1      36.360  -6.708  32.495  1.00  0.00    -0.191 NA
HETATM    5  C1  UNK     1      32.818  -6.796  32.028  1.00  0.00     0.109 C 
HETATM    6  C3  UNK     1      31.591  -7.311  31.298  1.00  0.00     0.066 A 
HETATM    7  C6  UNK     1      31.628  -8.478  30.640  1.00  0.00     0.104 A 
HETATM    8  C7  UNK     1      34.064  -7.617  31.711  1.00  0.00     0.086 C 
HETATM    9  C12 UNK     1      30.445  -8.999  29.959  1.00  0.00     0.033 A 
HETATM   10  C15 UNK     1      33.987  -8.781  31.025  1.00  0.00     0.159 C 
HETATM   11  C16 UNK     1      30.361  -6.477  31.303  1.00  0.00     0.298 A 
HETATM   12  C17 UNK     1      29.278  -8.242  29.994  1.00  0.00     0.092 A 
HETATM   13  C26 UNK     1      30.419 -10.221  29.275  1.00  0.00     0.017 A 
HETATM   14  C27 UNK     1      28.101  -8.663  29.375  1.00  0.00     0.038 A 
HETATM   15  C28 UNK     1      35.332  -7.115  32.144  1.00  0.00     0.100 C 
HETATM   16  C29 UNK     1      29.247 -10.657  28.648  1.00  0.00     0.001 A 
HETATM   17  C30 UNK     1      28.089  -9.880  28.699  1.00  0.00     0.003 A 
ENDROOT
BRANCH   5  18
HETATM   18  C4  UNK     1      32.577  -6.775  33.511  1.00  0.00    -0.043 A 
HETATM   19  C11 UNK     1      32.234  -7.951  34.168  1.00  0.00     0.020 A 
HETATM   20  C13 UNK     1      32.010  -7.931  35.545  1.00  0.00    -0.000 A 
HETATM   21  C21 UNK     1      32.130  -6.735  36.254  1.00  0.00     0.076 A 
HETATM   22  C22 UNK     1      32.475  -5.560  35.586  1.00  0.00     0.038 A 
HETATM   23  C14 UNK     1      32.699  -5.581  34.209  1.00  0.00     0.011 A 
BRANCH  20  24
HETATM   24  C20 UNK     1      31.644  -9.198  36.244  1.00  0.00     0.217 C 
BRANCH  24  25
HETATM   25  O3  UNK     1      30.473  -9.742  35.650  1.00  0.00    -0.347 OA
BRANCH  25  26
HETATM   26  C23 UNK     1      30.656 -10.696  34.684  1.00  0.00     0.069 A 
HETATM   27  C24 UNK     1      31.570 -11.723  34.896  1.00  0.00     0.037 A 
HETATM   28  C18 UNK     1      31.758 -12.694  33.913  1.00  0.00     0.011 A 
HETATM   29  C5  UNK     1      31.032 -12.632  32.723  1.00  0.00    -0.050 A 
HETATM   30  C19 UNK     1      30.117 -11.600  32.518  1.00  0.00     0.011 A 
HETATM   31  C25 UNK     1      29.929 -10.629  33.501  1.00  0.00     0.037 A 
BRANCH  29  32
HETATM   32  C2  UNK     1      31.233 -13.671  31.673  1.00  0.00    -0.024 C 
HETATM   33  C10 UNK     1      30.185 -13.661  30.510  1.00  0.00     0.019 C 
HETATM   34  C8  UNK     1      31.167 -15.108  32.277  1.00  0.00     0.019 C 
HETATM   35  C9  UNK     1      32.622 -13.515  30.980  1.00  0.00     0.019 C 
ENDBRANCH  29  32
ENDBRANCH  25  26
ENDBRANCH  24  25
ENDBRANCH  20  24
BRANCH  21  36
HETATM   36  O4  UNK     1      31.916  -6.698  37.598  1.00  0.00    -0.355 OA
HETATM   37  C31 UNK     1      32.445  -5.581  38.309  1.00  0.00     0.210 C 
ENDBRANCH  21  36
ENDBRANCH   5  18
BRANCH  10  38
HETATM   38  N1  UNK     1      35.048  -9.583  30.712  1.00  0.00    -0.379 N 
HETATM   39  H22 UNK     1      34.897 -10.380  30.107  1.00  0.00     0.158 HD
HETATM   40  H23 UNK     1      35.972  -9.392  31.079  1.00  0.00     0.158 HD
ENDBRANCH  10  38
TORSDOF 7
ENDMDL
MODEL 6
REMARK VINA RESULT:      -8.2      2.687      6.089
REMARK  7 active torsions:
REMARK  status: ('A' for Active; 'I' for Inactive)
REMARK    1  A    between atoms: C20_27  and  O3_3 
REMARK    2  A    between atoms: C23_30  and  O3_3 
REMARK    3  A    between atoms: C21_28  and  O4_4 
REMARK    4  A    between atoms: C15_22  and  N1_6 
REMARK    5  A    between atoms: C1_8  and  C4_11 
REMARK    6  A    between atoms: C2_9  and  C5_12 
REMARK    7  A    between atoms: C13_20  and  C20_27 
ROOT
HETATM    1  O1  UNK     1      29.946 -10.460  30.384  1.00  0.00    -0.291 OA
HETATM    2  O2  UNK     1      30.510  -6.361  29.763  1.00  0.00    -0.274 OA
HETATM    3  O5  UNK     1      32.746  -6.706  29.490  1.00  0.00    -0.259 OA
HETATM    4  N2  UNK     1      34.103 -12.775  29.640  1.00  0.00    -0.191 NA
HETATM    5  C1  UNK     1      32.639  -9.536  30.011  1.00  0.00     0.109 C 
HETATM    6  C3  UNK     1      31.428  -8.621  29.994  1.00  0.00     0.066 A 
HETATM    7  C6  UNK     1      30.196  -9.114  30.185  1.00  0.00     0.104 A 
HETATM    8  C7  UNK     1      32.245 -11.010  30.025  1.00  0.00     0.086 C 
HETATM    9  C12 UNK     1      29.027  -8.239  30.201  1.00  0.00     0.033 A 
HETATM   10  C15 UNK     1      30.963 -11.397  30.214  1.00  0.00     0.159 C 
HETATM   11  C16 UNK     1      31.638  -7.174  29.728  1.00  0.00     0.298 A 
HETATM   12  C17 UNK     1      29.220  -6.876  29.994  1.00  0.00     0.092 A 
HETATM   13  C26 UNK     1      27.720  -8.694  30.418  1.00  0.00     0.017 A 
HETATM   14  C27 UNK     1      28.163  -5.967  29.997  1.00  0.00     0.038 A 
HETATM   15  C28 UNK     1      33.272 -11.985  29.812  1.00  0.00     0.100 C 
HETATM   16  C29 UNK     1      26.648  -7.795  30.423  1.00  0.00     0.001 A 
HETATM   17  C30 UNK     1      26.869  -6.434  30.213  1.00  0.00     0.003 A 
ENDROOT
BRANCH   5  18
HETATM   18  C4  UNK     1      33.516  -9.225  31.190  1.00  0.00    -0.043 A 
HETATM   19  C11 UNK     1      32.973  -9.218  32.468  1.00  0.00     0.020 A 
HETATM   20  C13 UNK     1      33.788  -8.929  33.563  1.00  0.00    -0.000 A 
HETATM   21  C21 UNK     1      35.141  -8.648  33.370  1.00  0.00     0.076 A 
HETATM   22  C22 UNK     1      35.679  -8.658  32.082  1.00  0.00     0.038 A 
HETATM   23  C14 UNK     1      34.862  -8.947  30.988  1.00  0.00     0.011 A 
BRANCH  20  24
HETATM   24  C20 UNK     1      33.197  -8.925  34.934  1.00  0.00     0.217 C 
BRANCH  24  25
HETATM   25  O3  UNK     1      32.208  -9.941  35.023  1.00  0.00    -0.347 OA
BRANCH  25  26
HETATM   26  C23 UNK     1      31.185  -9.731  35.910  1.00  0.00     0.069 A 
HETATM   27  C24 UNK     1      29.916  -9.420  35.436  1.00  0.00     0.037 A 
HETATM   28  C18 UNK     1      28.875  -9.205  36.339  1.00  0.00     0.011 A 
HETATM   29  C5  UNK     1      29.109  -9.303  37.711  1.00  0.00    -0.050 A 
HETATM   30  C19 UNK     1      30.385  -9.616  38.179  1.00  0.00     0.011 A 
HETATM   31  C25 UNK     1      31.426  -9.831  37.276  1.00  0.00     0.037 A 
BRANCH  29  32
HETATM   32  C2  UNK     1      27.996  -9.074  38.675  1.00  0.00    -0.024 C 
HETATM   33  C10 UNK     1      27.975 -10.030  39.915  1.00  0.00     0.019 C 
HETATM   34  C8  UNK     1      26.606  -9.256  37.990  1.00  0.00     0.019 C 
HETATM   35  C9  UNK     1      28.045  -7.631  39.266  1.00  0.00     0.019 C 
ENDBRANCH  29  32
ENDBRANCH  25  26
ENDBRANCH  24  25
ENDBRANCH  20  24
BRANCH  21  36
HETATM   36  O4  UNK     1      35.952  -8.364  34.427  1.00  0.00    -0.355 OA
HETATM   37  C31 UNK     1      37.147  -7.638  34.151  1.00  0.00     0.210 C 
ENDBRANCH  21  36
ENDBRANCH   5  18
BRANCH  10  38
HETATM   38  N1  UNK     1      30.528 -12.693  30.255  1.00  0.00    -0.379 N 
HETATM   39  H22 UNK     1      29.534 -12.873  30.308  1.00  0.00     0.158 HD
HETATM   40  H23 UNK     1      31.184 -13.464  30.237  1.00  0.00     0.158 HD
ENDBRANCH  10  38
TORSDOF 7
ENDMDL
MODEL 7
REMARK VINA RESULT:      -8.1     31.294     34.439
REMARK  7 active torsions:
REMARK  status: ('A' for Active; 'I' for Inactive)
REMARK    1  A    between atoms: C20_27  and  O3_3 
REMARK    2  A    between atoms: C23_30  and  O3_3 
REMARK    3  A    between atoms: C21_28  and  O4_4 
REMARK    4  A    between atoms: C15_22  and  N1_6 
REMARK    5  A    between atoms: C1_8  and  C4_11 
REMARK    6  A    between atoms: C2_9  and  C5_12 
REMARK    7  A    between atoms: C13_20  and  C20_27 
ROOT
HETATM    1  O1  UNK     1      16.890   8.165   9.648  1.00  0.00    -0.291 OA
HETATM    2  O2  UNK     1      13.772  10.365  11.364  1.00  0.00    -0.274 OA
HETATM    3  O5  UNK     1      12.571   8.449  11.647  1.00  0.00    -0.259 OA
HETATM    4  N2  UNK     1      15.885   3.464   9.954  1.00  0.00    -0.191 NA
HETATM    5  C1  UNK     1      14.512   6.736  10.387  1.00  0.00     0.109 C 
HETATM    6  C3  UNK     1      14.688   8.230  10.587  1.00  0.00     0.066 A 
HETATM    7  C6  UNK     1      15.821   8.840  10.210  1.00  0.00     0.104 A 
HETATM    8  C7  UNK     1      15.809   6.055   9.961  1.00  0.00     0.086 C 
HETATM    9  C12 UNK     1      15.991  10.282  10.369  1.00  0.00     0.033 A 
HETATM   10  C15 UNK     1      16.902   6.772   9.613  1.00  0.00     0.159 C 
HETATM   11  C16 UNK     1      13.592   8.992  11.238  1.00  0.00     0.298 A 
HETATM   12  C17 UNK     1      14.951  11.009  10.942  1.00  0.00     0.092 A 
HETATM   13  C26 UNK     1      17.142  10.976   9.975  1.00  0.00     0.017 A 
HETATM   14  C27 UNK     1      15.025  12.389  11.128  1.00  0.00     0.038 A 
HETATM   15  C28 UNK     1      15.851   4.624   9.958  1.00  0.00     0.100 C 
HETATM   16  C29 UNK     1      17.232  12.360  10.156  1.00  0.00     0.001 A 
HETATM   17  C30 UNK     1      16.175  13.066  10.731  1.00  0.00     0.003 A 
ENDROOT
BRANCH   5  18
HETATM   18  C4  UNK     1      13.433   6.464   9.378  1.00  0.00    -0.043 A 
HETATM   19  C11 UNK     1      12.315   5.726   9.749  1.00  0.00     0.020 A 
HETATM   20  C13 UNK     1      11.313   5.473   8.812  1.00  0.00    -0.000 A 
HETATM   21  C21 UNK     1      11.437   5.961   7.510  1.00  0.00     0.076 A 
HETATM   22  C22 UNK     1      12.562   6.701   7.147  1.00  0.00     0.038 A 
HETATM   23  C14 UNK     1      13.564   6.953   8.085  1.00  0.00     0.011 A 
BRANCH  20  24
HETATM   24  C20 UNK     1      10.115   4.682   9.218  1.00  0.00     0.217 C 
BRANCH  24  25
HETATM   25  O3  UNK     1       8.948   5.274   8.663  1.00  0.00    -0.347 OA
BRANCH  25  26
HETATM   26  C23 UNK     1       8.248   6.133   9.469  1.00  0.00     0.069 A 
HETATM   27  C24 UNK     1       8.486   7.501   9.386  1.00  0.00     0.037 A 
HETATM   28  C18 UNK     1       7.775   8.375  10.207  1.00  0.00     0.011 A 
HETATM   29  C5  UNK     1       6.830   7.877  11.105  1.00  0.00    -0.050 A 
HETATM   30  C19 UNK     1       6.597   6.504  11.181  1.00  0.00     0.011 A 
HETATM   31  C25 UNK     1       7.308   5.629  10.361  1.00  0.00     0.037 A 
BRANCH  29  32
HETATM   32  C2  UNK     1       6.069   8.813  11.981  1.00  0.00    -0.024 C 
HETATM   33  C10 UNK     1       6.742  10.206  12.221  1.00  0.00     0.019 C 
HETATM   34  C8  UNK     1       5.853   8.208  13.403  1.00  0.00     0.019 C 
HETATM   35  C9  UNK     1       4.662   9.130  11.386  1.00  0.00     0.019 C 
ENDBRANCH  29  32
ENDBRANCH  25  26
ENDBRANCH  24  25
ENDBRANCH  20  24
BRANCH  21  36
HETATM   36  O4  UNK     1      10.468   5.724   6.583  1.00  0.00    -0.355 OA
HETATM   37  C31 UNK     1      10.220   6.753   5.627  1.00  0.00     0.210 C 
ENDBRANCH  21  36
ENDBRANCH   5  18
BRANCH  10  38
HETATM   38  N1  UNK     1      18.096   6.243   9.207  1.00  0.00    -0.379 N 
HETATM   39  H22 UNK     1      18.286   6.172   8.215  1.00  0.00     0.158 HD
HETATM   40  H23 UNK     1      18.780   5.922   9.880  1.00  0.00     0.158 HD
ENDBRANCH  10  38
TORSDOF 7
ENDMDL
MODEL 8
REMARK VINA RESULT:      -8.0     31.531     34.195
REMARK  7 active torsions:
REMARK  status: ('A' for Active; 'I' for Inactive)
REMARK    1  A    between atoms: C20_27  and  O3_3 
REMARK    2  A    between atoms: C23_30  and  O3_3 
REMARK    3  A    between atoms: C21_28  and  O4_4 
REMARK    4  A    between atoms: C15_22  and  N1_6 
REMARK    5  A    between atoms: C1_8  and  C4_11 
REMARK    6  A    between atoms: C2_9  and  C5_12 
REMARK    7  A    between atoms: C13_20  and  C20_27 
ROOT
HETATM    1  O1  UNK     1      16.920   8.537   9.983  1.00  0.00    -0.291 OA
HETATM    2  O2  UNK     1      13.965  10.793  11.903  1.00  0.00    -0.274 OA
HETATM    3  O5  UNK     1      12.625   8.953  12.011  1.00  0.00    -0.259 OA
HETATM    4  N2  UNK     1      15.571   3.914   9.860  1.00  0.00    -0.191 NA
HETATM    5  C1  UNK     1      14.440   7.224  10.594  1.00  0.00     0.109 C 
HETATM    6  C3  UNK     1      14.725   8.677  10.930  1.00  0.00     0.066 A 
HETATM    7  C6  UNK     1      15.901   9.234  10.608  1.00  0.00     0.104 A 
HETATM    8  C7  UNK     1      15.685   6.491  10.104  1.00  0.00     0.086 C 
HETATM    9  C12 UNK     1      16.176  10.639  10.898  1.00  0.00     0.033 A 
HETATM   10  C15 UNK     1      16.829   7.155   9.820  1.00  0.00     0.159 C 
HETATM   11  C16 UNK     1      13.684   9.454  11.651  1.00  0.00     0.298 A 
HETATM   12  C17 UNK     1      15.190  11.385  11.538  1.00  0.00     0.092 A 
HETATM   13  C26 UNK     1      17.376  11.279  10.567  1.00  0.00     0.017 A 
HETATM   14  C27 UNK     1      15.364  12.732  11.850  1.00  0.00     0.038 A 
HETATM   15  C28 UNK     1      15.622   5.068   9.970  1.00  0.00     0.100 C 
HETATM   16  C29 UNK     1      17.567  12.631  10.874  1.00  0.00     0.001 A 
HETATM   17  C30 UNK     1      16.562  13.356  11.514  1.00  0.00     0.003 A 
ENDROOT
BRANCH   5  18
HETATM   18  C4  UNK     1      13.348   7.127   9.568  1.00  0.00    -0.043 A 
HETATM   19  C11 UNK     1      12.241   6.324   9.816  1.00  0.00     0.020 A 
HETATM   20  C13 UNK     1      11.227   6.233   8.862  1.00  0.00    -0.000 A 
HETATM   21  C21 UNK     1      11.328   6.945   7.667  1.00  0.00     0.076 A 
HETATM   22  C22 UNK     1      12.443   7.749   7.426  1.00  0.00     0.038 A 
HETATM   23  C14 UNK     1      13.456   7.839   8.380  1.00  0.00     0.011 A 
BRANCH  20  24
HETATM   24  C20 UNK     1      10.040   5.370   9.137  1.00  0.00     0.217 C 
BRANCH  24  25
HETATM   25  O3  UNK     1       8.947   6.186   9.536  1.00  0.00    -0.347 OA
BRANCH  25  26
HETATM   26  C23 UNK     1       7.913   5.561  10.181  1.00  0.00     0.069 A 
HETATM   27  C24 UNK     1       7.092   6.291  11.034  1.00  0.00     0.037 A 
HETATM   28  C18 UNK     1       6.040   5.655  11.692  1.00  0.00     0.011 A 
HETATM   29  C5  UNK     1       5.814   4.292  11.493  1.00  0.00    -0.050 A 
HETATM   30  C19 UNK     1       6.641   3.567  10.635  1.00  0.00     0.011 A 
HETATM   31  C25 UNK     1       7.694   4.203   9.978  1.00  0.00     0.037 A 
BRANCH  29  32
HETATM   32  C2  UNK     1       4.688   3.613  12.196  1.00  0.00    -0.024 C 
HETATM   33  C10 UNK     1       5.096   2.407  13.107  1.00  0.00     0.019 C 
HETATM   34  C8  UNK     1       3.655   3.034  11.181  1.00  0.00     0.019 C 
HETATM   35  C9  UNK     1       3.927   4.601  13.133  1.00  0.00     0.019 C 
ENDBRANCH  29  32
ENDBRANCH  25  26
ENDBRANCH  24  25
ENDBRANCH  20  24
BRANCH  21  36
HETATM   36  O4  UNK     1      10.347   6.869   6.725  1.00  0.00    -0.355 OA
HETATM   37  C31 UNK     1      10.632   6.110   5.552  1.00  0.00     0.210 C 
ENDBRANCH  21  36
ENDBRANCH   5  18
BRANCH  10  38
HETATM   38  N1  UNK     1      17.983   6.579   9.365  1.00  0.00    -0.379 N 
HETATM   39  H22 UNK     1      18.284   6.773   8.418  1.00  0.00     0.158 HD
HETATM   40  H23 UNK     1      18.528   5.965   9.956  1.00  0.00     0.158 HD
ENDBRANCH  10  38
TORSDOF 7
ENDMDL
MODEL 9
REMARK VINA RESULT:      -8.0      4.801      8.122
REMARK  7 active torsions:
REMARK  status: ('A' for Active; 'I' for Inactive)
REMARK    1  A    between atoms: C20_27  and  O3_3 
REMARK    2  A    between atoms: C23_30  and  O3_3 
REMARK    3  A    between atoms: C21_28  and  O4_4 
REMARK    4  A    between atoms: C15_22  and  N1_6 
REMARK    5  A    between atoms: C1_8  and  C4_11 
REMARK    6  A    between atoms: C2_9  and  C5_12 
REMARK    7  A    between atoms: C13_20  and  C20_27 
ROOT
HETATM    1  O1  UNK     1      32.255  -5.763  35.843  1.00  0.00    -0.291 OA
HETATM    2  O2  UNK     1      29.748  -7.710  33.118  1.00  0.00    -0.274 OA
HETATM    3  O5  UNK     1      27.984  -7.431  34.535  1.00  0.00    -0.259 OA
HETATM    4  N2  UNK     1      29.624  -4.071  39.506  1.00  0.00    -0.191 NA
HETATM    5  C1  UNK     1      29.523  -6.180  36.622  1.00  0.00     0.109 C 
HETATM    6  C3  UNK     1      30.091  -6.626  35.288  1.00  0.00     0.066 A 
HETATM    7  C6  UNK     1      31.381  -6.410  34.988  1.00  0.00     0.104 A 
HETATM    8  C7  UNK     1      30.497  -5.299  37.398  1.00  0.00     0.086 C 
HETATM    9  C12 UNK     1      31.947  -6.862  33.720  1.00  0.00     0.033 A 
HETATM   10  C15 UNK     1      31.779  -5.140  36.996  1.00  0.00     0.159 C 
HETATM   11  C16 UNK     1      29.180  -7.277  34.311  1.00  0.00     0.298 A 
HETATM   12  C17 UNK     1      31.108  -7.508  32.817  1.00  0.00     0.092 A 
HETATM   13  C26 UNK     1      33.289  -6.683  33.363  1.00  0.00     0.017 A 
HETATM   14  C27 UNK     1      31.564  -7.976  31.585  1.00  0.00     0.038 A 
HETATM   15  C28 UNK     1      30.015  -4.621  38.562  1.00  0.00     0.100 C 
HETATM   16  C29 UNK     1      33.762  -7.146  32.130  1.00  0.00     0.001 A 
HETATM   17  C30 UNK     1      32.901  -7.792  31.243  1.00  0.00     0.003 A 
ENDROOT
BRANCH   5  18
HETATM   18  C4  UNK     1      29.132  -7.370  37.451  1.00  0.00    -0.043 A 
HETATM   19  C11 UNK     1      27.833  -7.476  37.932  1.00  0.00     0.020 A 
HETATM   20  C13 UNK     1      27.471  -8.581  38.703  1.00  0.00    -0.000 A 
HETATM   21  C21 UNK     1      28.411  -9.571  38.987  1.00  0.00     0.076 A 
HETATM   22  C22 UNK     1      29.714  -9.457  38.500  1.00  0.00     0.038 A 
HETATM   23  C14 UNK     1      30.075  -8.352  37.730  1.00  0.00     0.011 A 
BRANCH  20  24
HETATM   24  C20 UNK     1      26.072  -8.689  39.215  1.00  0.00     0.217 C 
BRANCH  24  25
HETATM   25  O3  UNK     1      25.311  -7.586  38.741  1.00  0.00    -0.347 OA
BRANCH  25  26
HETATM   26  C23 UNK     1      23.974  -7.803  38.532  1.00  0.00     0.069 A 
HETATM   27  C24 UNK     1      23.563  -8.575  37.451  1.00  0.00     0.037 A 
HETATM   28  C18 UNK     1      22.202  -8.794  37.238  1.00  0.00     0.011 A 
HETATM   29  C5  UNK     1      21.261  -8.240  38.107  1.00  0.00    -0.050 A 
HETATM   30  C19 UNK     1      21.682  -7.468  39.189  1.00  0.00     0.011 A 
HETATM   31  C25 UNK     1      23.042  -7.248  39.403  1.00  0.00     0.037 A 
BRANCH  29  32
HETATM   32  C2  UNK     1      19.807  -8.476  37.878  1.00  0.00    -0.024 C 
HETATM   33  C10 UNK     1      19.395  -8.741  36.391  1.00  0.00     0.019 C 
HETATM   34  C8  UNK     1      18.957  -7.249  38.330  1.00  0.00     0.019 C 
HETATM   35  C9  UNK     1      19.302  -9.718  38.676  1.00  0.00     0.019 C 
ENDBRANCH  29  32
ENDBRANCH  25  26
ENDBRANCH  24  25
ENDBRANCH  20  24
BRANCH  21  36
HETATM   36  O4  UNK     1      28.075 -10.658  39.738  1.00  0.00    -0.355 OA
HETATM   37  C31 UNK     1      28.638 -10.743  41.045  1.00  0.00     0.210 C 
ENDBRANCH  21  36
ENDBRANCH   5  18
BRANCH  10  38
HETATM   38  N1  UNK     1      32.719  -4.383  37.639  1.00  0.00    -0.379 N 
HETATM   39  H22 UNK     1      32.416  -3.575  38.169  1.00  0.00     0.158 HD
HETATM   40  H23 UNK     1      33.702  -4.616  37.586  1.00  0.00     0.158 HD
ENDBRANCH  10  38
TORSDOF 7
ENDMDL
MODEL 10
REMARK VINA RESULT:      -8.0      2.991      5.768
REMARK  7 active torsions:
REMARK  status: ('A' for Active; 'I' for Inactive)
REMARK    1  A    between atoms: C20_27  and  O3_3 
REMARK    2  A    between atoms: C23_30  and  O3_3 
REMARK    3  A    between atoms: C21_28  and  O4_4 
REMARK    4  A    between atoms: C15_22  and  N1_6 
REMARK    5  A    between atoms: C1_8  and  C4_11 
REMARK    6  A    between atoms: C2_9  and  C5_12 
REMARK    7  A    between atoms: C13_20  and  C20_27 
ROOT
HETATM    1  O1  UNK     1      30.418  -5.216  37.150  1.00  0.00    -0.291 OA
HETATM    2  O2  UNK     1      30.759  -9.381  37.367  1.00  0.00    -0.274 OA
HETATM    3  O5  UNK     1      32.652  -9.296  36.101  1.00  0.00    -0.259 OA
HETATM    4  N2  UNK     1      34.291  -3.411  34.926  1.00  0.00    -0.191 NA
HETATM    5  C1  UNK     1      32.568  -6.446  35.697  1.00  0.00     0.109 C 
HETATM    6  C3  UNK     1      31.564  -7.225  36.528  1.00  0.00     0.066 A 
HETATM    7  C6  UNK     1      30.575  -6.590  37.175  1.00  0.00     0.104 A 
HETATM    8  C7  UNK     1      32.439  -4.940  35.901  1.00  0.00     0.086 C 
HETATM    9  C12 UNK     1      29.586  -7.331  37.953  1.00  0.00     0.033 A 
HETATM   10  C15 UNK     1      31.402  -4.406  36.586  1.00  0.00     0.159 C 
HETATM   11  C16 UNK     1      31.722  -8.698  36.633  1.00  0.00     0.298 A 
HETATM   12  C17 UNK     1      29.704  -8.716  38.023  1.00  0.00     0.092 A 
HETATM   13  C26 UNK     1      28.521  -6.725  38.632  1.00  0.00     0.017 A 
HETATM   14  C27 UNK     1      28.803  -9.503  38.738  1.00  0.00     0.038 A 
HETATM   15  C28 UNK     1      33.462  -4.096  35.363  1.00  0.00     0.100 C 
HETATM   16  C29 UNK     1      27.608  -7.500  39.355  1.00  0.00     0.001 A 
HETATM   17  C30 UNK     1      27.748  -8.888  39.408  1.00  0.00     0.003 A 
ENDROOT
BRANCH   5  18
HETATM   18  C4  UNK     1      32.419  -6.783  34.241  1.00  0.00    -0.043 A 
HETATM   19  C11 UNK     1      31.152  -6.828  33.672  1.00  0.00     0.020 A 
HETATM   20  C13 UNK     1      31.014  -7.143  32.320  1.00  0.00    -0.000 A 
HETATM   21  C21 UNK     1      32.144  -7.410  31.547  1.00  0.00     0.076 A 
HETATM   22  C22 UNK     1      33.413  -7.362  32.127  1.00  0.00     0.038 A 
HETATM   23  C14 UNK     1      33.549  -7.048  33.479  1.00  0.00     0.011 A 
BRANCH  20  24
HETATM   24  C20 UNK     1      29.650  -7.187  31.715  1.00  0.00     0.217 C 
BRANCH  24  25
HETATM   25  O3  UNK     1      28.926  -8.279  32.265  1.00  0.00    -0.347 OA
BRANCH  25  26
HETATM   26  C23 UNK     1      29.493  -9.520  32.141  1.00  0.00     0.069 A 
HETATM   27  C24 UNK     1      29.862 -10.225  33.282  1.00  0.00     0.037 A 
HETATM   28  C18 UNK     1      30.441 -11.487  33.157  1.00  0.00     0.011 A 
HETATM   29  C5  UNK     1      30.646 -12.039  31.892  1.00  0.00    -0.050 A 
HETATM   30  C19 UNK     1      30.273 -11.327  30.752  1.00  0.00     0.011 A 
HETATM   31  C25 UNK     1      29.695 -10.064  30.877  1.00  0.00     0.037 A 
BRANCH  29  32
HETATM   32  C2  UNK     1      31.264 -13.389  31.759  1.00  0.00    -0.024 C 
HETATM   33  C10 UNK     1      31.064 -14.342  32.985  1.00  0.00     0.019 C 
HETATM   34  C8  UNK     1      32.808 -13.289  31.561  1.00  0.00     0.019 C 
HETATM   35  C9  UNK     1      30.681 -14.161  30.535  1.00  0.00     0.019 C 
ENDBRANCH  29  32
ENDBRANCH  25  26
ENDBRANCH  24  25
ENDBRANCH  20  24
BRANCH  21  36
HETATM   36  O4  UNK     1      32.028  -7.717  30.225  1.00  0.00    -0.355 OA
HETATM   37  C31 UNK     1      33.014  -8.586  29.672  1.00  0.00     0.210 C 
ENDBRANCH  21  36
ENDBRANCH   5  18
BRANCH  10  38
HETATM   38  N1  UNK     1      31.205  -3.070  36.803  1.00  0.00    -0.379 N 
HETATM   39  H22 UNK     1      32.007  -2.481  36.984  1.00  0.00     0.158 HD
HETATM   40  H23 UNK     1      30.274  -2.672  36.787  1.00  0.00     0.158 HD
ENDBRANCH  10  38
TORSDOF 7
ENDMDL
