MODEL 1
REMARK VINA RESULT:      -8.2      0.000      0.000
REMARK  9 active torsions:
REMARK  status: ('A' for Active; 'I' for Inactive)
REMARK    1  A    between atoms: C5_15  and  O2_2 
REMARK    2  A    between atoms: C7_17  and  O2_2 
REMARK    3  A    between atoms: C1_11  and  O3_3 
REMARK    4  A    between atoms: C2_12  and  O4_4 
REMARK    5  A    between atoms: C3_13  and  O5_5 
REMARK    6  A    between atoms: C6_16  and  O6_6 
REMARK    7  A    between atoms: C9_19  and  O8_8 
REMARK    8  A    between atoms: C11_21  and  O9_9 
REMARK    9  A    between atoms: C4_14  and  C6_16 
ROOT
HETATM    1  O2  UNK     1      12.292   7.122  10.233  1.00  0.00    -0.312 OA
ENDROOT
BRANCH   1   2
HETATM    2  C5  UNK     1      11.477   7.280   9.075  1.00  0.00     0.298 C 
HETATM    3  C3  UNK     1      12.214   6.693   7.873  1.00  0.00     0.205 C 
HETATM    4  C1  UNK     1      11.352   6.830   6.619  1.00  0.00     0.183 C 
HETATM    5  C2  UNK     1       9.958   6.241   6.849  1.00  0.00     0.180 C 
HETATM    6  C4  UNK     1       9.342   6.809   8.136  1.00  0.00     0.179 C 
HETATM    7  O1  UNK     1      10.222   6.620   9.249  1.00  0.00    -0.348 OA
BRANCH   3   8
HETATM    8  O5  UNK     1      12.464   5.308   8.134  1.00  0.00    -0.388 OA
HETATM    9  H10 UNK     1      12.335   4.812   7.308  1.00  0.00     0.210 HD
ENDBRANCH   3   8
BRANCH   4  10
HETATM   10  O3  UNK     1      11.969   6.158   5.524  1.00  0.00    -0.390 OA
HETATM   11  H8  UNK     1      12.579   6.787   5.102  1.00  0.00     0.210 HD
ENDBRANCH   4  10
BRANCH   5  12
HETATM   12  O4  UNK     1       9.118   6.569   5.745  1.00  0.00    -0.390 OA
HETATM   13  H9  UNK     1       9.562   6.275   4.931  1.00  0.00     0.210 HD
ENDBRANCH   5  12
BRANCH   6  14
HETATM   14  C6  UNK     1       8.021   6.125   8.474  1.00  0.00     0.198 C 
BRANCH  14  15
HETATM   15  O6  UNK     1       7.842   5.030   7.595  1.00  0.00    -0.398 OA
HETATM   16  H11 UNK     1       7.064   5.220   7.042  1.00  0.00     0.209 HD
ENDBRANCH  14  15
ENDBRANCH   6  14
ENDBRANCH   1   2
BRANCH   1  17
HETATM   17  C7  UNK     1      13.303   8.030  10.404  1.00  0.00     0.142 A 
HETATM   18  C8  UNK     1      14.627   7.645  10.241  1.00  0.00     0.126 A 
HETATM   19  C10 UNK     1      15.673   8.549  10.409  1.00  0.00     0.004 A 
HETATM   20  O7  UNK     1      14.888   6.302   9.899  1.00  0.00    -0.272 OA
HETATM   21  C12 UNK     1      15.375   9.870  10.749  1.00  0.00     0.054 A 
HETATM   22  C13 UNK     1      17.038   8.084  10.225  1.00  0.00     0.020 A 
HETATM   23  C11 UNK     1      14.044  10.266  10.914  1.00  0.00     0.105 A 
HETATM   24  C9  UNK     1      13.008   9.345  10.742  1.00  0.00     0.136 A 
HETATM   25  C14 UNK     1      17.276   6.812   9.899  1.00  0.00     0.083 A 
HETATM   26  C15 UNK     1      16.185   5.836   9.717  1.00  0.00     0.288 A 
HETATM   27  O10 UNK     1      16.420   4.669   9.419  1.00  0.00    -0.260 OA
BRANCH  23  28
HETATM   28  O9  UNK     1      13.770  11.559  11.245  1.00  0.00    -0.353 OA
HETATM   29  C16 UNK     1      14.097  12.558  10.282  1.00  0.00     0.210 C 
ENDBRANCH  23  28
BRANCH  24  30
HETATM   30  O8  UNK     1      11.713   9.739  10.907  1.00  0.00    -0.356 OA
HETATM   31  H15 UNK     1      11.707  10.622  11.316  1.00  0.00     0.218 HD
ENDBRANCH  24  30
ENDBRANCH   1  17
TORSDOF 9
ENDMDL
MODEL 2
REMARK VINA RESULT:      -8.0     23.267     25.319
REMARK  9 active torsions:
REMARK  status: ('A' for Active; 'I' for Inactive)
REMARK    1  A    between atoms: C5_15  and  O2_2 
REMARK    2  A    between atoms: C7_17  and  O2_2 
REMARK    3  A    between atoms: C1_11  and  O3_3 
REMARK    4  A    between atoms: C2_12  and  O4_4 
REMARK    5  A    between atoms: C3_13  and  O5_5 
REMARK    6  A    between atoms: C6_16  and  O6_6 
REMARK    7  A    between atoms: C9_19  and  O8_8 
REMARK    8  A    between atoms: C11_21  and  O9_9 
REMARK    9  A    between atoms: C4_14  and  C6_16 
ROOT
HETATM    1  O2  UNK     1      17.607   3.655  31.840  1.00  0.00    -0.312 OA
ENDROOT
BRANCH   1   2
HETATM    2  C5  UNK     1      18.155   4.508  32.841  1.00  0.00     0.298 C 
HETATM    3  C3  UNK     1      19.426   5.155  32.292  1.00  0.00     0.205 C 
HETATM    4  C1  UNK     1      20.023   6.094  33.339  1.00  0.00     0.183 C 
HETATM    5  C2  UNK     1      18.975   7.093  33.837  1.00  0.00     0.180 C 
HETATM    6  C4  UNK     1      17.696   6.359  34.265  1.00  0.00     0.179 C 
HETATM    7  O1  UNK     1      17.214   5.517  33.213  1.00  0.00    -0.348 OA
BRANCH   3   8
HETATM    8  O5  UNK     1      19.077   5.902  31.121  1.00  0.00    -0.388 OA
HETATM    9  H10 UNK     1      19.487   5.473  30.351  1.00  0.00     0.210 HD
ENDBRANCH   3   8
BRANCH   4  10
HETATM   10  O3  UNK     1      21.125   6.809  32.785  1.00  0.00    -0.390 OA
HETATM   11  H8  UNK     1      21.021   6.800  31.818  1.00  0.00     0.210 HD
ENDBRANCH   4  10
BRANCH   5  12
HETATM   12  O4  UNK     1      19.498   7.810  34.952  1.00  0.00    -0.390 OA
HETATM   13  H9  UNK     1      19.458   8.759  34.746  1.00  0.00     0.210 HD
ENDBRANCH   5  12
BRANCH   6  14
HETATM   14  C6  UNK     1      16.580   7.337  34.619  1.00  0.00     0.198 C 
BRANCH  14  15
HETATM   15  O6  UNK     1      16.734   7.727  35.971  1.00  0.00    -0.398 OA
HETATM   16  H11 UNK     1      15.873   8.054  36.283  1.00  0.00     0.209 HD
ENDBRANCH  14  15
ENDBRANCH   6  14
ENDBRANCH   1   2
BRANCH   1  17
HETATM   17  C7  UNK     1      18.213   2.439  31.669  1.00  0.00     0.142 A 
HETATM   18  C8  UNK     1      18.157   1.480  32.672  1.00  0.00     0.126 A 
HETATM   19  C10 UNK     1      18.764   0.236  32.523  1.00  0.00     0.004 A 
HETATM   20  O7  UNK     1      17.463   1.802  33.857  1.00  0.00    -0.272 OA
HETATM   21  C12 UNK     1      19.443  -0.046  31.336  1.00  0.00     0.054 A 
HETATM   22  C13 UNK     1      18.670  -0.725  33.610  1.00  0.00     0.020 A 
HETATM   23  C11 UNK     1      19.504   0.913  30.321  1.00  0.00     0.105 A 
HETATM   24  C9  UNK     1      18.889   2.156  30.488  1.00  0.00     0.136 A 
HETATM   25  C14 UNK     1      18.010  -0.412  34.727  1.00  0.00     0.083 A 
HETATM   26  C15 UNK     1      17.360   0.899  34.909  1.00  0.00     0.288 A 
HETATM   27  O10 UNK     1      16.758   1.172  35.942  1.00  0.00    -0.260 OA
BRANCH  23  28
HETATM   28  O9  UNK     1      20.170   0.623  29.169  1.00  0.00    -0.353 OA
HETATM   29  C16 UNK     1      20.588  -0.728  28.985  1.00  0.00     0.210 C 
ENDBRANCH  23  28
BRANCH  24  30
HETATM   30  O8  UNK     1      18.954   3.087  29.494  1.00  0.00    -0.356 OA
HETATM   31  H15 UNK     1      18.506   3.896  29.796  1.00  0.00     0.218 HD
ENDBRANCH  24  30
ENDBRANCH   1  17
TORSDOF 9
ENDMDL
MODEL 3
REMARK VINA RESULT:      -7.9      1.157      3.597
REMARK  9 active torsions:
REMARK  status: ('A' for Active; 'I' for Inactive)
REMARK    1  A    between atoms: C5_15  and  O2_2 
REMARK    2  A    between atoms: C7_17  and  O2_2 
REMARK    3  A    between atoms: C1_11  and  O3_3 
REMARK    4  A    between atoms: C2_12  and  O4_4 
REMARK    5  A    between atoms: C3_13  and  O5_5 
REMARK    6  A    between atoms: C6_16  and  O6_6 
REMARK    7  A    between atoms: C9_19  and  O8_8 
REMARK    8  A    between atoms: C11_21  and  O9_9 
REMARK    9  A    between atoms: C4_14  and  C6_16 
ROOT
HETATM    1  O2  UNK     1      12.364   5.847  10.131  1.00  0.00    -0.312 OA
ENDROOT
BRANCH   1   2
HETATM    2  C5  UNK     1      11.509   6.370   9.118  1.00  0.00     0.298 C 
HETATM    3  C3  UNK     1      12.067   5.974   7.752  1.00  0.00     0.205 C 
HETATM    4  C1  UNK     1      11.156   6.503   6.646  1.00  0.00     0.183 C 
HETATM    5  C2  UNK     1       9.706   6.072   6.881  1.00  0.00     0.180 C 
HETATM    6  C4  UNK     1       9.270   6.414   8.313  1.00  0.00     0.179 C 
HETATM    7  O1  UNK     1      10.181   5.863   9.269  1.00  0.00    -0.348 OA
BRANCH   3   8
HETATM    8  O5  UNK     1      12.119   4.545   7.688  1.00  0.00    -0.388 OA
HETATM    9  H10 UNK     1      13.047   4.275   7.587  1.00  0.00     0.210 HD
ENDBRANCH   3   8
BRANCH   4  10
HETATM   10  O3  UNK     1      11.590   6.017   5.378  1.00  0.00    -0.390 OA
HETATM   11  H8  UNK     1      11.048   5.239   5.164  1.00  0.00     0.210 HD
ENDBRANCH   4  10
BRANCH   5  12
HETATM   12  O4  UNK     1       8.856   6.749   5.959  1.00  0.00    -0.390 OA
HETATM   13  H9  UNK     1       8.342   7.410   6.453  1.00  0.00     0.210 HD
ENDBRANCH   5  12
BRANCH   6  14
HETATM   14  C6  UNK     1       7.884   5.857   8.624  1.00  0.00     0.198 C 
BRANCH  14  15
HETATM   15  O6  UNK     1       7.654   4.731   7.797  1.00  0.00    -0.398 OA
HETATM   16  H11 UNK     1       8.131   3.978   8.185  1.00  0.00     0.209 HD
ENDBRANCH  14  15
ENDBRANCH   6  14
ENDBRANCH   1   2
BRANCH   1  17
HETATM   17  C7  UNK     1      13.624   6.377  10.206  1.00  0.00     0.142 A 
HETATM   18  C8  UNK     1      13.822   7.642  10.744  1.00  0.00     0.126 A 
HETATM   19  C10 UNK     1      15.093   8.204  10.833  1.00  0.00     0.004 A 
HETATM   20  O7  UNK     1      12.691   8.350  11.203  1.00  0.00    -0.272 OA
HETATM   21  C12 UNK     1      16.188   7.473  10.367  1.00  0.00     0.054 A 
HETATM   22  C13 UNK     1      15.234   9.533  11.405  1.00  0.00     0.020 A 
HETATM   23  C11 UNK     1      15.998   6.199   9.825  1.00  0.00     0.105 A 
HETATM   24  C9  UNK     1      14.715   5.651   9.744  1.00  0.00     0.136 A 
HETATM   25  C14 UNK     1      14.159  10.195  11.838  1.00  0.00     0.083 A 
HETATM   26  C15 UNK     1      12.803   9.621  11.754  1.00  0.00     0.288 A 
HETATM   27  O10 UNK     1      11.825  10.243  12.155  1.00  0.00    -0.260 OA
BRANCH  23  28
HETATM   28  O9  UNK     1      17.076   5.498   9.375  1.00  0.00    -0.353 OA
HETATM   29  C16 UNK     1      18.225   6.252   8.996  1.00  0.00     0.210 C 
ENDBRANCH  23  28
BRANCH  24  30
HETATM   30  O8  UNK     1      14.538   4.409   9.212  1.00  0.00    -0.356 OA
HETATM   31  H15 UNK     1      15.410   4.038   8.990  1.00  0.00     0.218 HD
ENDBRANCH  24  30
ENDBRANCH   1  17
TORSDOF 9
ENDMDL
MODEL 4
REMARK VINA RESULT:      -7.8     23.393     25.159
REMARK  9 active torsions:
REMARK  status: ('A' for Active; 'I' for Inactive)
REMARK    1  A    between atoms: C5_15  and  O2_2 
REMARK    2  A    between atoms: C7_17  and  O2_2 
REMARK    3  A    between atoms: C1_11  and  O3_3 
REMARK    4  A    between atoms: C2_12  and  O4_4 
REMARK    5  A    between atoms: C3_13  and  O5_5 
REMARK    6  A    between atoms: C6_16  and  O6_6 
REMARK    7  A    between atoms: C9_19  and  O8_8 
REMARK    8  A    between atoms: C11_21  and  O9_9 
REMARK    9  A    between atoms: C4_14  and  C6_16 
ROOT
HETATM    1  O2  UNK     1      17.630   1.608  33.363  1.00  0.00    -0.312 OA
ENDROOT
BRANCH   1   2
HETATM    2  C5  UNK     1      18.629   0.609  33.544  1.00  0.00     0.298 C 
HETATM    3  C3  UNK     1      18.162  -0.360  34.630  1.00  0.00     0.205 C 
HETATM    4  C1  UNK     1      19.207  -1.456  34.830  1.00  0.00     0.183 C 
HETATM    5  C2  UNK     1      19.556  -2.126  33.498  1.00  0.00     0.180 C 
HETATM    6  C4  UNK     1      19.906  -1.069  32.442  1.00  0.00     0.179 C 
HETATM    7  O1  UNK     1      18.861  -0.098  32.325  1.00  0.00    -0.348 OA
BRANCH   3   8
HETATM    8  O5  UNK     1      16.927  -0.946  34.205  1.00  0.00    -0.388 OA
HETATM    9  H10 UNK     1      16.197  -0.401  34.544  1.00  0.00     0.210 HD
ENDBRANCH   3   8
BRANCH   4  10
HETATM   10  O3  UNK     1      18.716  -2.442  35.736  1.00  0.00    -0.390 OA
HETATM   11  H8  UNK     1      17.810  -2.187  35.979  1.00  0.00     0.210 HD
ENDBRANCH   4  10
BRANCH   5  12
HETATM   12  O4  UNK     1      20.673  -2.991  33.683  1.00  0.00    -0.390 OA
HETATM   13  H9  UNK     1      21.476  -2.443  33.721  1.00  0.00     0.210 HD
ENDBRANCH   5  12
BRANCH   6  14
HETATM   14  C6  UNK     1      20.107  -1.697  31.066  1.00  0.00     0.198 C 
BRANCH  14  15
HETATM   15  O6  UNK     1      19.525  -0.848  30.094  1.00  0.00    -0.398 OA
HETATM   16  H11 UNK     1      19.805   0.062  30.293  1.00  0.00     0.209 HD
ENDBRANCH  14  15
ENDBRANCH   6  14
ENDBRANCH   1   2
BRANCH   1  17
HETATM   17  C7  UNK     1      18.055   2.829  32.911  1.00  0.00     0.142 A 
HETATM   18  C8  UNK     1      18.212   3.057  31.550  1.00  0.00     0.126 A 
HETATM   19  C10 UNK     1      18.643   4.289  31.064  1.00  0.00     0.004 A 
HETATM   20  O7  UNK     1      17.921   1.999  30.664  1.00  0.00    -0.272 OA
HETATM   21  C12 UNK     1      18.922   5.312  31.973  1.00  0.00     0.054 A 
HETATM   22  C13 UNK     1      18.788   4.466  29.629  1.00  0.00     0.020 A 
HETATM   23  C11 UNK     1      18.766   5.091  33.344  1.00  0.00     0.105 A 
HETATM   24  C9  UNK     1      18.332   3.848  33.813  1.00  0.00     0.136 A 
HETATM   25  C14 UNK     1      18.509   3.459  28.797  1.00  0.00     0.083 A 
HETATM   26  C15 UNK     1      18.052   2.145  29.287  1.00  0.00     0.288 A 
HETATM   27  O10 UNK     1      17.801   1.230  28.511  1.00  0.00    -0.260 OA
BRANCH  23  28
HETATM   28  O9  UNK     1      19.042   6.099  34.218  1.00  0.00    -0.353 OA
HETATM   29  C16 UNK     1      19.607   7.290  33.674  1.00  0.00     0.210 C 
ENDBRANCH  23  28
BRANCH  24  30
HETATM   30  O8  UNK     1      18.185   3.640  35.152  1.00  0.00    -0.356 OA
HETATM   31  H15 UNK     1      18.825   2.964  35.434  1.00  0.00     0.218 HD
ENDBRANCH  24  30
ENDBRANCH   1  17
TORSDOF 9
ENDMDL
MODEL 5
REMARK VINA RESULT:      -7.7     13.231     15.526
REMARK  9 active torsions:
REMARK  status: ('A' for Active; 'I' for Inactive)
REMARK    1  A    between atoms: C5_15  and  O2_2 
REMARK    2  A    between atoms: C7_17  and  O2_2 
REMARK    3  A    between atoms: C1_11  and  O3_3 
REMARK    4  A    between atoms: C2_12  and  O4_4 
REMARK    5  A    between atoms: C3_13  and  O5_5 
REMARK    6  A    between atoms: C6_16  and  O6_6 
REMARK    7  A    between atoms: C9_19  and  O8_8 
REMARK    8  A    between atoms: C11_21  and  O9_9 
REMARK    9  A    between atoms: C4_14  and  C6_16 
ROOT
HETATM    1  O2  UNK     1      18.808  -6.315  14.352  1.00  0.00    -0.312 OA
ENDROOT
BRANCH   1   2
HETATM    2  C5  UNK     1      17.465  -6.168  14.803  1.00  0.00     0.298 C 
HETATM    3  C3  UNK     1      16.643  -7.349  14.288  1.00  0.00     0.205 C 
HETATM    4  C1  UNK     1      15.200  -7.229  14.776  1.00  0.00     0.183 C 
HETATM    5  C2  UNK     1      15.152  -7.046  16.296  1.00  0.00     0.180 C 
HETATM    6  C4  UNK     1      16.090  -5.910  16.729  1.00  0.00     0.179 C 
HETATM    7  O1  UNK     1      17.415  -6.124  16.230  1.00  0.00    -0.348 OA
BRANCH   3   8
HETATM    8  O5  UNK     1      17.223  -8.554  14.799  1.00  0.00    -0.388 OA
HETATM    9  H10 UNK     1      17.698  -8.996  14.075  1.00  0.00     0.210 HD
ENDBRANCH   3   8
BRANCH   4  10
HETATM   10  O3  UNK     1      14.463  -8.397  14.422  1.00  0.00    -0.390 OA
HETATM   11  H8  UNK     1      15.004  -8.902  13.791  1.00  0.00     0.210 HD
ENDBRANCH   4  10
BRANCH   5  12
HETATM   12  O4  UNK     1      13.820  -6.729  16.692  1.00  0.00    -0.390 OA
HETATM   13  H9  UNK     1      13.677  -7.089  17.583  1.00  0.00     0.210 HD
ENDBRANCH   5  12
BRANCH   6  14
HETATM   14  C6  UNK     1      16.182  -5.807  18.248  1.00  0.00     0.198 C 
BRANCH  14  15
HETATM   15  O6  UNK     1      15.950  -7.089  18.801  1.00  0.00    -0.398 OA
HETATM   16  H11 UNK     1      16.311  -7.090  19.705  1.00  0.00     0.209 HD
ENDBRANCH  14  15
ENDBRANCH   6  14
ENDBRANCH   1   2
BRANCH   1  17
HETATM   17  C7  UNK     1      19.535  -5.165  14.200  1.00  0.00     0.142 A 
HETATM   18  C8  UNK     1      19.486  -4.457  13.006  1.00  0.00     0.126 A 
HETATM   19  C10 UNK     1      20.216  -3.284  12.826  1.00  0.00     0.004 A 
HETATM   20  O7  UNK     1      18.671  -4.960  11.971  1.00  0.00    -0.272 OA
HETATM   21  C12 UNK     1      21.013  -2.818  13.874  1.00  0.00     0.054 A 
HETATM   22  C13 UNK     1      20.122  -2.588  11.553  1.00  0.00     0.020 A 
HETATM   23  C11 UNK     1      21.067  -3.524  15.079  1.00  0.00     0.105 A 
HETATM   24  C9  UNK     1      20.328  -4.699  15.241  1.00  0.00     0.136 A 
HETATM   25  C14 UNK     1      19.347  -3.071  10.580  1.00  0.00     0.083 A 
HETATM   26  C15 UNK     1      18.566  -4.311  10.746  1.00  0.00     0.288 A 
HETATM   27  O10 UNK     1      17.859  -4.743   9.842  1.00  0.00    -0.260 OA
BRANCH  23  28
HETATM   28  O9  UNK     1      21.849  -3.056  16.091  1.00  0.00    -0.353 OA
HETATM   29  C16 UNK     1      23.212  -3.475  16.103  1.00  0.00     0.210 C 
ENDBRANCH  23  28
BRANCH  24  30
HETATM   30  O8  UNK     1      20.389  -5.383  16.419  1.00  0.00    -0.356 OA
HETATM   31  H15 UNK     1      20.035  -4.817  17.126  1.00  0.00     0.218 HD
ENDBRANCH  24  30
ENDBRANCH   1  17
TORSDOF 9
ENDMDL
MODEL 6
REMARK VINA RESULT:      -7.6     22.944     24.879
REMARK  9 active torsions:
REMARK  status: ('A' for Active; 'I' for Inactive)
REMARK    1  A    between atoms: C5_15  and  O2_2 
REMARK    2  A    between atoms: C7_17  and  O2_2 
REMARK    3  A    between atoms: C1_11  and  O3_3 
REMARK    4  A    between atoms: C2_12  and  O4_4 
REMARK    5  A    between atoms: C3_13  and  O5_5 
REMARK    6  A    between atoms: C6_16  and  O6_6 
REMARK    7  A    between atoms: C9_19  and  O8_8 
REMARK    8  A    between atoms: C11_21  and  O9_9 
REMARK    9  A    between atoms: C4_14  and  C6_16 
ROOT
HETATM    1  O2  UNK     1      18.089   2.044  31.369  1.00  0.00    -0.312 OA
ENDROOT
BRANCH   1   2
HETATM    2  C5  UNK     1      18.684   3.262  31.806  1.00  0.00     0.298 C 
HETATM    3  C3  UNK     1      19.231   4.005  30.588  1.00  0.00     0.205 C 
HETATM    4  C1  UNK     1      19.856   5.329  31.026  1.00  0.00     0.183 C 
HETATM    5  C2  UNK     1      18.872   6.144  31.867  1.00  0.00     0.180 C 
HETATM    6  C4  UNK     1      18.293   5.284  33.000  1.00  0.00     0.179 C 
HETATM    7  O1  UNK     1      17.724   4.076  32.484  1.00  0.00    -0.348 OA
BRANCH   3   8
HETATM    8  O5  UNK     1      18.143   4.261  29.694  1.00  0.00    -0.388 OA
HETATM    9  H10 UNK     1      18.501   4.652  28.880  1.00  0.00     0.210 HD
ENDBRANCH   3   8
BRANCH   4  10
HETATM   10  O3  UNK     1      20.240   6.091  29.884  1.00  0.00    -0.390 OA
HETATM   11  H8  UNK     1      21.180   5.910  29.715  1.00  0.00     0.210 HD
ENDBRANCH   4  10
BRANCH   5  12
HETATM   12  O4  UNK     1      19.548   7.266  32.431  1.00  0.00    -0.390 OA
HETATM   13  H9  UNK     1      19.181   8.072  32.030  1.00  0.00     0.210 HD
ENDBRANCH   5  12
BRANCH   6  14
HETATM   14  C6  UNK     1      17.195   6.022  33.760  1.00  0.00     0.198 C 
BRANCH  14  15
HETATM   15  O6  UNK     1      17.793   6.778  34.796  1.00  0.00    -0.398 OA
HETATM   16  H11 UNK     1      17.732   7.716  34.549  1.00  0.00     0.209 HD
ENDBRANCH  14  15
ENDBRANCH   6  14
ENDBRANCH   1   2
BRANCH   1  17
HETATM   17  C7  UNK     1      18.473   0.903  32.022  1.00  0.00     0.142 A 
HETATM   18  C8  UNK     1      19.213  -0.068  31.361  1.00  0.00     0.126 A 
HETATM   19  C10 UNK     1      19.616  -1.237  32.002  1.00  0.00     0.004 A 
HETATM   20  O7  UNK     1      19.549   0.161  30.011  1.00  0.00    -0.272 OA
HETATM   21  C12 UNK     1      19.263  -1.429  33.339  1.00  0.00     0.054 A 
HETATM   22  C13 UNK     1      20.388  -2.216  31.255  1.00  0.00     0.020 A 
HETATM   23  C11 UNK     1      18.518  -0.456  34.013  1.00  0.00     0.105 A 
HETATM   24  C9  UNK     1      18.123   0.710  33.353  1.00  0.00     0.136 A 
HETATM   25  C14 UNK     1      20.703  -1.990  29.978  1.00  0.00     0.083 A 
HETATM   26  C15 UNK     1      20.287  -0.761  29.277  1.00  0.00     0.288 A 
HETATM   27  O10 UNK     1      20.584  -0.568  28.103  1.00  0.00    -0.260 OA
BRANCH  23  28
HETATM   28  O9  UNK     1      18.182  -0.658  35.317  1.00  0.00    -0.353 OA
HETATM   29  C16 UNK     1      18.886  -1.683  36.016  1.00  0.00     0.210 C 
ENDBRANCH  23  28
BRANCH  24  30
HETATM   30  O8  UNK     1      17.395   1.653  34.016  1.00  0.00    -0.356 OA
HETATM   31  H15 UNK     1      16.606   1.228  34.393  1.00  0.00     0.218 HD
ENDBRANCH  24  30
ENDBRANCH   1  17
TORSDOF 9
ENDMDL
MODEL 7
REMARK VINA RESULT:      -7.6     11.548     14.630
REMARK  9 active torsions:
REMARK  status: ('A' for Active; 'I' for Inactive)
REMARK    1  A    between atoms: C5_15  and  O2_2 
REMARK    2  A    between atoms: C7_17  and  O2_2 
REMARK    3  A    between atoms: C1_11  and  O3_3 
REMARK    4  A    between atoms: C2_12  and  O4_4 
REMARK    5  A    between atoms: C3_13  and  O5_5 
REMARK    6  A    between atoms: C6_16  and  O6_6 
REMARK    7  A    between atoms: C9_19  and  O8_8 
REMARK    8  A    between atoms: C11_21  and  O9_9 
REMARK    9  A    between atoms: C4_14  and  C6_16 
ROOT
HETATM    1  O2  UNK     1      19.026  -1.711  18.274  1.00  0.00    -0.312 OA
ENDROOT
BRANCH   1   2
HETATM    2  C5  UNK     1      18.698  -0.328  18.366  1.00  0.00     0.298 C 
HETATM    3  C3  UNK     1      19.146   0.193  19.731  1.00  0.00     0.205 C 
HETATM    4  C1  UNK     1      18.827   1.682  19.848  1.00  0.00     0.183 C 
HETATM    5  C2  UNK     1      19.403   2.458  18.661  1.00  0.00     0.180 C 
HETATM    6  C4  UNK     1      18.989   1.799  17.338  1.00  0.00     0.179 C 
HETATM    7  O1  UNK     1      19.342   0.412  17.326  1.00  0.00    -0.348 OA
BRANCH   3   8
HETATM    8  O5  UNK     1      20.559  -0.005  19.844  1.00  0.00    -0.388 OA
HETATM    9  H10 UNK     1      20.845  -0.589  19.121  1.00  0.00     0.210 HD
ENDBRANCH   3   8
BRANCH   4  10
HETATM   10  O3  UNK     1      19.369   2.207  21.058  1.00  0.00    -0.390 OA
HETATM   11  H8  UNK     1      18.926   3.054  21.232  1.00  0.00     0.210 HD
ENDBRANCH   4  10
BRANCH   5  12
HETATM   12  O4  UNK     1      18.914   3.797  18.690  1.00  0.00    -0.390 OA
HETATM   13  H9  UNK     1      18.967   4.156  17.788  1.00  0.00     0.210 HD
ENDBRANCH   5  12
BRANCH   6  14
HETATM   14  C6  UNK     1      19.675   2.458  16.145  1.00  0.00     0.198 C 
BRANCH  14  15
HETATM   15  O6  UNK     1      19.916   1.469  15.161  1.00  0.00    -0.398 OA
HETATM   16  H11 UNK     1      19.646   1.836  14.302  1.00  0.00     0.209 HD
ENDBRANCH  14  15
ENDBRANCH   6  14
ENDBRANCH   1   2
BRANCH   1  17
HETATM   17  C7  UNK     1      19.480  -2.157  17.062  1.00  0.00     0.142 A 
HETATM   18  C8  UNK     1      20.792  -2.587  16.920  1.00  0.00     0.126 A 
HETATM   19  C10 UNK     1      21.279  -3.046  15.698  1.00  0.00     0.004 A 
HETATM   20  O7  UNK     1      21.628  -2.549  18.056  1.00  0.00    -0.272 OA
HETATM   21  C12 UNK     1      20.422  -3.068  14.596  1.00  0.00     0.054 A 
HETATM   22  C13 UNK     1      22.662  -3.483  15.613  1.00  0.00     0.020 A 
HETATM   23  C11 UNK     1      19.099  -2.637  14.731  1.00  0.00     0.105 A 
HETATM   24  C9  UNK     1      18.628  -2.180  15.964  1.00  0.00     0.136 A 
HETATM   25  C14 UNK     1      23.446  -3.444  16.693  1.00  0.00     0.083 A 
HETATM   26  C15 UNK     1      22.954  -2.962  17.998  1.00  0.00     0.288 A 
HETATM   27  O10 UNK     1      23.687  -2.932  18.981  1.00  0.00    -0.260 OA
BRANCH  23  28
HETATM   28  O9  UNK     1      18.275  -2.665  13.646  1.00  0.00    -0.353 OA
HETATM   29  C16 UNK     1      18.894  -2.744  12.364  1.00  0.00     0.210 C 
ENDBRANCH  23  28
BRANCH  24  30
HETATM   30  O8  UNK     1      17.337  -1.759  16.087  1.00  0.00    -0.356 OA
HETATM   31  H15 UNK     1      16.966  -2.129  16.906  1.00  0.00     0.218 HD
ENDBRANCH  24  30
ENDBRANCH   1  17
TORSDOF 9
ENDMDL
MODEL 8
REMARK VINA RESULT:      -7.5     23.273     25.133
REMARK  9 active torsions:
REMARK  status: ('A' for Active; 'I' for Inactive)
REMARK    1  A    between atoms: C5_15  and  O2_2 
REMARK    2  A    between atoms: C7_17  and  O2_2 
REMARK    3  A    between atoms: C1_11  and  O3_3 
REMARK    4  A    between atoms: C2_12  and  O4_4 
REMARK    5  A    between atoms: C3_13  and  O5_5 
REMARK    6  A    between atoms: C6_16  and  O6_6 
REMARK    7  A    between atoms: C9_19  and  O8_8 
REMARK    8  A    between atoms: C11_21  and  O9_9 
REMARK    9  A    between atoms: C4_14  and  C6_16 
ROOT
HETATM    1  O2  UNK     1      18.502   5.772  33.898  1.00  0.00    -0.312 OA
ENDROOT
BRANCH   1   2
HETATM    2  C5  UNK     1      17.266   6.439  34.139  1.00  0.00     0.298 C 
HETATM    3  C3  UNK     1      17.560   7.862  34.611  1.00  0.00     0.205 C 
HETATM    4  C1  UNK     1      16.249   8.608  34.856  1.00  0.00     0.183 C 
HETATM    5  C2  UNK     1      15.340   8.530  33.627  1.00  0.00     0.180 C 
HETATM    6  C4  UNK     1      15.191   7.074  33.162  1.00  0.00     0.179 C 
HETATM    7  O1  UNK     1      16.472   6.472  32.951  1.00  0.00    -0.348 OA
BRANCH   3   8
HETATM    8  O5  UNK     1      18.306   8.527  33.587  1.00  0.00    -0.388 OA
HETATM    9  H10 UNK     1      17.723   8.663  32.822  1.00  0.00     0.210 HD
ENDBRANCH   3   8
BRANCH   4  10
HETATM   10  O3  UNK     1      16.513   9.976  35.157  1.00  0.00    -0.390 OA
HETATM   11  H8  UNK     1      16.521  10.463  34.315  1.00  0.00     0.210 HD
ENDBRANCH   4  10
BRANCH   5  12
HETATM   12  O4  UNK     1      14.054   9.049  33.957  1.00  0.00    -0.390 OA
HETATM   13  H9  UNK     1      14.154   9.994  34.164  1.00  0.00     0.210 HD
ENDBRANCH   5  12
BRANCH   6  14
HETATM   14  C6  UNK     1      14.418   6.981  31.849  1.00  0.00     0.198 C 
BRANCH  14  15
HETATM   15  O6  UNK     1      13.073   7.350  32.092  1.00  0.00    -0.398 OA
HETATM   16  H11 UNK     1      13.023   8.320  32.057  1.00  0.00     0.209 HD
ENDBRANCH  14  15
ENDBRANCH   6  14
ENDBRANCH   1   2
BRANCH   1  17
HETATM   17  C7  UNK     1      18.449   4.633  33.141  1.00  0.00     0.142 A 
HETATM   18  C8  UNK     1      18.398   3.387  33.752  1.00  0.00     0.126 A 
HETATM   19  C10 UNK     1      18.344   2.212  33.006  1.00  0.00     0.004 A 
HETATM   20  O7  UNK     1      18.403   3.341  35.162  1.00  0.00    -0.272 OA
HETATM   21  C12 UNK     1      18.342   2.299  31.612  1.00  0.00     0.054 A 
HETATM   22  C13 UNK     1      18.292   0.939  33.704  1.00  0.00     0.020 A 
HETATM   23  C11 UNK     1      18.393   3.549  30.989  1.00  0.00     0.105 A 
HETATM   24  C9  UNK     1      18.447   4.716  31.754  1.00  0.00     0.136 A 
HETATM   25  C14 UNK     1      18.296   0.904  35.038  1.00  0.00     0.083 A 
HETATM   26  C15 UNK     1      18.354   2.134  35.851  1.00  0.00     0.288 A 
HETATM   27  O10 UNK     1      18.357   2.086  37.076  1.00  0.00    -0.260 OA
BRANCH  23  28
HETATM   28  O9  UNK     1      18.390   3.617  29.628  1.00  0.00    -0.353 OA
HETATM   29  C16 UNK     1      18.118   2.409  28.921  1.00  0.00     0.210 C 
ENDBRANCH  23  28
BRANCH  24  30
HETATM   30  O8  UNK     1      18.498   5.932  31.139  1.00  0.00    -0.356 OA
HETATM   31  H15 UNK     1      17.883   6.535  31.591  1.00  0.00     0.218 HD
ENDBRANCH  24  30
ENDBRANCH   1  17
TORSDOF 9
ENDMDL
MODEL 9
REMARK VINA RESULT:      -7.5     11.534     15.143
REMARK  9 active torsions:
REMARK  status: ('A' for Active; 'I' for Inactive)
REMARK    1  A    between atoms: C5_15  and  O2_2 
REMARK    2  A    between atoms: C7_17  and  O2_2 
REMARK    3  A    between atoms: C1_11  and  O3_3 
REMARK    4  A    between atoms: C2_12  and  O4_4 
REMARK    5  A    between atoms: C3_13  and  O5_5 
REMARK    6  A    between atoms: C6_16  and  O6_6 
REMARK    7  A    between atoms: C9_19  and  O8_8 
REMARK    8  A    between atoms: C11_21  and  O9_9 
REMARK    9  A    between atoms: C4_14  and  C6_16 
ROOT
HETATM    1  O2  UNK     1      19.666  -1.504  15.524  1.00  0.00    -0.312 OA
ENDROOT
BRANCH   1   2
HETATM    2  C5  UNK     1      18.986  -0.722  16.501  1.00  0.00     0.298 C 
HETATM    3  C3  UNK     1      19.279  -1.303  17.884  1.00  0.00     0.205 C 
HETATM    4  C1  UNK     1      18.579  -0.469  18.956  1.00  0.00     0.183 C 
HETATM    5  C2  UNK     1      18.932   1.014  18.810  1.00  0.00     0.180 C 
HETATM    6  C4  UNK     1      18.708   1.479  17.364  1.00  0.00     0.179 C 
HETATM    7  O1  UNK     1      19.413   0.640  16.443  1.00  0.00    -0.348 OA
BRANCH   3   8
HETATM    8  O5  UNK     1      20.694  -1.263  18.095  1.00  0.00    -0.388 OA
HETATM    9  H10 UNK     1      20.903  -0.476  18.626  1.00  0.00     0.210 HD
ENDBRANCH   3   8
BRANCH   4  10
HETATM   10  O3  UNK     1      18.962  -0.916  20.254  1.00  0.00    -0.390 OA
HETATM   11  H8  UNK     1      18.410  -0.443  20.899  1.00  0.00     0.210 HD
ENDBRANCH   4  10
BRANCH   5  12
HETATM   12  O4  UNK     1      18.108   1.784  19.681  1.00  0.00    -0.390 OA
HETATM   13  H9  UNK     1      18.647   2.057  20.443  1.00  0.00     0.210 HD
ENDBRANCH   5  12
BRANCH   6  14
HETATM   14  C6  UNK     1      19.197   2.908  17.152  1.00  0.00     0.198 C 
BRANCH  14  15
HETATM   15  O6  UNK     1      19.229   3.172  15.762  1.00  0.00    -0.398 OA
HETATM   16  H11 UNK     1      18.666   3.948  15.597  1.00  0.00     0.209 HD
ENDBRANCH  14  15
ENDBRANCH   6  14
ENDBRANCH   1   2
BRANCH   1  17
HETATM   17  C7  UNK     1      19.511  -2.862  15.605  1.00  0.00     0.142 A 
HETATM   18  C8  UNK     1      20.604  -3.679  15.862  1.00  0.00     0.126 A 
HETATM   19  C10 UNK     1      20.473  -5.063  15.949  1.00  0.00     0.004 A 
HETATM   20  O7  UNK     1      21.863  -3.065  16.033  1.00  0.00    -0.272 OA
HETATM   21  C12 UNK     1      19.211  -5.633  15.772  1.00  0.00     0.054 A 
HETATM   22  C13 UNK     1      21.656  -5.863  16.220  1.00  0.00     0.020 A 
HETATM   23  C11 UNK     1      18.105  -4.818  15.514  1.00  0.00     0.105 A 
HETATM   24  C9  UNK     1      18.256  -3.432  15.430  1.00  0.00     0.136 A 
HETATM   25  C14 UNK     1      22.842  -5.274  16.383  1.00  0.00     0.083 A 
HETATM   26  C15 UNK     1      23.007  -3.811  16.294  1.00  0.00     0.288 A 
HETATM   27  O10 UNK     1      24.104  -3.285  16.444  1.00  0.00    -0.260 OA
BRANCH  23  28
HETATM   28  O9  UNK     1      16.881  -5.390  15.344  1.00  0.00    -0.353 OA
HETATM   29  C16 UNK     1      16.667  -6.657  15.962  1.00  0.00     0.210 C 
ENDBRANCH  23  28
BRANCH  24  30
HETATM   30  O8  UNK     1      17.173  -2.644  15.175  1.00  0.00    -0.356 OA
HETATM   31  H15 UNK     1      16.750  -2.414  16.021  1.00  0.00     0.218 HD
ENDBRANCH  24  30
ENDBRANCH   1  17
TORSDOF 9
ENDMDL
MODEL 10
REMARK VINA RESULT:      -7.4      1.759      2.229
REMARK  9 active torsions:
REMARK  status: ('A' for Active; 'I' for Inactive)
REMARK    1  A    between atoms: C5_15  and  O2_2 
REMARK    2  A    between atoms: C7_17  and  O2_2 
REMARK    3  A    between atoms: C1_11  and  O3_3 
REMARK    4  A    between atoms: C2_12  and  O4_4 
REMARK    5  A    between atoms: C3_13  and  O5_5 
REMARK    6  A    between atoms: C6_16  and  O6_6 
REMARK    7  A    between atoms: C9_19  and  O8_8 
REMARK    8  A    between atoms: C11_21  and  O9_9 
REMARK    9  A    between atoms: C4_14  and  C6_16 
ROOT
HETATM    1  O2  UNK     1      13.223   7.662  11.002  1.00  0.00    -0.312 OA
ENDROOT
BRANCH   1   2
HETATM    2  C5  UNK     1      12.608   7.266   9.779  1.00  0.00     0.298 C 
HETATM    3  C3  UNK     1      12.816   5.764   9.590  1.00  0.00     0.205 C 
HETATM    4  C1  UNK     1      12.147   5.306   8.295  1.00  0.00     0.183 C 
HETATM    5  C2  UNK     1      10.681   5.747   8.254  1.00  0.00     0.180 C 
HETATM    6  C4  UNK     1      10.563   7.246   8.562  1.00  0.00     0.179 C 
HETATM    7  O1  UNK     1      11.211   7.567   9.797  1.00  0.00    -0.348 OA
BRANCH   3   8
HETATM    8  O5  UNK     1      12.222   5.087  10.703  1.00  0.00    -0.388 OA
HETATM    9  H10 UNK     1      12.542   5.501  11.521  1.00  0.00     0.210 HD
ENDBRANCH   3   8
BRANCH   4  10
HETATM   10  O3  UNK     1      12.212   3.887   8.184  1.00  0.00    -0.390 OA
HETATM   11  H8  UNK     1      11.308   3.565   8.026  1.00  0.00     0.210 HD
ENDBRANCH   4  10
BRANCH   5  12
HETATM   12  O4  UNK     1      10.147   5.492   6.958  1.00  0.00    -0.390 OA
HETATM   13  H9  UNK     1       9.178   5.485   7.027  1.00  0.00     0.210 HD
ENDBRANCH   5  12
BRANCH   6  14
HETATM   14  C6  UNK     1       9.106   7.681   8.681  1.00  0.00     0.198 C 
BRANCH  14  15
HETATM   15  O6  UNK     1       8.546   7.072   9.830  1.00  0.00    -0.398 OA
HETATM   16  H11 UNK     1       9.002   6.224   9.965  1.00  0.00     0.209 HD
ENDBRANCH  14  15
ENDBRANCH   6  14
ENDBRANCH   1   2
BRANCH   1  17
HETATM   17  C7  UNK     1      13.616   8.970  11.097  1.00  0.00     0.142 A 
HETATM   18  C8  UNK     1      14.910   9.340  10.754  1.00  0.00     0.126 A 
HETATM   19  C10 UNK     1      15.336  10.663  10.842  1.00  0.00     0.004 A 
HETATM   20  O7  UNK     1      15.791   8.331  10.312  1.00  0.00    -0.272 OA
HETATM   21  C12 UNK     1      14.435  11.634  11.285  1.00  0.00     0.054 A 
HETATM   22  C13 UNK     1      16.703  10.987  10.469  1.00  0.00     0.020 A 
HETATM   23  C11 UNK     1      13.130  11.270  11.631  1.00  0.00     0.105 A 
HETATM   24  C9  UNK     1      12.721   9.937  11.537  1.00  0.00     0.136 A 
HETATM   25  C14 UNK     1      17.529  10.026  10.050  1.00  0.00     0.083 A 
HETATM   26  C15 UNK     1      17.103   8.618   9.950  1.00  0.00     0.288 A 
HETATM   27  O10 UNK     1      17.875   7.746   9.564  1.00  0.00    -0.260 OA
BRANCH  23  28
HETATM   28  O9  UNK     1      12.263  12.228  12.062  1.00  0.00    -0.353 OA
HETATM   29  C16 UNK     1      11.609  13.006  11.062  1.00  0.00     0.210 C 
ENDBRANCH  23  28
BRANCH  24  30
HETATM   30  O8  UNK     1      11.448   9.591  11.879  1.00  0.00    -0.356 OA
HETATM   31  H15 UNK     1      10.845  10.297  11.588  1.00  0.00     0.218 HD
ENDBRANCH  24  30
ENDBRANCH   1  17
TORSDOF 9
ENDMDL
