MODEL 1
REMARK VINA RESULT:      -9.7      0.000      0.000
REMARK  1 active torsions:
REMARK  status: ('A' for Active; 'I' for Inactive)
REMARK    1  A    between atoms: C12_14  and  C5_7 
ROOT
HETATM    1  O1  UNK     1      18.761   0.451  33.378  1.00  0.00    -0.308 OA
HETATM    2  O2  UNK     1      17.718   4.229  32.293  1.00  0.00    -0.287 OA
HETATM    3  C1  UNK     1      18.928   0.844  32.070  1.00  0.00     0.101 A 
HETATM    4  C2  UNK     1      19.464  -0.099  31.163  1.00  0.00     0.009 A 
HETATM    5  C3  UNK     1      18.585   2.129  31.641  1.00  0.00     0.049 A 
HETATM    6  C4  UNK     1      19.645   0.284  29.810  1.00  0.00    -0.023 A 
HETATM    7  C5  UNK     1      18.233   1.349  34.291  1.00  0.00     0.090 A 
HETATM    8  C6  UNK     1      18.766   2.500  30.310  1.00  0.00     0.019 A 
HETATM    9  C7  UNK     1      19.292   1.581  29.403  1.00  0.00     0.013 A 
HETATM   10  C8  UNK     1      18.033   3.089  32.608  1.00  0.00     0.187 A 
HETATM   11  C9  UNK     1      19.829  -1.409  31.541  1.00  0.00     0.015 A 
HETATM   12  C10 UNK     1      17.877   2.607  33.993  1.00  0.00     0.093 A 
HETATM   13  C11 UNK     1      20.176  -0.635  28.891  1.00  0.00     0.012 A 
HETATM   14  C13 UNK     1      20.356  -2.310  30.614  1.00  0.00     0.001 A 
HETATM   15  C14 UNK     1      20.529  -1.923  29.291  1.00  0.00     0.001 A 
ENDROOT
BRANCH   7  16
HETATM   16  C12 UNK     1      18.111   0.807  35.660  1.00  0.00    -0.002 A 
HETATM   17  C16 UNK     1      17.759   1.648  36.720  1.00  0.00     0.014 A 
HETATM   18  C18 UNK     1      17.646   1.135  38.012  1.00  0.00     0.001 A 
HETATM   19  C19 UNK     1      17.882  -0.219  38.249  1.00  0.00     0.000 A 
HETATM   20  C17 UNK     1      18.232  -1.060  37.194  1.00  0.00     0.001 A 
HETATM   21  C15 UNK     1      18.348  -0.549  35.902  1.00  0.00     0.014 A 
ENDBRANCH   7  16
TORSDOF 1
ENDMDL
MODEL 2
REMARK VINA RESULT:      -9.2     23.966     26.287
REMARK  1 active torsions:
REMARK  status: ('A' for Active; 'I' for Inactive)
REMARK    1  A    between atoms: C12_14  and  C5_7 
ROOT
HETATM    1  O1  UNK     1      13.476   7.430   8.522  1.00  0.00    -0.308 OA
HETATM    2  O2  UNK     1      15.416   4.083   9.775  1.00  0.00    -0.287 OA
HETATM    3  C1  UNK     1      14.715   7.552   9.106  1.00  0.00     0.101 A 
HETATM    4  C2  UNK     1      15.255   8.852   9.238  1.00  0.00     0.009 A 
HETATM    5  C3  UNK     1      15.426   6.437   9.557  1.00  0.00     0.049 A 
HETATM    6  C4  UNK     1      16.531   9.001   9.838  1.00  0.00    -0.023 A 
HETATM    7  C5  UNK     1      12.915   6.171   8.382  1.00  0.00     0.090 A 
HETATM    8  C6  UNK     1      16.680   6.590  10.145  1.00  0.00     0.019 A 
HETATM    9  C7  UNK     1      17.226   7.866  10.284  1.00  0.00     0.013 A 
HETATM   10  C8  UNK     1      14.840   5.097   9.404  1.00  0.00     0.187 A 
HETATM   11  C9  UNK     1      14.583  10.013   8.799  1.00  0.00     0.015 A 
HETATM   12  C10 UNK     1      13.509   5.033   8.771  1.00  0.00     0.093 A 
HETATM   13  C11 UNK     1      17.089  10.282   9.978  1.00  0.00     0.012 A 
HETATM   14  C13 UNK     1      15.152  11.279   8.947  1.00  0.00     0.001 A 
HETATM   15  C14 UNK     1      16.403  11.413   9.536  1.00  0.00     0.001 A 
ENDROOT
BRANCH   7  16
HETATM   16  C12 UNK     1      11.587   6.176   7.734  1.00  0.00    -0.002 A 
HETATM   17  C16 UNK     1      11.486   6.197   6.341  1.00  0.00     0.014 A 
HETATM   18  C18 UNK     1      10.232   6.203   5.731  1.00  0.00     0.001 A 
HETATM   19  C19 UNK     1       9.075   6.186   6.511  1.00  0.00     0.000 A 
HETATM   20  C17 UNK     1       9.174   6.164   7.902  1.00  0.00     0.001 A 
HETATM   21  C15 UNK     1      10.427   6.159   8.513  1.00  0.00     0.014 A 
ENDBRANCH   7  16
TORSDOF 1
ENDMDL
MODEL 3
REMARK VINA RESULT:      -9.2     23.966     26.278
REMARK  1 active torsions:
REMARK  status: ('A' for Active; 'I' for Inactive)
REMARK    1  A    between atoms: C12_14  and  C5_7 
ROOT
HETATM    1  O1  UNK     1      13.476   7.431   8.523  1.00  0.00    -0.308 OA
HETATM    2  O2  UNK     1      15.416   4.083   9.775  1.00  0.00    -0.287 OA
HETATM    3  C1  UNK     1      14.716   7.552   9.107  1.00  0.00     0.101 A 
HETATM    4  C2  UNK     1      15.256   8.853   9.239  1.00  0.00     0.009 A 
HETATM    5  C3  UNK     1      15.426   6.437   9.558  1.00  0.00     0.049 A 
HETATM    6  C4  UNK     1      16.532   9.001   9.838  1.00  0.00    -0.023 A 
HETATM    7  C5  UNK     1      12.915   6.172   8.383  1.00  0.00     0.090 A 
HETATM    8  C6  UNK     1      16.680   6.590  10.145  1.00  0.00     0.019 A 
HETATM    9  C7  UNK     1      17.227   7.866  10.284  1.00  0.00     0.013 A 
HETATM   10  C8  UNK     1      14.839   5.097   9.404  1.00  0.00     0.187 A 
HETATM   11  C9  UNK     1      14.583  10.013   8.800  1.00  0.00     0.015 A 
HETATM   12  C10 UNK     1      13.509   5.034   8.772  1.00  0.00     0.093 A 
HETATM   13  C11 UNK     1      17.090  10.282   9.979  1.00  0.00     0.012 A 
HETATM   14  C13 UNK     1      15.153  11.279   8.948  1.00  0.00     0.001 A 
HETATM   15  C14 UNK     1      16.404  11.413   9.537  1.00  0.00     0.001 A 
ENDROOT
BRANCH   7  16
HETATM   16  C12 UNK     1      11.587   6.177   7.735  1.00  0.00    -0.002 A 
HETATM   17  C16 UNK     1      10.426   6.160   8.513  1.00  0.00     0.014 A 
HETATM   18  C18 UNK     1       9.173   6.163   7.900  1.00  0.00     0.001 A 
HETATM   19  C19 UNK     1       9.076   6.186   6.509  1.00  0.00     0.000 A 
HETATM   20  C17 UNK     1      10.233   6.204   5.730  1.00  0.00     0.001 A 
HETATM   21  C15 UNK     1      11.486   6.199   6.342  1.00  0.00     0.014 A 
ENDBRANCH   7  16
TORSDOF 1
ENDMDL
MODEL 4
REMARK VINA RESULT:      -9.0      1.976      4.962
REMARK  1 active torsions:
REMARK  status: ('A' for Active; 'I' for Inactive)
REMARK    1  A    between atoms: C12_14  and  C5_7 
ROOT
HETATM    1  O1  UNK     1      18.819   2.237  31.644  1.00  0.00    -0.308 OA
HETATM    2  O2  UNK     1      17.727   1.225  35.429  1.00  0.00    -0.287 OA
HETATM    3  C1  UNK     1      18.969   0.934  32.061  1.00  0.00     0.101 A 
HETATM    4  C2  UNK     1      19.499   0.005  31.135  1.00  0.00     0.009 A 
HETATM    5  C3  UNK     1      18.613   0.530  33.350  1.00  0.00     0.049 A 
HETATM    6  C4  UNK     1      19.663  -1.343  31.543  1.00  0.00    -0.023 A 
HETATM    7  C5  UNK     1      18.307   3.173  32.527  1.00  0.00     0.090 A 
HETATM    8  C6  UNK     1      18.776  -0.796  33.744  1.00  0.00     0.019 A 
HETATM    9  C7  UNK     1      19.298  -1.724  32.844  1.00  0.00     0.013 A 
HETATM   10  C8  UNK     1      18.061   1.519  34.288  1.00  0.00     0.187 A 
HETATM   11  C9  UNK     1      19.874   0.356  29.821  1.00  0.00     0.015 A 
HETATM   12  C10 UNK     1      17.926   2.898  33.783  1.00  0.00     0.093 A 
HETATM   13  C11 UNK     1      20.186  -2.284  30.642  1.00  0.00     0.012 A 
HETATM   14  C13 UNK     1      20.393  -0.592  28.938  1.00  0.00     0.001 A 
HETATM   15  C14 UNK     1      20.549  -1.910  29.349  1.00  0.00     0.001 A 
ENDROOT
BRANCH   7  16
HETATM   16  C12 UNK     1      18.189   4.531  31.956  1.00  0.00    -0.002 A 
HETATM   17  C16 UNK     1      18.886   4.867  30.793  1.00  0.00     0.014 A 
HETATM   18  C18 UNK     1      18.775   6.149  30.255  1.00  0.00     0.001 A 
HETATM   19  C19 UNK     1      17.967   7.100  30.879  1.00  0.00     0.000 A 
HETATM   20  C17 UNK     1      17.270   6.768  32.041  1.00  0.00     0.001 A 
HETATM   21  C15 UNK     1      17.381   5.486  32.579  1.00  0.00     0.014 A 
ENDBRANCH   7  16
TORSDOF 1
ENDMDL
MODEL 5
REMARK VINA RESULT:      -9.0      1.429      3.636
REMARK  1 active torsions:
REMARK  status: ('A' for Active; 'I' for Inactive)
REMARK    1  A    between atoms: C12_14  and  C5_7 
ROOT
HETATM    1  O1  UNK     1      18.942  -0.086  33.430  1.00  0.00    -0.308 OA
HETATM    2  O2  UNK     1      20.923  -3.631  33.225  1.00  0.00    -0.287 OA
HETATM    3  C1  UNK     1      19.389  -0.535  32.209  1.00  0.00     0.101 A 
HETATM    4  C2  UNK     1      19.129   0.271  31.076  1.00  0.00     0.009 A 
HETATM    5  C3  UNK     1      20.077  -1.744  32.079  1.00  0.00     0.049 A 
HETATM    6  C4  UNK     1      19.581  -0.173  29.808  1.00  0.00    -0.023 A 
HETATM    7  C5  UNK     1      19.185  -0.848  34.560  1.00  0.00     0.090 A 
HETATM    8  C6  UNK     1      20.519  -2.175  30.830  1.00  0.00     0.019 A 
HETATM    9  C7  UNK     1      20.271  -1.391  29.703  1.00  0.00     0.013 A 
HETATM   10  C8  UNK     1      20.330  -2.562  33.276  1.00  0.00     0.187 A 
HETATM   11  C9  UNK     1      18.438   1.499  31.148  1.00  0.00     0.015 A 
HETATM   12  C10 UNK     1      19.827  -2.026  34.554  1.00  0.00     0.093 A 
HETATM   13  C11 UNK     1      19.333   0.609  28.668  1.00  0.00     0.012 A 
HETATM   14  C13 UNK     1      18.200   2.264  30.004  1.00  0.00     0.001 A 
HETATM   15  C14 UNK     1      18.648   1.820  28.767  1.00  0.00     0.001 A 
ENDROOT
BRANCH   7  16
HETATM   16  C12 UNK     1      18.648  -0.260  35.805  1.00  0.00    -0.002 A 
HETATM   17  C16 UNK     1      18.274  -1.086  36.868  1.00  0.00     0.014 A 
HETATM   18  C18 UNK     1      17.767  -0.529  38.042  1.00  0.00     0.001 A 
HETATM   19  C19 UNK     1      17.632   0.854  38.157  1.00  0.00     0.000 A 
HETATM   20  C17 UNK     1      18.004   1.681  37.098  1.00  0.00     0.001 A 
HETATM   21  C15 UNK     1      18.511   1.126  35.924  1.00  0.00     0.014 A 
ENDBRANCH   7  16
TORSDOF 1
ENDMDL
MODEL 6
REMARK VINA RESULT:      -8.7      2.369      6.073
REMARK  1 active torsions:
REMARK  status: ('A' for Active; 'I' for Inactive)
REMARK    1  A    between atoms: C12_14  and  C5_7 
ROOT
HETATM    1  O1  UNK     1      18.105   3.265  33.986  1.00  0.00    -0.308 OA
HETATM    2  O2  UNK     1      18.757   1.243  30.519  1.00  0.00    -0.287 OA
HETATM    3  C1  UNK     1      18.198   1.893  34.017  1.00  0.00     0.101 A 
HETATM    4  C2  UNK     1      18.063   1.252  35.270  1.00  0.00     0.009 A 
HETATM    5  C3  UNK     1      18.419   1.147  32.856  1.00  0.00     0.049 A 
HETATM    6  C4  UNK     1      18.155  -0.161  35.325  1.00  0.00    -0.023 A 
HETATM    7  C5  UNK     1      18.227   3.924  32.774  1.00  0.00     0.090 A 
HETATM    8  C6  UNK     1      18.509  -0.242  32.917  1.00  0.00     0.019 A 
HETATM    9  C7  UNK     1      18.377  -0.890  34.145  1.00  0.00     0.013 A 
HETATM   10  C8  UNK     1      18.558   1.842  31.568  1.00  0.00     0.187 A 
HETATM   11  C9  UNK     1      17.841   1.955  36.473  1.00  0.00     0.015 A 
HETATM   12  C10 UNK     1      18.448   3.312  31.601  1.00  0.00     0.093 A 
HETATM   13  C11 UNK     1      18.026  -0.820  36.558  1.00  0.00     0.012 A 
HETATM   14  C13 UNK     1      17.714   1.284  37.691  1.00  0.00     0.001 A 
HETATM   15  C14 UNK     1      17.806  -0.101  37.733  1.00  0.00     0.001 A 
ENDROOT
BRANCH   7  16
HETATM   16  C12 UNK     1      18.116   5.394  32.878  1.00  0.00    -0.002 A 
HETATM   17  C16 UNK     1      16.972   6.046  32.412  1.00  0.00     0.014 A 
HETATM   18  C18 UNK     1      16.868   7.434  32.509  1.00  0.00     0.001 A 
HETATM   19  C19 UNK     1      17.907   8.173  33.075  1.00  0.00     0.000 A 
HETATM   20  C17 UNK     1      19.050   7.525  33.542  1.00  0.00     0.001 A 
HETATM   21  C15 UNK     1      19.155   6.138  33.443  1.00  0.00     0.014 A 
ENDBRANCH   7  16
TORSDOF 1
ENDMDL
MODEL 7
REMARK VINA RESULT:      -8.6      1.697      6.764
REMARK  1 active torsions:
REMARK  status: ('A' for Active; 'I' for Inactive)
REMARK    1  A    between atoms: C12_14  and  C5_7 
ROOT
HETATM    1  O1  UNK     1      18.837  -0.177  33.139  1.00  0.00    -0.308 OA
HETATM    2  O2  UNK     1      21.290  -3.365  32.536  1.00  0.00    -0.287 OA
HETATM    3  C1  UNK     1      19.114  -1.020  34.190  1.00  0.00     0.101 A 
HETATM    4  C2  UNK     1      18.523  -0.725  35.442  1.00  0.00     0.009 A 
HETATM    5  C3  UNK     1      19.947  -2.131  34.041  1.00  0.00     0.049 A 
HETATM    6  C4  UNK     1      18.793  -1.581  36.539  1.00  0.00    -0.023 A 
HETATM    7  C5  UNK     1      19.395  -0.440  31.898  1.00  0.00     0.090 A 
HETATM    8  C6  UNK     1      20.209  -2.968  35.124  1.00  0.00     0.019 A 
HETATM    9  C7  UNK     1      19.634  -2.692  36.364  1.00  0.00     0.013 A 
HETATM   10  C8  UNK     1      20.549  -2.410  32.728  1.00  0.00     0.187 A 
HETATM   11  C9  UNK     1      17.676   0.383  35.650  1.00  0.00     0.015 A 
HETATM   12  C10 UNK     1      20.214  -1.471  31.641  1.00  0.00     0.093 A 
HETATM   13  C11 UNK     1      18.220  -1.308  37.791  1.00  0.00     0.012 A 
HETATM   14  C13 UNK     1      17.114   0.640  36.902  1.00  0.00     0.001 A 
HETATM   15  C14 UNK     1      17.385  -0.206  37.971  1.00  0.00     0.001 A 
ENDROOT
BRANCH   7  16
HETATM   16  C12 UNK     1      19.028   0.542  30.857  1.00  0.00    -0.002 A 
HETATM   17  C16 UNK     1      18.694   1.851  31.213  1.00  0.00     0.014 A 
HETATM   18  C18 UNK     1      18.346   2.777  30.229  1.00  0.00     0.001 A 
HETATM   19  C19 UNK     1      18.331   2.398  28.887  1.00  0.00     0.000 A 
HETATM   20  C17 UNK     1      18.665   1.092  28.529  1.00  0.00     0.001 A 
HETATM   21  C15 UNK     1      19.012   0.166  29.511  1.00  0.00     0.014 A 
ENDBRANCH   7  16
TORSDOF 1
ENDMDL
MODEL 8
REMARK VINA RESULT:      -8.5      2.151      4.764
REMARK  1 active torsions:
REMARK  status: ('A' for Active; 'I' for Inactive)
REMARK    1  A    between atoms: C12_14  and  C5_7 
ROOT
HETATM    1  O1  UNK     1      18.062   2.772  33.668  1.00  0.00    -0.308 OA
HETATM    2  O2  UNK     1      19.192   0.638  30.396  1.00  0.00    -0.287 OA
HETATM    3  C1  UNK     1      18.279   3.430  32.479  1.00  0.00     0.101 A 
HETATM    4  C2  UNK     1      18.091   4.832  32.460  1.00  0.00     0.009 A 
HETATM    5  C3  UNK     1      18.671   2.749  31.324  1.00  0.00     0.049 A 
HETATM    6  C4  UNK     1      18.310   5.530  31.246  1.00  0.00    -0.023 A 
HETATM    7  C5  UNK     1      18.242   1.399  33.723  1.00  0.00     0.090 A 
HETATM    8  C6  UNK     1      18.883   3.441  30.134  1.00  0.00     0.019 A 
HETATM    9  C7  UNK     1      18.704   4.824  30.099  1.00  0.00     0.013 A 
HETATM   10  C8  UNK     1      18.855   1.290  31.375  1.00  0.00     0.187 A 
HETATM   11  C9  UNK     1      17.695   5.570  33.595  1.00  0.00     0.015 A 
HETATM   12  C10 UNK     1      18.608   0.644  32.677  1.00  0.00     0.093 A 
HETATM   13  C11 UNK     1      18.128   6.922  31.202  1.00  0.00     0.012 A 
HETATM   14  C13 UNK     1      17.520   6.954  33.534  1.00  0.00     0.001 A 
HETATM   15  C14 UNK     1      17.737   7.629  32.338  1.00  0.00     0.001 A 
ENDROOT
BRANCH   7  16
HETATM   16  C12 UNK     1      17.971   0.813  35.052  1.00  0.00    -0.002 A 
HETATM   17  C16 UNK     1      17.786  -0.565  35.187  1.00  0.00     0.014 A 
HETATM   18  C18 UNK     1      17.529  -1.117  36.442  1.00  0.00     0.001 A 
HETATM   19  C19 UNK     1      17.457  -0.293  37.566  1.00  0.00     0.000 A 
HETATM   20  C17 UNK     1      17.642   1.083  37.434  1.00  0.00     0.001 A 
HETATM   21  C15 UNK     1      17.898   1.635  36.179  1.00  0.00     0.014 A 
ENDBRANCH   7  16
TORSDOF 1
ENDMDL
MODEL 9
REMARK VINA RESULT:      -8.5      6.767     10.346
REMARK  1 active torsions:
REMARK  status: ('A' for Active; 'I' for Inactive)
REMARK    1  A    between atoms: C12_14  and  C5_7 
ROOT
HETATM    1  O1  UNK     1      17.530   8.802  33.038  1.00  0.00    -0.308 OA
HETATM    2  O2  UNK     1      13.830   7.124  33.217  1.00  0.00    -0.287 OA
HETATM    3  C1  UNK     1      16.506   9.497  33.640  1.00  0.00     0.101 A 
HETATM    4  C2  UNK     1      16.802  10.773  34.173  1.00  0.00     0.009 A 
HETATM    5  C3  UNK     1      15.215   8.970  33.728  1.00  0.00     0.049 A 
HETATM    6  C4  UNK     1      15.762  11.506  34.797  1.00  0.00    -0.023 A 
HETATM    7  C5  UNK     1      17.273   7.551  32.500  1.00  0.00     0.090 A 
HETATM    8  C6  UNK     1      14.197   9.696  34.343  1.00  0.00     0.019 A 
HETATM    9  C7  UNK     1      14.472  10.956  34.873  1.00  0.00     0.013 A 
HETATM   10  C8  UNK     1      14.939   7.639  33.166  1.00  0.00     0.187 A 
HETATM   11  C9  UNK     1      18.087  11.352  34.114  1.00  0.00     0.015 A 
HETATM   12  C10 UNK     1      16.077   6.946  32.534  1.00  0.00     0.093 A 
HETATM   13  C11 UNK     1      16.031  12.775  35.336  1.00  0.00     0.012 A 
HETATM   14  C13 UNK     1      18.337  12.615  34.654  1.00  0.00     0.001 A 
HETATM   15  C14 UNK     1      17.310  13.325  35.264  1.00  0.00     0.001 A 
ENDROOT
BRANCH   7  16
HETATM   16  C12 UNK     1      18.455   6.909  31.890  1.00  0.00    -0.002 A 
HETATM   17  C16 UNK     1      19.625   6.738  32.635  1.00  0.00     0.014 A 
HETATM   18  C18 UNK     1      20.741   6.132  32.058  1.00  0.00     0.001 A 
HETATM   19  C19 UNK     1      20.691   5.694  30.735  1.00  0.00     0.000 A 
HETATM   20  C17 UNK     1      19.524   5.861  29.989  1.00  0.00     0.001 A 
HETATM   21  C15 UNK     1      18.409   6.468  30.565  1.00  0.00     0.014 A 
ENDBRANCH   7  16
TORSDOF 1
ENDMDL
MODEL 10
REMARK VINA RESULT:      -8.4      0.842      6.055
REMARK  1 active torsions:
REMARK  status: ('A' for Active; 'I' for Inactive)
REMARK    1  A    between atoms: C12_14  and  C5_7 
ROOT
HETATM    1  O1  UNK     1      18.876   0.108  33.307  1.00  0.00    -0.308 OA
HETATM    2  O2  UNK     1      17.839   4.037  33.466  1.00  0.00    -0.287 OA
HETATM    3  C1  UNK     1      18.483   0.650  34.509  1.00  0.00     0.101 A 
HETATM    4  C2  UNK     1      18.458  -0.202  35.638  1.00  0.00     0.009 A 
HETATM    5  C3  UNK     1      18.118   1.994  34.623  1.00  0.00     0.049 A 
HETATM    6  C4  UNK     1      18.057   0.336  36.886  1.00  0.00    -0.023 A 
HETATM    7  C5  UNK     1      18.917   0.916  32.182  1.00  0.00     0.090 A 
HETATM    8  C6  UNK     1      17.724   2.516  35.853  1.00  0.00     0.019 A 
HETATM    9  C7  UNK     1      17.695   1.690  36.976  1.00  0.00     0.013 A 
HETATM   10  C8  UNK     1      18.151   2.854  33.430  1.00  0.00     0.187 A 
HETATM   11  C9  UNK     1      18.814  -1.566  35.580  1.00  0.00     0.015 A 
HETATM   12  C10 UNK     1      18.582   2.214  32.173  1.00  0.00     0.093 A 
HETATM   13  C11 UNK     1      18.022  -0.490  38.021  1.00  0.00     0.012 A 
HETATM   14  C13 UNK     1      18.775  -2.373  36.718  1.00  0.00     0.001 A 
HETATM   15  C14 UNK     1      18.380  -1.835  37.937  1.00  0.00     0.001 A 
ENDROOT
BRANCH   7  16
HETATM   16  C12 UNK     1      19.347   0.213  30.956  1.00  0.00    -0.002 A 
HETATM   17  C16 UNK     1      19.095   0.771  29.700  1.00  0.00     0.014 A 
HETATM   18  C18 UNK     1      19.501   0.106  28.544  1.00  0.00     0.001 A 
HETATM   19  C19 UNK     1      20.162  -1.119  28.638  1.00  0.00     0.000 A 
HETATM   20  C17 UNK     1      20.416  -1.679  29.890  1.00  0.00     0.001 A 
HETATM   21  C15 UNK     1      20.009  -1.015  31.047  1.00  0.00     0.014 A 
ENDBRANCH   7  16
TORSDOF 1
ENDMDL
