MODEL 1
REMARK VINA RESULT:      -9.1      0.000      0.000
REMARK  4 active torsions:
REMARK  status: ('A' for Active; 'I' for Inactive)
REMARK       I    between atoms: C5_8  and  N1_3 
REMARK    1  A    between atoms: C8_11  and  N1_3 
REMARK    2  A    between atoms: C1_4  and  C2_5 
REMARK    3  A    between atoms: C1_4  and  C5_8 
REMARK    4  A    between atoms: C3_6  and  C4_7 
ROOT
HETATM    1  C1  UNK     1      19.085  -2.203  15.277  1.00  0.00     0.043 C 
HETATM    2  C3  UNK     1      19.027  -1.537  14.094  1.00  0.00     0.029 C 
ENDROOT
BRANCH   1   3
HETATM    3  C2  UNK     1      19.714  -3.534  15.397  1.00  0.00    -0.021 A 
HETATM    4  C6  UNK     1      18.921  -4.666  15.315  1.00  0.00     0.012 A 
HETATM    5  C11 UNK     1      19.515  -5.923  15.427  1.00  0.00     0.001 A 
HETATM    6  C15 UNK     1      20.892  -6.029  15.619  1.00  0.00     0.000 A 
HETATM    7  C12 UNK     1      21.675  -4.878  15.698  1.00  0.00     0.001 A 
HETATM    8  C7  UNK     1      21.081  -3.620  15.586  1.00  0.00     0.012 A 
ENDBRANCH   1   3
BRANCH   1   9
HETATM    9  C5  UNK     1      18.499  -1.493  16.476  1.00  0.00     0.257 C 
HETATM   10  O1  UNK     1      17.386  -1.796  16.894  1.00  0.00    -0.267 OA
HETATM   11  N1  UNK     1      19.347  -0.525  17.000  1.00  0.00    -0.320 N 
HETATM   12  H4  UNK     1      20.252  -0.370  16.566  1.00  0.00     0.169 HD
BRANCH  11  13
HETATM   13  C8  UNK     1      19.109   0.318  18.114  1.00  0.00     0.073 A 
HETATM   14  C13 UNK     1      18.988   1.682  17.918  1.00  0.00     0.143 A 
HETATM   15  F1  UNK     1      19.092   2.222  16.696  1.00  0.00    -0.204 F 
HETATM   16  C19 UNK     1      18.752   2.509  19.017  1.00  0.00     0.044 A 
HETATM   17  C21 UNK     1      18.641   1.959  20.294  1.00  0.00     0.003 A 
HETATM   18  C20 UNK     1      18.766   0.581  20.472  1.00  0.00     0.002 A 
HETATM   19  C14 UNK     1      19.001  -0.246  19.374  1.00  0.00     0.033 A 
ENDBRANCH  11  13
ENDBRANCH   1   9
BRANCH   2  20
HETATM   20  C4  UNK     1      19.560  -1.989  12.817  1.00  0.00    -0.035 A 
HETATM   21  C10 UNK     1      18.970  -3.069  12.160  1.00  0.00     0.011 A 
HETATM   22  C17 UNK     1      19.481  -3.503  10.936  1.00  0.00     0.001 A 
HETATM   23  C18 UNK     1      20.580  -2.858  10.371  1.00  0.00     0.000 A 
HETATM   24  C16 UNK     1      21.170  -1.777  11.028  1.00  0.00     0.001 A 
HETATM   25  C9  UNK     1      20.659  -1.344  12.252  1.00  0.00     0.011 A 
ENDBRANCH   2  20
TORSDOF 4
ENDMDL
MODEL 2
REMARK VINA RESULT:      -8.5     19.520     22.000
REMARK  4 active torsions:
REMARK  status: ('A' for Active; 'I' for Inactive)
REMARK       I    between atoms: C5_8  and  N1_3 
REMARK    1  A    between atoms: C8_11  and  N1_3 
REMARK    2  A    between atoms: C1_4  and  C2_5 
REMARK    3  A    between atoms: C1_4  and  C5_8 
REMARK    4  A    between atoms: C3_6  and  C4_7 
ROOT
HETATM    1  C1  UNK     1      20.216  -4.514  36.851  1.00  0.00     0.043 C 
HETATM    2  C3  UNK     1      21.111  -4.773  37.841  1.00  0.00     0.029 C 
ENDROOT
BRANCH   1   3
HETATM    3  C2  UNK     1      19.318  -5.556  36.314  1.00  0.00    -0.021 A 
HETATM    4  C6  UNK     1      19.797  -6.429  35.352  1.00  0.00     0.012 A 
HETATM    5  C11 UNK     1      18.950  -7.415  34.845  1.00  0.00     0.001 A 
HETATM    6  C15 UNK     1      17.638  -7.512  35.308  1.00  0.00     0.000 A 
HETATM    7  C12 UNK     1      17.173  -6.624  36.278  1.00  0.00     0.001 A 
HETATM    8  C7  UNK     1      18.020  -5.638  36.785  1.00  0.00     0.012 A 
ENDBRANCH   1   3
BRANCH   1   9
HETATM    9  C5  UNK     1      20.163  -3.088  36.351  1.00  0.00     0.257 C 
HETATM   10  O1  UNK     1      21.183  -2.530  35.960  1.00  0.00    -0.267 OA
HETATM   11  N1  UNK     1      18.883  -2.547  36.389  1.00  0.00    -0.320 N 
HETATM   12  H4  UNK     1      18.114  -3.116  36.731  1.00  0.00     0.169 HD
BRANCH  11  13
HETATM   13  C8  UNK     1      18.486  -1.245  35.996  1.00  0.00     0.073 A 
HETATM   14  C13 UNK     1      18.117  -0.328  36.964  1.00  0.00     0.143 A 
HETATM   15  F1  UNK     1      18.127  -0.647  38.266  1.00  0.00    -0.204 F 
HETATM   16  C19 UNK     1      17.727   0.954  36.574  1.00  0.00     0.044 A 
HETATM   17  C21 UNK     1      17.712   1.298  35.222  1.00  0.00     0.003 A 
HETATM   18  C20 UNK     1      18.088   0.359  34.261  1.00  0.00     0.002 A 
HETATM   19  C14 UNK     1      18.478  -0.922  34.650  1.00  0.00     0.033 A 
ENDBRANCH  11  13
ENDBRANCH   1   9
BRANCH   2  20
HETATM   20  C4  UNK     1      21.316  -6.047  38.513  1.00  0.00    -0.035 A 
HETATM   21  C10 UNK     1      22.598  -6.590  38.600  1.00  0.00     0.011 A 
HETATM   22  C17 UNK     1      22.795  -7.812  39.244  1.00  0.00     0.001 A 
HETATM   23  C18 UNK     1      21.710  -8.490  39.799  1.00  0.00     0.000 A 
HETATM   24  C16 UNK     1      20.428  -7.947  39.713  1.00  0.00     0.001 A 
HETATM   25  C9  UNK     1      20.232  -6.725  39.068  1.00  0.00     0.011 A 
ENDBRANCH   2  20
TORSDOF 4
ENDMDL
MODEL 3
REMARK VINA RESULT:      -8.3      1.149      3.429
REMARK  4 active torsions:
REMARK  status: ('A' for Active; 'I' for Inactive)
REMARK       I    between atoms: C5_8  and  N1_3 
REMARK    1  A    between atoms: C8_11  and  N1_3 
REMARK    2  A    between atoms: C1_4  and  C2_5 
REMARK    3  A    between atoms: C1_4  and  C5_8 
REMARK    4  A    between atoms: C3_6  and  C4_7 
ROOT
HETATM    1  C1  UNK     1      18.859  -2.684  15.379  1.00  0.00     0.043 C 
HETATM    2  C3  UNK     1      18.789  -4.011  15.666  1.00  0.00     0.029 C 
ENDROOT
BRANCH   1   3
HETATM    3  C2  UNK     1      19.387  -2.188  14.093  1.00  0.00    -0.021 A 
HETATM    4  C6  UNK     1      20.740  -2.305  13.828  1.00  0.00     0.012 A 
HETATM    5  C11 UNK     1      21.239  -1.836  12.613  1.00  0.00     0.001 A 
HETATM    6  C15 UNK     1      20.377  -1.259  11.681  1.00  0.00     0.000 A 
HETATM    7  C12 UNK     1      19.016  -1.149  11.965  1.00  0.00     0.001 A 
HETATM    8  C7  UNK     1      18.517  -1.618  13.181  1.00  0.00     0.012 A 
ENDBRANCH   1   3
BRANCH   1   9
HETATM    9  C5  UNK     1      18.333  -1.742  16.437  1.00  0.00     0.257 C 
HETATM   10  O1  UNK     1      17.172  -1.830  16.826  1.00  0.00    -0.267 OA
HETATM   11  N1  UNK     1      19.289  -0.833  16.877  1.00  0.00    -0.320 N 
HETATM   12  H4  UNK     1      20.224  -0.865  16.480  1.00  0.00     0.169 HD
BRANCH  11  13
HETATM   13  C8  UNK     1      19.129   0.180  17.855  1.00  0.00     0.073 A 
HETATM   14  C13 UNK     1      19.106   1.506  17.458  1.00  0.00     0.143 A 
HETATM   15  F1  UNK     1      19.233   1.849  16.168  1.00  0.00    -0.204 F 
HETATM   16  C19 UNK     1      18.948   2.502  18.421  1.00  0.00     0.044 A 
HETATM   17  C21 UNK     1      18.815   2.158  19.766  1.00  0.00     0.003 A 
HETATM   18  C20 UNK     1      18.841   0.816  20.147  1.00  0.00     0.002 A 
HETATM   19  C14 UNK     1      18.998  -0.181  19.184  1.00  0.00     0.033 A 
ENDBRANCH  11  13
ENDBRANCH   1   9
BRANCH   2  20
HETATM   20  C4  UNK     1      19.187  -5.108  14.796  1.00  0.00    -0.035 A 
HETATM   21  C10 UNK     1      20.440  -5.701  14.952  1.00  0.00     0.011 A 
HETATM   22  C17 UNK     1      20.822  -6.753  14.118  1.00  0.00     0.001 A 
HETATM   23  C18 UNK     1      19.951  -7.210  13.129  1.00  0.00     0.000 A 
HETATM   24  C16 UNK     1      18.698  -6.616  12.973  1.00  0.00     0.001 A 
HETATM   25  C9  UNK     1      18.317  -5.565  13.808  1.00  0.00     0.011 A 
ENDBRANCH   2  20
TORSDOF 4
ENDMDL
MODEL 4
REMARK VINA RESULT:      -8.1     16.996     20.346
REMARK  4 active torsions:
REMARK  status: ('A' for Active; 'I' for Inactive)
REMARK       I    between atoms: C5_8  and  N1_3 
REMARK    1  A    between atoms: C8_11  and  N1_3 
REMARK    2  A    between atoms: C1_4  and  C2_5 
REMARK    3  A    between atoms: C1_4  and  C5_8 
REMARK    4  A    between atoms: C3_6  and  C4_7 
ROOT
HETATM    1  C1  UNK     1      18.332   4.816  33.401  1.00  0.00     0.043 C 
HETATM    2  C3  UNK     1      17.910   5.734  34.310  1.00  0.00     0.029 C 
ENDROOT
BRANCH   1   3
HETATM    3  C2  UNK     1      19.010   5.209  32.148  1.00  0.00    -0.021 A 
HETATM    4  C6  UNK     1      20.356   5.528  32.182  1.00  0.00     0.012 A 
HETATM    5  C11 UNK     1      20.997   5.898  30.999  1.00  0.00     0.001 A 
HETATM    6  C15 UNK     1      20.282   5.942  29.803  1.00  0.00     0.000 A 
HETATM    7  C12 UNK     1      18.926   5.616  29.789  1.00  0.00     0.001 A 
HETATM    8  C7  UNK     1      18.285   5.247  30.971  1.00  0.00     0.012 A 
ENDBRANCH   1   3
BRANCH   1   9
HETATM    9  C5  UNK     1      18.100   3.365  33.755  1.00  0.00     0.257 C 
HETATM   10  O1  UNK     1      17.727   2.569  32.898  1.00  0.00    -0.267 OA
HETATM   11  N1  UNK     1      18.361   3.085  35.091  1.00  0.00    -0.320 N 
HETATM   12  H4  UNK     1      18.673   3.833  35.703  1.00  0.00     0.169 HD
BRANCH  11  13
HETATM   13  C8  UNK     1      18.246   1.835  35.748  1.00  0.00     0.073 A 
HETATM   14  C13 UNK     1      17.326   1.689  36.771  1.00  0.00     0.143 A 
HETATM   15  F1  UNK     1      16.542   2.707  37.153  1.00  0.00    -0.204 F 
HETATM   16  C19 UNK     1      17.214   0.457  37.415  1.00  0.00     0.044 A 
HETATM   17  C21 UNK     1      18.024  -0.610  37.027  1.00  0.00     0.003 A 
HETATM   18  C20 UNK     1      18.946  -0.444  35.993  1.00  0.00     0.002 A 
HETATM   19  C14 UNK     1      19.058   0.787  35.348  1.00  0.00     0.033 A 
ENDBRANCH  11  13
ENDBRANCH   1   9
BRANCH   2  20
HETATM   20  C4  UNK     1      18.060   7.178  34.218  1.00  0.00    -0.035 A 
HETATM   21  C10 UNK     1      16.998   7.961  33.762  1.00  0.00     0.011 A 
HETATM   22  C17 UNK     1      17.142   9.346  33.673  1.00  0.00     0.001 A 
HETATM   23  C18 UNK     1      18.346   9.947  34.039  1.00  0.00     0.000 A 
HETATM   24  C16 UNK     1      19.408   9.164  34.494  1.00  0.00     0.001 A 
HETATM   25  C9  UNK     1      19.263   7.779  34.583  1.00  0.00     0.011 A 
ENDBRANCH   2  20
TORSDOF 4
ENDMDL
MODEL 5
REMARK VINA RESULT:      -7.6     22.297     24.629
REMARK  4 active torsions:
REMARK  status: ('A' for Active; 'I' for Inactive)
REMARK       I    between atoms: C5_8  and  N1_3 
REMARK    1  A    between atoms: C8_11  and  N1_3 
REMARK    2  A    between atoms: C1_4  and  C2_5 
REMARK    3  A    between atoms: C1_4  and  C5_8 
REMARK    4  A    between atoms: C3_6  and  C4_7 
ROOT
HETATM    1  C1  UNK     1      27.294  -7.793  38.194  1.00  0.00     0.043 C 
HETATM    2  C3  UNK     1      28.047  -7.071  39.064  1.00  0.00     0.029 C 
ENDROOT
BRANCH   1   3
HETATM    3  C2  UNK     1      27.732  -8.053  36.807  1.00  0.00    -0.021 A 
HETATM    4  C6  UNK     1      27.886  -6.987  35.937  1.00  0.00     0.012 A 
HETATM    5  C11 UNK     1      28.300  -7.231  34.628  1.00  0.00     0.001 A 
HETATM    6  C15 UNK     1      28.554  -8.537  34.209  1.00  0.00     0.000 A 
HETATM    7  C12 UNK     1      28.393  -9.598  35.100  1.00  0.00     0.001 A 
HETATM    8  C7  UNK     1      27.979  -9.354  36.409  1.00  0.00     0.012 A 
ENDBRANCH   1   3
BRANCH   1   9
HETATM    9  C5  UNK     1      25.995  -8.348  38.731  1.00  0.00     0.257 C 
HETATM   10  O1  UNK     1      26.002  -9.200  39.615  1.00  0.00    -0.267 OA
HETATM   11  N1  UNK     1      24.875  -7.787  38.128  1.00  0.00    -0.320 N 
HETATM   12  H4  UNK     1      25.000  -7.082  37.408  1.00  0.00     0.169 HD
BRANCH  11  13
HETATM   13  C8  UNK     1      23.515  -8.081  38.395  1.00  0.00     0.073 A 
HETATM   14  C13 UNK     1      22.816  -8.903  37.529  1.00  0.00     0.143 A 
HETATM   15  F1  UNK     1      23.400  -9.427  36.442  1.00  0.00    -0.204 F 
HETATM   16  C19 UNK     1      21.477  -9.191  37.795  1.00  0.00     0.044 A 
HETATM   17  C21 UNK     1      20.858  -8.652  38.922  1.00  0.00     0.003 A 
HETATM   18  C20 UNK     1      21.578  -7.825  39.784  1.00  0.00     0.002 A 
HETATM   19  C14 UNK     1      22.917  -7.537  39.520  1.00  0.00     0.033 A 
ENDBRANCH  11  13
ENDBRANCH   1   9
BRANCH   2  20
HETATM   20  C4  UNK     1      29.349  -6.477  38.799  1.00  0.00    -0.035 A 
HETATM   21  C10 UNK     1      30.450  -7.295  38.548  1.00  0.00     0.011 A 
HETATM   22  C17 UNK     1      31.699  -6.725  38.294  1.00  0.00     0.001 A 
HETATM   23  C18 UNK     1      31.844  -5.338  38.292  1.00  0.00     0.000 A 
HETATM   24  C16 UNK     1      30.742  -4.520  38.543  1.00  0.00     0.001 A 
HETATM   25  C9  UNK     1      29.495  -5.091  38.797  1.00  0.00     0.011 A 
ENDBRANCH   2  20
TORSDOF 4
ENDMDL
MODEL 6
REMARK VINA RESULT:      -7.5     17.363     20.970
REMARK  4 active torsions:
REMARK  status: ('A' for Active; 'I' for Inactive)
REMARK       I    between atoms: C5_8  and  N1_3 
REMARK    1  A    between atoms: C8_11  and  N1_3 
REMARK    2  A    between atoms: C1_4  and  C2_5 
REMARK    3  A    between atoms: C1_4  and  C5_8 
REMARK    4  A    between atoms: C3_6  and  C4_7 
ROOT
HETATM    1  C1  UNK     1      17.898   8.313  33.258  1.00  0.00     0.043 C 
HETATM    2  C3  UNK     1      18.919   7.484  32.915  1.00  0.00     0.029 C 
ENDROOT
BRANCH   1   3
HETATM    3  C2  UNK     1      16.484   7.936  33.060  1.00  0.00    -0.021 A 
HETATM    4  C6  UNK     1      15.692   7.683  34.166  1.00  0.00     0.012 A 
HETATM    5  C11 UNK     1      14.355   7.328  33.980  1.00  0.00     0.001 A 
HETATM    6  C15 UNK     1      13.833   7.232  32.690  1.00  0.00     0.000 A 
HETATM    7  C12 UNK     1      14.646   7.492  31.588  1.00  0.00     0.001 A 
HETATM    8  C7  UNK     1      15.983   7.846  31.774  1.00  0.00     0.012 A 
ENDBRANCH   1   3
BRANCH   1   9
HETATM    9  C5  UNK     1      18.286   9.631  33.887  1.00  0.00     0.257 C 
HETATM   10  O1  UNK     1      19.377   9.760  34.435  1.00  0.00    -0.267 OA
HETATM   11  N1  UNK     1      17.303  10.605  33.755  1.00  0.00    -0.320 N 
HETATM   12  H4  UNK     1      16.440  10.377  33.271  1.00  0.00     0.169 HD
BRANCH  11  13
HETATM   13  C8  UNK     1      17.345  11.941  34.227  1.00  0.00     0.073 A 
HETATM   14  C13 UNK     1      18.292  12.811  33.715  1.00  0.00     0.143 A 
HETATM   15  F1  UNK     1      19.170  12.415  32.783  1.00  0.00    -0.204 F 
HETATM   16  C19 UNK     1      18.330  14.125  34.181  1.00  0.00     0.044 A 
HETATM   17  C21 UNK     1      17.422  14.549  35.150  1.00  0.00     0.003 A 
HETATM   18  C20 UNK     1      16.474  13.658  35.654  1.00  0.00     0.002 A 
HETATM   19  C14 UNK     1      16.435  12.344  35.188  1.00  0.00     0.033 A 
ENDBRANCH  11  13
ENDBRANCH   1   9
BRANCH   2  20
HETATM   20  C4  UNK     1      18.801   6.153  32.341  1.00  0.00    -0.035 A 
HETATM   21  C10 UNK     1      18.306   5.102  33.115  1.00  0.00     0.011 A 
HETATM   22  C17 UNK     1      18.192   3.825  32.564  1.00  0.00     0.001 A 
HETATM   23  C18 UNK     1      18.574   3.599  31.242  1.00  0.00     0.000 A 
HETATM   24  C16 UNK     1      19.069   4.650  30.469  1.00  0.00     0.001 A 
HETATM   25  C9  UNK     1      19.182   5.927  31.020  1.00  0.00     0.011 A 
ENDBRANCH   2  20
TORSDOF 4
ENDMDL
MODEL 7
REMARK VINA RESULT:      -7.5     20.270     22.057
REMARK  4 active torsions:
REMARK  status: ('A' for Active; 'I' for Inactive)
REMARK       I    between atoms: C5_8  and  N1_3 
REMARK    1  A    between atoms: C8_11  and  N1_3 
REMARK    2  A    between atoms: C1_4  and  C2_5 
REMARK    3  A    between atoms: C1_4  and  C5_8 
REMARK    4  A    between atoms: C3_6  and  C4_7 
ROOT
HETATM    1  C1  UNK     1      19.717  -6.398  36.949  1.00  0.00     0.043 C 
HETATM    2  C3  UNK     1      19.481  -7.394  36.055  1.00  0.00     0.029 C 
ENDROOT
BRANCH   1   3
HETATM    3  C2  UNK     1      20.770  -6.505  37.980  1.00  0.00    -0.021 A 
HETATM    4  C6  UNK     1      20.583  -7.365  39.049  1.00  0.00     0.012 A 
HETATM    5  C11 UNK     1      21.577  -7.467  40.022  1.00  0.00     0.001 A 
HETATM    6  C15 UNK     1      22.741  -6.708  39.912  1.00  0.00     0.000 A 
HETATM    7  C12 UNK     1      22.912  -5.847  38.828  1.00  0.00     0.001 A 
HETATM    8  C7  UNK     1      21.918  -5.745  37.854  1.00  0.00     0.012 A 
ENDBRANCH   1   3
BRANCH   1   9
HETATM    9  C5  UNK     1      18.867  -5.156  36.810  1.00  0.00     0.257 C 
HETATM   10  O1  UNK     1      17.650  -5.249  36.685  1.00  0.00    -0.267 OA
HETATM   11  N1  UNK     1      19.611  -3.983  36.851  1.00  0.00    -0.320 N 
HETATM   12  H4  UNK     1      20.619  -4.038  36.965  1.00  0.00     0.169 HD
BRANCH  11  13
HETATM   13  C8  UNK     1      19.130  -2.654  36.750  1.00  0.00     0.073 A 
HETATM   14  C13 UNK     1      19.324  -1.950  35.574  1.00  0.00     0.143 A 
HETATM   15  F1  UNK     1      19.960  -2.501  34.530  1.00  0.00    -0.204 F 
HETATM   16  C19 UNK     1      18.849  -0.642  35.477  1.00  0.00     0.044 A 
HETATM   17  C21 UNK     1      18.186  -0.058  36.556  1.00  0.00     0.003 A 
HETATM   18  C20 UNK     1      17.999  -0.783  37.734  1.00  0.00     0.002 A 
HETATM   19  C14 UNK     1      18.474  -2.091  37.831  1.00  0.00     0.033 A 
ENDBRANCH  11  13
ENDBRANCH   1   9
BRANCH   2  20
HETATM   20  C4  UNK     1      20.193  -8.659  35.957  1.00  0.00    -0.035 A 
HETATM   21  C10 UNK     1      19.829  -9.729  36.774  1.00  0.00     0.011 A 
HETATM   22  C17 UNK     1      20.513 -10.942  36.681  1.00  0.00     0.001 A 
HETATM   23  C18 UNK     1      21.560 -11.083  35.771  1.00  0.00     0.000 A 
HETATM   24  C16 UNK     1      21.924 -10.013  34.953  1.00  0.00     0.001 A 
HETATM   25  C9  UNK     1      21.240  -8.801  35.048  1.00  0.00     0.011 A 
ENDBRANCH   2  20
TORSDOF 4
ENDMDL
MODEL 8
REMARK VINA RESULT:      -7.4     17.251     20.994
REMARK  4 active torsions:
REMARK  status: ('A' for Active; 'I' for Inactive)
REMARK       I    between atoms: C5_8  and  N1_3 
REMARK    1  A    between atoms: C8_11  and  N1_3 
REMARK    2  A    between atoms: C1_4  and  C2_5 
REMARK    3  A    between atoms: C1_4  and  C5_8 
REMARK    4  A    between atoms: C3_6  and  C4_7 
ROOT
HETATM    1  C1  UNK     1      19.517  -2.634  35.826  1.00  0.00     0.043 C 
HETATM    2  C3  UNK     1      18.982  -1.831  36.783  1.00  0.00     0.029 C 
ENDROOT
BRANCH   1   3
HETATM    3  C2  UNK     1      19.608  -2.213  34.413  1.00  0.00    -0.021 A 
HETATM    4  C6  UNK     1      18.596  -1.440  33.871  1.00  0.00     0.012 A 
HETATM    5  C11 UNK     1      18.683  -1.043  32.537  1.00  0.00     0.001 A 
HETATM    6  C15 UNK     1      19.780  -1.424  31.765  1.00  0.00     0.000 A 
HETATM    7  C12 UNK     1      20.791  -2.203  32.328  1.00  0.00     0.001 A 
HETATM    8  C7  UNK     1      20.704  -2.601  33.663  1.00  0.00     0.012 A 
ENDBRANCH   1   3
BRANCH   1   9
HETATM    9  C5  UNK     1      20.046  -3.971  36.291  1.00  0.00     0.257 C 
HETATM   10  O1  UNK     1      21.134  -4.046  36.854  1.00  0.00    -0.267 OA
HETATM   11  N1  UNK     1      19.180  -5.023  36.014  1.00  0.00    -0.320 N 
HETATM   12  H4  UNK     1      18.300  -4.831  35.545  1.00  0.00     0.169 HD
BRANCH  11  13
HETATM   13  C8  UNK     1      19.369  -6.395  36.313  1.00  0.00     0.073 A 
HETATM   14  C13 UNK     1      20.102  -7.184  35.443  1.00  0.00     0.143 A 
HETATM   15  F1  UNK     1      20.636  -6.675  34.324  1.00  0.00    -0.204 F 
HETATM   16  C19 UNK     1      20.287  -8.534  35.740  1.00  0.00     0.044 A 
HETATM   17  C21 UNK     1      19.735  -9.075  36.901  1.00  0.00     0.003 A 
HETATM   18  C20 UNK     1      18.999  -8.264  37.766  1.00  0.00     0.002 A 
HETATM   19  C14 UNK     1      18.815  -6.914  37.470  1.00  0.00     0.033 A 
ENDBRANCH  11  13
ENDBRANCH   1   9
BRANCH   2  20
HETATM   20  C4  UNK     1      18.452  -0.489  36.593  1.00  0.00    -0.035 A 
HETATM   21  C10 UNK     1      17.119  -0.216  36.903  1.00  0.00     0.011 A 
HETATM   22  C17 UNK     1      16.610   1.071  36.720  1.00  0.00     0.001 A 
HETATM   23  C18 UNK     1      17.434   2.082  36.227  1.00  0.00     0.000 A 
HETATM   24  C16 UNK     1      18.767   1.809  35.917  1.00  0.00     0.001 A 
HETATM   25  C9  UNK     1      19.274   0.523  36.100  1.00  0.00     0.011 A 
ENDBRANCH   2  20
TORSDOF 4
ENDMDL
MODEL 9
REMARK VINA RESULT:      -7.4     20.441     23.537
REMARK  4 active torsions:
REMARK  status: ('A' for Active; 'I' for Inactive)
REMARK       I    between atoms: C5_8  and  N1_3 
REMARK    1  A    between atoms: C8_11  and  N1_3 
REMARK    2  A    between atoms: C1_4  and  C2_5 
REMARK    3  A    between atoms: C1_4  and  C5_8 
REMARK    4  A    between atoms: C3_6  and  C4_7 
ROOT
HETATM    1  C1  UNK     1      30.187  -6.424  35.431  1.00  0.00     0.043 C 
HETATM    2  C3  UNK     1      31.425  -6.685  34.936  1.00  0.00     0.029 C 
ENDROOT
BRANCH   1   3
HETATM    3  C2  UNK     1      29.989  -5.790  36.750  1.00  0.00    -0.021 A 
HETATM    4  C6  UNK     1      30.345  -4.464  36.922  1.00  0.00     0.012 A 
HETATM    5  C11 UNK     1      30.157  -3.865  38.168  1.00  0.00     0.001 A 
HETATM    6  C15 UNK     1      29.616  -4.601  39.221  1.00  0.00     0.000 A 
HETATM    7  C12 UNK     1      29.263  -5.937  39.029  1.00  0.00     0.001 A 
HETATM    8  C7  UNK     1      29.451  -6.536  37.784  1.00  0.00     0.012 A 
ENDBRANCH   1   3
BRANCH   1   9
HETATM    9  C5  UNK     1      29.019  -6.787  34.543  1.00  0.00     0.257 C 
HETATM   10  O1  UNK     1      27.889  -6.885  35.013  1.00  0.00    -0.267 OA
HETATM   11  N1  UNK     1      29.384  -6.971  33.214  1.00  0.00    -0.320 N 
HETATM   12  H4  UNK     1      30.357  -6.854  32.947  1.00  0.00     0.169 HD
BRANCH  11  13
HETATM   13  C8  UNK     1      28.541  -7.315  32.129  1.00  0.00     0.073 A 
HETATM   14  C13 UNK     1      28.644  -8.574  31.564  1.00  0.00     0.143 A 
HETATM   15  F1  UNK     1      29.526  -9.473  32.023  1.00  0.00    -0.204 F 
HETATM   16  C19 UNK     1      27.812  -8.911  30.496  1.00  0.00     0.044 A 
HETATM   17  C21 UNK     1      26.891  -7.983  30.009  1.00  0.00     0.003 A 
HETATM   18  C20 UNK     1      26.802  -6.719  30.591  1.00  0.00     0.002 A 
HETATM   19  C14 UNK     1      27.632  -6.382  31.660  1.00  0.00     0.033 A 
ENDBRANCH  11  13
ENDBRANCH   1   9
BRANCH   2  20
HETATM   20  C4  UNK     1      32.697  -6.388  35.577  1.00  0.00    -0.035 A 
HETATM   21  C10 UNK     1      33.468  -5.314  35.130  1.00  0.00     0.011 A 
HETATM   22  C17 UNK     1      34.688  -5.029  35.745  1.00  0.00     0.001 A 
HETATM   23  C18 UNK     1      35.135  -5.817  36.804  1.00  0.00     0.000 A 
HETATM   24  C16 UNK     1      34.364  -6.891  37.251  1.00  0.00     0.001 A 
HETATM   25  C9  UNK     1      33.145  -7.175  36.636  1.00  0.00     0.011 A 
ENDBRANCH   2  20
TORSDOF 4
ENDMDL
MODEL 10
REMARK VINA RESULT:      -7.3     13.521     15.308
REMARK  4 active torsions:
REMARK  status: ('A' for Active; 'I' for Inactive)
REMARK       I    between atoms: C5_8  and  N1_3 
REMARK    1  A    between atoms: C8_11  and  N1_3 
REMARK    2  A    between atoms: C1_4  and  C2_5 
REMARK    3  A    between atoms: C1_4  and  C5_8 
REMARK    4  A    between atoms: C3_6  and  C4_7 
ROOT
HETATM    1  C1  UNK     1      13.599   8.930   9.795  1.00  0.00     0.043 C 
HETATM    2  C3  UNK     1      14.630   8.966   8.910  1.00  0.00     0.029 C 
ENDROOT
BRANCH   1   3
HETATM    3  C2  UNK     1      13.488   9.896  10.907  1.00  0.00    -0.021 A 
HETATM    4  C6  UNK     1      13.991   9.554  12.151  1.00  0.00     0.012 A 
HETATM    5  C11 UNK     1      13.887  10.466  13.201  1.00  0.00     0.001 A 
HETATM    6  C15 UNK     1      13.281  11.705  12.992  1.00  0.00     0.000 A 
HETATM    7  C12 UNK     1      12.780  12.032  11.732  1.00  0.00     0.001 A 
HETATM    8  C7  UNK     1      12.885  11.120  10.681  1.00  0.00     0.012 A 
ENDBRANCH   1   3
BRANCH   1   9
HETATM    9  C5  UNK     1      12.551   7.868   9.560  1.00  0.00     0.257 C 
HETATM   10  O1  UNK     1      12.560   6.830  10.217  1.00  0.00    -0.267 OA
HETATM   11  N1  UNK     1      11.638   8.216   8.571  1.00  0.00    -0.320 N 
HETATM   12  H4  UNK     1      11.733   9.111   8.101  1.00  0.00     0.169 HD
BRANCH  11  13
HETATM   13  C8  UNK     1      10.537   7.453   8.108  1.00  0.00     0.073 A 
HETATM   14  C13 UNK     1      10.623   6.815   6.882  1.00  0.00     0.143 A 
HETATM   15  F1  UNK     1      11.726   6.906   6.126  1.00  0.00    -0.204 F 
HETATM   16  C19 UNK     1       9.539   6.064   6.428  1.00  0.00     0.044 A 
HETATM   17  C21 UNK     1       8.386   5.962   7.206  1.00  0.00     0.003 A 
HETATM   18  C20 UNK     1       8.318   6.612   8.439  1.00  0.00     0.002 A 
HETATM   19  C14 UNK     1       9.402   7.362   8.894  1.00  0.00     0.033 A 
ENDBRANCH  11  13
ENDBRANCH   1   9
BRANCH   2  20
HETATM   20  C4  UNK     1      15.731   9.918   8.899  1.00  0.00    -0.035 A 
HETATM   21  C10 UNK     1      16.846   9.704   9.709  1.00  0.00     0.011 A 
HETATM   22  C17 UNK     1      17.901  10.617   9.699  1.00  0.00     0.001 A 
HETATM   23  C18 UNK     1      17.839  11.744   8.879  1.00  0.00     0.000 A 
HETATM   24  C16 UNK     1      16.725  11.958   8.068  1.00  0.00     0.001 A 
HETATM   25  C9  UNK     1      15.670  11.044   8.079  1.00  0.00     0.011 A 
ENDBRANCH   2  20
TORSDOF 4
ENDMDL
