MODEL 1
REMARK VINA RESULT:     -10.7      0.000      0.000
REMARK  5 active torsions:
REMARK  status: ('A' for Active; 'I' for Inactive)
REMARK    1  A    between atoms: C5_12  and  N1_5 
REMARK    2  A    between atoms: C6_13  and  N2_6 
REMARK    3  A    between atoms: C5_12  and  C7_14 
REMARK    4  A    between atoms: C6_13  and  C8_15 
REMARK    5  A    between atoms: C14_21  and  C20_27 
ROOT
HETATM    1  N1  UNK     1      19.286  -3.208  36.033  1.00  0.00     0.096 N 
HETATM    2  N2  UNK     1      18.029  -0.679  35.414  1.00  0.00     0.097 N 
HETATM    3  C1  UNK     1      18.363  -2.564  36.976  1.00  0.00     0.303 C 
HETATM    4  C2  UNK     1      19.968  -2.198  35.214  1.00  0.00     0.303 C 
HETATM    5  C3  UNK     1      17.348  -1.687  36.234  1.00  0.00     0.303 C 
HETATM    6  C4  UNK     1      18.953  -1.322  34.471  1.00  0.00     0.303 C 
ENDROOT
BRANCH   2   7
HETATM    7  C6  UNK     1      17.059   0.153  34.704  1.00  0.00     0.334 C 
BRANCH   7   8
HETATM    8  C8  UNK     1      17.693   1.463  34.358  1.00  0.00     0.095 A 
HETATM    9  C10 UNK     1      18.484   2.271  35.134  1.00  0.00     0.078 A 
HETATM   10  O1  UNK     1      18.827   3.360  34.392  1.00  0.00    -0.294 OA
HETATM   11  C16 UNK     1      19.002   2.208  36.505  1.00  0.00     0.079 C 
HETATM   12  C14 UNK     1      18.212   3.138  33.198  1.00  0.00     0.182 A 
HETATM   13  N3  UNK     1      17.521   2.023  33.118  1.00  0.00    -0.224 NA
BRANCH  12  14
HETATM   14  C20 UNK     1      18.413   4.158  32.207  1.00  0.00     0.039 A 
HETATM   15  C22 UNK     1      18.751   3.848  30.889  1.00  0.00     0.048 A 
HETATM   16 Cl1  UNK     1      18.953   2.214  30.355  1.00  0.00    -0.083 Cl
HETATM   17  C24 UNK     1      18.936   4.868  29.957  1.00  0.00     0.025 A 
HETATM   18  C26 UNK     1      18.783   6.201  30.343  1.00  0.00     0.002 A 
HETATM   19  C25 UNK     1      18.445   6.511  31.660  1.00  0.00     0.001 A 
HETATM   20  C23 UNK     1      18.260   5.490  32.592  1.00  0.00     0.017 A 
ENDBRANCH  12  14
ENDBRANCH   7   8
ENDBRANCH   2   7
BRANCH   1  21
HETATM   21  C5  UNK     1      20.255  -4.042  36.741  1.00  0.00     0.312 C 
BRANCH  21  22
HETATM   22  C7  UNK     1      20.263  -5.444  36.239  1.00  0.00    -0.011 A 
HETATM   23  C11 UNK     1      20.362  -5.711  34.929  1.00  0.00     0.092 A 
HETATM   24  C15 UNK     1      20.373  -7.080  34.386  1.00  0.00     0.288 A 
HETATM   25  O2  UNK     1      20.275  -8.114  35.303  1.00  0.00    -0.275 OA
HETATM   26  O3  UNK     1      20.466  -7.286  33.181  1.00  0.00    -0.260 OA
HETATM   27  C12 UNK     1      20.169  -7.865  36.687  1.00  0.00     0.090 A 
HETATM   28  C9  UNK     1      20.159  -6.562  37.187  1.00  0.00     0.006 A 
HETATM   29  C17 UNK     1      20.075  -8.982  37.518  1.00  0.00     0.045 A 
HETATM   30  C13 UNK     1      20.051  -6.398  38.573  1.00  0.00     0.015 A 
HETATM   31  C18 UNK     1      19.955  -7.508  39.420  1.00  0.00     0.007 A 
HETATM   32  C19 UNK     1      19.969  -8.799  38.893  1.00  0.00    -0.059 A 
HETATM   33  C21 UNK     1      19.867  -9.978  39.800  1.00  0.00     0.048 C 
ENDBRANCH  21  22
ENDBRANCH   1  21
TORSDOF 5
ENDMDL
MODEL 2
REMARK VINA RESULT:     -10.1      3.978     12.233
REMARK  5 active torsions:
REMARK  status: ('A' for Active; 'I' for Inactive)
REMARK    1  A    between atoms: C5_12  and  N1_5 
REMARK    2  A    between atoms: C6_13  and  N2_6 
REMARK    3  A    between atoms: C5_12  and  C7_14 
REMARK    4  A    between atoms: C6_13  and  C8_15 
REMARK    5  A    between atoms: C14_21  and  C20_27 
ROOT
HETATM    1  N1  UNK     1      18.166   5.229  31.746  1.00  0.00     0.096 N 
HETATM    2  N2  UNK     1      19.026   2.559  31.046  1.00  0.00     0.097 N 
HETATM    3  C1  UNK     1      19.137   4.999  30.669  1.00  0.00     0.303 C 
HETATM    4  C2  UNK     1      18.262   4.170  32.757  1.00  0.00     0.303 C 
HETATM    5  C3  UNK     1      18.932   3.619  30.035  1.00  0.00     0.303 C 
HETATM    6  C4  UNK     1      18.055   2.790  32.123  1.00  0.00     0.303 C 
ENDROOT
BRANCH   2   7
HETATM    7  C6  UNK     1      18.826   1.245  30.440  1.00  0.00     0.334 C 
BRANCH   7   8
HETATM    8  C8  UNK     1      19.103   0.185  31.457  1.00  0.00     0.095 A 
HETATM    9  C10 UNK     1      19.798  -0.989  31.315  1.00  0.00     0.078 A 
HETATM   10  O1  UNK     1      19.787  -1.632  32.516  1.00  0.00    -0.294 OA
HETATM   11  C16 UNK     1      20.502  -1.650  30.210  1.00  0.00     0.079 C 
HETATM   12  C14 UNK     1      19.077  -0.793  33.318  1.00  0.00     0.182 A 
HETATM   13  N3  UNK     1      18.642   0.306  32.744  1.00  0.00    -0.224 NA
BRANCH  12  14
HETATM   14  C20 UNK     1      18.910  -1.239  34.674  1.00  0.00     0.039 A 
HETATM   15  C22 UNK     1      17.785  -0.902  35.427  1.00  0.00     0.048 A 
HETATM   16 Cl1  UNK     1      16.512   0.077  34.784  1.00  0.00    -0.083 Cl
HETATM   17  C24 UNK     1      17.662  -1.356  36.740  1.00  0.00     0.025 A 
HETATM   18  C26 UNK     1      18.664  -2.150  37.300  1.00  0.00     0.002 A 
HETATM   19  C25 UNK     1      19.788  -2.487  36.547  1.00  0.00     0.001 A 
HETATM   20  C23 UNK     1      19.912  -2.032  35.235  1.00  0.00     0.017 A 
ENDBRANCH  12  14
ENDBRANCH   7   8
ENDBRANCH   2   7
BRANCH   1  21
HETATM   21  C5  UNK     1      18.363   6.545  32.351  1.00  0.00     0.312 C 
BRANCH  21  22
HETATM   22  C7  UNK     1      17.081   7.284  32.518  1.00  0.00    -0.011 A 
HETATM   23  C11 UNK     1      15.916   6.751  32.125  1.00  0.00     0.092 A 
HETATM   24  C15 UNK     1      14.625   7.445  32.269  1.00  0.00     0.288 A 
HETATM   25  O2  UNK     1      14.657   8.706  32.843  1.00  0.00    -0.275 OA
HETATM   26  O3  UNK     1      13.579   6.924  31.898  1.00  0.00    -0.260 OA
HETATM   27  C12 UNK     1      15.866   9.294  33.266  1.00  0.00     0.090 A 
HETATM   28  C9  UNK     1      17.083   8.624  33.123  1.00  0.00     0.006 A 
HETATM   29  C17 UNK     1      15.779  10.567  33.829  1.00  0.00     0.045 A 
HETATM   30  C13 UNK     1      18.240   9.276  33.567  1.00  0.00     0.015 A 
HETATM   31  C18 UNK     1      18.168  10.553  34.134  1.00  0.00     0.007 A 
HETATM   32  C19 UNK     1      16.940  11.198  34.265  1.00  0.00    -0.059 A 
HETATM   33  C21 UNK     1      16.870  12.559  34.870  1.00  0.00     0.048 C 
ENDBRANCH  21  22
ENDBRANCH   1  21
TORSDOF 5
ENDMDL
MODEL 3
REMARK VINA RESULT:      -9.9      1.833      2.492
REMARK  5 active torsions:
REMARK  status: ('A' for Active; 'I' for Inactive)
REMARK    1  A    between atoms: C5_12  and  N1_5 
REMARK    2  A    between atoms: C6_13  and  N2_6 
REMARK    3  A    between atoms: C5_12  and  C7_14 
REMARK    4  A    between atoms: C6_13  and  C8_15 
REMARK    5  A    between atoms: C14_21  and  C20_27 
ROOT
HETATM    1  N1  UNK     1      19.637  -3.704  36.736  1.00  0.00     0.096 N 
HETATM    2  N2  UNK     1      18.841  -0.980  36.185  1.00  0.00     0.097 N 
HETATM    3  C1  UNK     1      20.107  -3.001  35.536  1.00  0.00     0.303 C 
HETATM    4  C2  UNK     1      18.322  -3.197  37.145  1.00  0.00     0.303 C 
HETATM    5  C3  UNK     1      20.156  -1.487  35.774  1.00  0.00     0.303 C 
HETATM    6  C4  UNK     1      18.371  -1.684  37.384  1.00  0.00     0.303 C 
ENDROOT
BRANCH   2   7
HETATM    7  C6  UNK     1      18.891   0.462  36.415  1.00  0.00     0.334 C 
BRANCH   7   8
HETATM    8  C8  UNK     1      18.336   1.172  35.222  1.00  0.00     0.095 A 
HETATM    9  C10 UNK     1      17.216   0.879  34.487  1.00  0.00     0.078 A 
HETATM   10  O1  UNK     1      17.112   1.805  33.494  1.00  0.00    -0.294 OA
HETATM   11  C16 UNK     1      16.178  -0.156  34.545  1.00  0.00     0.079 C 
HETATM   12  C14 UNK     1      18.191   2.610  33.695  1.00  0.00     0.182 A 
HETATM   13  N3  UNK     1      18.958   2.283  34.710  1.00  0.00    -0.224 NA
BRANCH  12  14
HETATM   14  C20 UNK     1      18.326   3.697  32.765  1.00  0.00     0.039 A 
HETATM   15  C22 UNK     1      18.638   3.482  31.422  1.00  0.00     0.048 A 
HETATM   16 Cl1  UNK     1      18.884   1.894  30.781  1.00  0.00    -0.083 Cl
HETATM   17  C24 UNK     1      18.760   4.565  30.552  1.00  0.00     0.025 A 
HETATM   18  C26 UNK     1      18.568   5.864  31.025  1.00  0.00     0.002 A 
HETATM   19  C25 UNK     1      18.257   6.078  32.367  1.00  0.00     0.001 A 
HETATM   20  C23 UNK     1      18.136   4.996  33.237  1.00  0.00     0.017 A 
ENDBRANCH  12  14
ENDBRANCH   7   8
ENDBRANCH   2   7
BRANCH   1  21
HETATM   21  C5  UNK     1      19.589  -5.147  36.507  1.00  0.00     0.312 C 
BRANCH  21  22
HETATM   22  C7  UNK     1      20.521  -5.889  37.401  1.00  0.00    -0.011 A 
HETATM   23  C11 UNK     1      21.672  -5.339  37.813  1.00  0.00     0.092 A 
HETATM   24  C15 UNK     1      22.625  -6.034  38.695  1.00  0.00     0.288 A 
HETATM   25  O2  UNK     1      22.278  -7.314  39.100  1.00  0.00    -0.275 OA
HETATM   26  O3  UNK     1      23.669  -5.500  39.052  1.00  0.00    -0.260 OA
HETATM   27  C12 UNK     1      21.074  -7.919  38.684  1.00  0.00     0.090 A 
HETATM   28  C9  UNK     1      20.182  -7.248  37.847  1.00  0.00     0.006 A 
HETATM   29  C17 UNK     1      20.829  -9.210  39.151  1.00  0.00     0.045 A 
HETATM   30  C13 UNK     1      19.008  -7.916  37.478  1.00  0.00     0.015 A 
HETATM   31  C18 UNK     1      18.748  -9.212  37.939  1.00  0.00     0.007 A 
HETATM   32  C19 UNK     1      19.657  -9.858  38.775  1.00  0.00    -0.059 A 
HETATM   33  C21 UNK     1      19.374 -11.238  39.263  1.00  0.00     0.048 C 
ENDBRANCH  21  22
ENDBRANCH   1  21
TORSDOF 5
ENDMDL
MODEL 4
REMARK VINA RESULT:      -9.4     14.232     17.660
REMARK  5 active torsions:
REMARK  status: ('A' for Active; 'I' for Inactive)
REMARK    1  A    between atoms: C5_12  and  N1_5 
REMARK    2  A    between atoms: C6_13  and  N2_6 
REMARK    3  A    between atoms: C5_12  and  C7_14 
REMARK    4  A    between atoms: C6_13  and  C8_15 
REMARK    5  A    between atoms: C14_21  and  C20_27 
ROOT
HETATM    1  N1  UNK     1      31.842  -5.875  35.736  1.00  0.00     0.096 N 
HETATM    2  N2  UNK     1      34.394  -6.425  34.495  1.00  0.00     0.097 N 
HETATM    3  C1  UNK     1      32.278  -7.251  35.468  1.00  0.00     0.303 C 
HETATM    4  C2  UNK     1      32.428  -4.952  34.757  1.00  0.00     0.303 C 
HETATM    5  C3  UNK     1      33.808  -7.349  35.473  1.00  0.00     0.303 C 
HETATM    6  C4  UNK     1      33.957  -5.049  34.763  1.00  0.00     0.303 C 
ENDROOT
BRANCH   2   7
HETATM    7  C6  UNK     1      35.853  -6.517  34.504  1.00  0.00     0.334 C 
BRANCH   7   8
HETATM    8  C8  UNK     1      36.286  -7.575  33.540  1.00  0.00     0.095 A 
HETATM    9  C10 UNK     1      36.020  -7.681  32.198  1.00  0.00     0.078 A 
HETATM   10  O1  UNK     1      36.625  -8.812  31.739  1.00  0.00    -0.294 OA
HETATM   11  C16 UNK     1      35.269  -6.883  31.223  1.00  0.00     0.079 C 
HETATM   12  C14 UNK     1      37.227  -9.323  32.848  1.00  0.00     0.182 A 
HETATM   13  N3  UNK     1      37.059  -8.630  33.951  1.00  0.00    -0.224 NA
BRANCH  12  14
HETATM   14  C20 UNK     1      37.953 -10.545  32.641  1.00  0.00     0.039 A 
HETATM   15  C22 UNK     1      37.311 -11.782  32.579  1.00  0.00     0.048 A 
HETATM   16 Cl1  UNK     1      35.596 -11.934  32.748  1.00  0.00    -0.083 Cl
HETATM   17  C24 UNK     1      38.054 -12.945  32.377  1.00  0.00     0.025 A 
HETATM   18  C26 UNK     1      39.441 -12.870  32.235  1.00  0.00     0.002 A 
HETATM   19  C25 UNK     1      40.082 -11.634  32.297  1.00  0.00     0.001 A 
HETATM   20  C23 UNK     1      39.339 -10.472  32.500  1.00  0.00     0.017 A 
ENDBRANCH  12  14
ENDBRANCH   7   8
ENDBRANCH   2   7
BRANCH   1  21
HETATM   21  C5  UNK     1      30.383  -5.782  35.729  1.00  0.00     0.312 C 
BRANCH  21  22
HETATM   22  C7  UNK     1      29.818  -5.722  37.106  1.00  0.00    -0.011 A 
HETATM   23  C11 UNK     1      29.924  -4.614  37.852  1.00  0.00     0.092 A 
HETATM   24  C15 UNK     1      29.382  -4.508  39.217  1.00  0.00     0.288 A 
HETATM   25  O2  UNK     1      28.737  -5.628  39.719  1.00  0.00    -0.275 OA
HETATM   26  O3  UNK     1      29.497  -3.477  39.870  1.00  0.00    -0.260 OA
HETATM   27  C12 UNK     1      28.609  -6.808  38.958  1.00  0.00     0.090 A 
HETATM   28  C9  UNK     1      29.129  -6.893  37.666  1.00  0.00     0.006 A 
HETATM   29  C17 UNK     1      27.942  -7.873  39.564  1.00  0.00     0.045 A 
HETATM   30  C13 UNK     1      28.962  -8.100  36.976  1.00  0.00     0.015 A 
HETATM   31  C18 UNK     1      28.295  -9.178  37.570  1.00  0.00     0.007 A 
HETATM   32  C19 UNK     1      27.785  -9.064  38.862  1.00  0.00    -0.059 A 
HETATM   33  C21 UNK     1      27.075 -10.215  39.490  1.00  0.00     0.048 C 
ENDBRANCH  21  22
ENDBRANCH   1  21
TORSDOF 5
ENDMDL
MODEL 5
REMARK VINA RESULT:      -9.4      9.479     13.125
REMARK  5 active torsions:
REMARK  status: ('A' for Active; 'I' for Inactive)
REMARK    1  A    between atoms: C5_12  and  N1_5 
REMARK    2  A    between atoms: C6_13  and  N2_6 
REMARK    3  A    between atoms: C5_12  and  C7_14 
REMARK    4  A    between atoms: C6_13  and  C8_15 
REMARK    5  A    between atoms: C14_21  and  C20_27 
ROOT
HETATM    1  N1  UNK     1      30.212  -6.774  35.167  1.00  0.00     0.096 N 
HETATM    2  N2  UNK     1      28.977  -7.141  37.756  1.00  0.00     0.097 N 
HETATM    3  C1  UNK     1      28.960  -7.526  35.315  1.00  0.00     0.303 C 
HETATM    4  C2  UNK     1      31.019  -6.880  36.389  1.00  0.00     0.303 C 
HETATM    5  C3  UNK     1      28.170  -7.037  36.534  1.00  0.00     0.303 C 
HETATM    6  C4  UNK     1      30.230  -6.390  37.608  1.00  0.00     0.303 C 
ENDROOT
BRANCH   2   7
HETATM    7  C6  UNK     1      28.224  -6.671  38.916  1.00  0.00     0.334 C 
BRANCH   7   8
HETATM    8  C8  UNK     1      26.940  -7.432  39.012  1.00  0.00     0.095 A 
HETATM    9  C10 UNK     1      26.732  -8.727  39.415  1.00  0.00     0.078 A 
HETATM   10  O1  UNK     1      25.396  -8.981  39.337  1.00  0.00    -0.294 OA
HETATM   11  C16 UNK     1      27.593  -9.819  39.881  1.00  0.00     0.079 C 
HETATM   12  C14 UNK     1      24.875  -7.807  38.885  1.00  0.00     0.182 A 
HETATM   13  N3  UNK     1      25.747  -6.847  38.673  1.00  0.00    -0.224 NA
BRANCH  12  14
HETATM   14  C20 UNK     1      23.450  -7.798  38.709  1.00  0.00     0.039 A 
HETATM   15  C22 UNK     1      22.828  -8.523  37.692  1.00  0.00     0.048 A 
HETATM   16 Cl1  UNK     1      23.730  -9.483  36.570  1.00  0.00    -0.083 Cl
HETATM   17  C24 UNK     1      21.441  -8.486  37.556  1.00  0.00     0.025 A 
HETATM   18  C26 UNK     1      20.674  -7.726  38.439  1.00  0.00     0.002 A 
HETATM   19  C25 UNK     1      21.295  -7.001  39.456  1.00  0.00     0.001 A 
HETATM   20  C23 UNK     1      22.682  -7.037  39.591  1.00  0.00     0.017 A 
ENDBRANCH  12  14
ENDBRANCH   7   8
ENDBRANCH   2   7
BRANCH   1  21
HETATM   21  C5  UNK     1      30.966  -7.242  34.006  1.00  0.00     0.312 C 
BRANCH  21  22
HETATM   22  C7  UNK     1      30.453  -6.663  32.733  1.00  0.00    -0.011 A 
HETATM   23  C11 UNK     1      30.440  -5.338  32.530  1.00  0.00     0.092 A 
HETATM   24  C15 UNK     1      29.942  -4.720  31.289  1.00  0.00     0.288 A 
HETATM   25  O2  UNK     1      29.474  -5.581  30.309  1.00  0.00    -0.275 OA
HETATM   26  O3  UNK     1      29.947  -3.503  31.138  1.00  0.00    -0.260 OA
HETATM   27  C12 UNK     1      29.475  -6.979  30.493  1.00  0.00     0.090 A 
HETATM   28  C9  UNK     1      29.950  -7.550  31.675  1.00  0.00     0.006 A 
HETATM   29  C17 UNK     1      28.980  -7.749  29.441  1.00  0.00     0.045 A 
HETATM   30  C13 UNK     1      29.916  -8.946  31.782  1.00  0.00     0.015 A 
HETATM   31  C18 UNK     1      29.422  -9.732  30.735  1.00  0.00     0.007 A 
HETATM   32  C19 UNK     1      28.956  -9.134  29.565  1.00  0.00    -0.059 A 
HETATM   33  C21 UNK     1      28.432  -9.977  28.452  1.00  0.00     0.048 C 
ENDBRANCH  21  22
ENDBRANCH   1  21
TORSDOF 5
ENDMDL
MODEL 6
REMARK VINA RESULT:      -9.4      2.040      2.813
REMARK  5 active torsions:
REMARK  status: ('A' for Active; 'I' for Inactive)
REMARK    1  A    between atoms: C5_12  and  N1_5 
REMARK    2  A    between atoms: C6_13  and  N2_6 
REMARK    3  A    between atoms: C5_12  and  C7_14 
REMARK    4  A    between atoms: C6_13  and  C8_15 
REMARK    5  A    between atoms: C14_21  and  C20_27 
ROOT
HETATM    1  N1  UNK     1      19.470  -3.237  36.658  1.00  0.00     0.096 N 
HETATM    2  N2  UNK     1      18.497  -0.548  36.227  1.00  0.00     0.097 N 
HETATM    3  C1  UNK     1      18.719  -2.522  37.697  1.00  0.00     0.303 C 
HETATM    4  C2  UNK     1      20.204  -2.287  35.813  1.00  0.00     0.303 C 
HETATM    5  C3  UNK     1      17.764  -1.497  37.074  1.00  0.00     0.303 C 
HETATM    6  C4  UNK     1      19.249  -1.263  35.188  1.00  0.00     0.303 C 
ENDROOT
BRANCH   2   7
HETATM    7  C6  UNK     1      17.585   0.425  35.631  1.00  0.00     0.334 C 
BRANCH   7   8
HETATM    8  C8  UNK     1      18.093   0.814  34.279  1.00  0.00     0.095 A 
HETATM    9  C10 UNK     1      18.323   2.067  33.771  1.00  0.00     0.078 A 
HETATM   10  O1  UNK     1      18.784   1.925  32.497  1.00  0.00    -0.294 OA
HETATM   11  C16 UNK     1      18.183   3.435  34.281  1.00  0.00     0.079 C 
HETATM   12  C14 UNK     1      18.804   0.576  32.315  1.00  0.00     0.182 A 
HETATM   13  N3  UNK     1      18.402  -0.138  33.342  1.00  0.00    -0.224 NA
BRANCH  12  14
HETATM   14  C20 UNK     1      19.261   0.140  31.025  1.00  0.00     0.039 A 
HETATM   15  C22 UNK     1      18.932   0.827  29.856  1.00  0.00     0.048 A 
HETATM   16 Cl1  UNK     1      17.951   2.251  29.875  1.00  0.00    -0.083 Cl
HETATM   17  C24 UNK     1      19.397   0.369  28.623  1.00  0.00     0.025 A 
HETATM   18  C26 UNK     1      20.193  -0.776  28.560  1.00  0.00     0.002 A 
HETATM   19  C25 UNK     1      20.521  -1.462  29.728  1.00  0.00     0.001 A 
HETATM   20  C23 UNK     1      20.056  -1.005  30.960  1.00  0.00     0.017 A 
ENDBRANCH  12  14
ENDBRANCH   7   8
ENDBRANCH   2   7
BRANCH   1  21
HETATM   21  C5  UNK     1      20.382  -4.212  37.253  1.00  0.00     0.312 C 
BRANCH  21  22
HETATM   22  C7  UNK     1      20.257  -5.555  36.622  1.00  0.00    -0.011 A 
HETATM   23  C11 UNK     1      20.302  -5.703  35.290  1.00  0.00     0.092 A 
HETATM   24  C15 UNK     1      20.182  -7.010  34.622  1.00  0.00     0.288 A 
HETATM   25  O2  UNK     1      20.017  -8.115  35.441  1.00  0.00    -0.275 OA
HETATM   26  O3  UNK     1      20.229  -7.106  33.401  1.00  0.00    -0.260 OA
HETATM   27  C12 UNK     1      19.966  -7.992  36.845  1.00  0.00     0.090 A 
HETATM   28  C9  UNK     1      20.080  -6.746  37.464  1.00  0.00     0.006 A 
HETATM   29  C17 UNK     1      19.795  -9.172  37.570  1.00  0.00     0.045 A 
HETATM   30  C13 UNK     1      20.019  -6.708  38.863  1.00  0.00     0.015 A 
HETATM   31  C18 UNK     1      19.848  -7.882  39.604  1.00  0.00     0.007 A 
HETATM   32  C19 UNK     1      19.738  -9.113  38.959  1.00  0.00    -0.059 A 
HETATM   33  C21 UNK     1      19.557 -10.361  39.754  1.00  0.00     0.048 C 
ENDBRANCH  21  22
ENDBRANCH   1  21
TORSDOF 5
ENDMDL
MODEL 7
REMARK VINA RESULT:      -9.3      5.299     14.090
REMARK  5 active torsions:
REMARK  status: ('A' for Active; 'I' for Inactive)
REMARK    1  A    between atoms: C5_12  and  N1_5 
REMARK    2  A    between atoms: C6_13  and  N2_6 
REMARK    3  A    between atoms: C5_12  and  C7_14 
REMARK    4  A    between atoms: C6_13  and  C8_15 
REMARK    5  A    between atoms: C14_21  and  C20_27 
ROOT
HETATM    1  N1  UNK     1      16.601   8.416  33.902  1.00  0.00     0.096 N 
HETATM    2  N2  UNK     1      17.661   5.934  32.865  1.00  0.00     0.097 N 
HETATM    3  C1  UNK     1      17.898   7.896  34.350  1.00  0.00     0.303 C 
HETATM    4  C2  UNK     1      15.715   7.314  33.509  1.00  0.00     0.303 C 
HETATM    5  C3  UNK     1      18.548   7.036  33.259  1.00  0.00     0.303 C 
HETATM    6  C4  UNK     1      16.363   6.455  32.418  1.00  0.00     0.303 C 
ENDROOT
BRANCH   2   7
HETATM    7  C6  UNK     1      18.281   5.119  31.823  1.00  0.00     0.334 C 
BRANCH   7   8
HETATM    8  C8  UNK     1      18.237   3.681  32.231  1.00  0.00     0.095 A 
HETATM    9  C10 UNK     1      18.426   2.559  31.464  1.00  0.00     0.078 A 
HETATM   10  O1  UNK     1      18.289   1.471  32.271  1.00  0.00    -0.294 OA
HETATM   11  C16 UNK     1      18.724   2.308  30.050  1.00  0.00     0.079 C 
HETATM   12  C14 UNK     1      18.023   2.012  33.491  1.00  0.00     0.182 A 
HETATM   13  N3  UNK     1      17.978   3.324  33.530  1.00  0.00    -0.224 NA
BRANCH  12  14
HETATM   14  C20 UNK     1      17.831   1.063  34.553  1.00  0.00     0.039 A 
HETATM   15  C22 UNK     1      18.514   1.164  35.765  1.00  0.00     0.048 A 
HETATM   16 Cl1  UNK     1      19.642   2.439  36.076  1.00  0.00    -0.083 Cl
HETATM   17  C24 UNK     1      18.298   0.222  36.769  1.00  0.00     0.025 A 
HETATM   18  C26 UNK     1      17.396  -0.823  36.562  1.00  0.00     0.002 A 
HETATM   19  C25 UNK     1      16.713  -0.925  35.351  1.00  0.00     0.001 A 
HETATM   20  C23 UNK     1      16.930   0.017  34.346  1.00  0.00     0.017 A 
ENDBRANCH  12  14
ENDBRANCH   7   8
ENDBRANCH   2   7
BRANCH   1  21
HETATM   21  C5  UNK     1      15.981   9.234  34.942  1.00  0.00     0.312 C 
BRANCH  21  22
HETATM   22  C7  UNK     1      15.275  10.419  34.380  1.00  0.00    -0.011 A 
HETATM   23  C11 UNK     1      13.973  10.365  34.066  1.00  0.00     0.092 A 
HETATM   24  C15 UNK     1      13.233  11.510  33.507  1.00  0.00     0.288 A 
HETATM   25  O2  UNK     1      13.951  12.679  33.312  1.00  0.00    -0.275 OA
HETATM   26  O3  UNK     1      12.041  11.424  33.232  1.00  0.00    -0.260 OA
HETATM   27  C12 UNK     1      15.321  12.767  33.633  1.00  0.00     0.090 A 
HETATM   28  C9  UNK     1      16.009  11.673  34.161  1.00  0.00     0.006 A 
HETATM   29  C17 UNK     1      15.942  13.993  33.394  1.00  0.00     0.045 A 
HETATM   30  C13 UNK     1      17.369  11.839  34.453  1.00  0.00     0.015 A 
HETATM   31  C18 UNK     1      18.006  13.063  34.218  1.00  0.00     0.007 A 
HETATM   32  C19 UNK     1      17.293  14.138  33.691  1.00  0.00    -0.059 A 
HETATM   33  C21 UNK     1      17.978  15.440  33.444  1.00  0.00     0.048 C 
ENDBRANCH  21  22
ENDBRANCH   1  21
TORSDOF 5
ENDMDL
MODEL 8
REMARK VINA RESULT:      -9.3     27.221     30.354
REMARK  5 active torsions:
REMARK  status: ('A' for Active; 'I' for Inactive)
REMARK    1  A    between atoms: C5_12  and  N1_5 
REMARK    2  A    between atoms: C6_13  and  N2_6 
REMARK    3  A    between atoms: C5_12  and  C7_14 
REMARK    4  A    between atoms: C6_13  and  C8_15 
REMARK    5  A    between atoms: C14_21  and  C20_27 
ROOT
HETATM    1  N1  UNK     1      15.483   9.382   9.634  1.00  0.00     0.096 N 
HETATM    2  N2  UNK     1      16.817  11.845   8.917  1.00  0.00     0.097 N 
HETATM    3  C1  UNK     1      14.868  10.340   8.706  1.00  0.00     0.303 C 
HETATM    4  C2  UNK     1      16.358  10.080  10.584  1.00  0.00     0.303 C 
HETATM    5  C3  UNK     1      15.940  11.149   7.967  1.00  0.00     0.303 C 
HETATM    6  C4  UNK     1      17.431  10.887   9.845  1.00  0.00     0.303 C 
ENDROOT
BRANCH   2   7
HETATM    7  C6  UNK     1      17.841  12.612   8.210  1.00  0.00     0.334 C 
BRANCH   7   8
HETATM    8  C8  UNK     1      17.197  13.766   7.510  1.00  0.00     0.095 A 
HETATM    9  C10 UNK     1      17.508  14.321   6.295  1.00  0.00     0.078 A 
HETATM   10  O1  UNK     1      16.647  15.353   6.073  1.00  0.00    -0.294 OA
HETATM   11  C16 UNK     1      18.508  14.052   5.257  1.00  0.00     0.079 C 
HETATM   12  C14 UNK     1      15.860  15.355   7.183  1.00  0.00     0.182 A 
HETATM   13  N3  UNK     1      16.140  14.432   8.076  1.00  0.00    -0.224 NA
BRANCH  12  14
HETATM   14  C20 UNK     1      14.841  16.368   7.210  1.00  0.00     0.039 A 
HETATM   15  C22 UNK     1      15.037  17.594   7.846  1.00  0.00     0.048 A 
HETATM   16 Cl1  UNK     1      16.520  17.981   8.649  1.00  0.00    -0.083 Cl
HETATM   17  C24 UNK     1      14.022  18.550   7.848  1.00  0.00     0.025 A 
HETATM   18  C26 UNK     1      12.810  18.280   7.211  1.00  0.00     0.002 A 
HETATM   19  C25 UNK     1      12.614  17.055   6.575  1.00  0.00     0.001 A 
HETATM   20  C23 UNK     1      13.628  16.099   6.574  1.00  0.00     0.017 A 
ENDBRANCH  12  14
ENDBRANCH   7   8
ENDBRANCH   2   7
BRANCH   1  21
HETATM   21  C5  UNK     1      14.460   8.613  10.340  1.00  0.00     0.312 C 
BRANCH  21  22
HETATM   22  C7  UNK     1      14.274   7.256   9.755  1.00  0.00    -0.011 A 
HETATM   23  C11 UNK     1      15.098   6.246  10.069  1.00  0.00     0.092 A 
HETATM   24  C15 UNK     1      14.954   4.889   9.515  1.00  0.00     0.288 A 
HETATM   25  O2  UNK     1      13.905   4.686   8.632  1.00  0.00    -0.275 OA
HETATM   26  O3  UNK     1      15.726   3.990   9.827  1.00  0.00    -0.260 OA
HETATM   27  C12 UNK     1      13.022   5.728   8.282  1.00  0.00     0.090 A 
HETATM   28  C9  UNK     1      13.172   7.009   8.815  1.00  0.00     0.006 A 
HETATM   29  C17 UNK     1      12.004   5.409   7.383  1.00  0.00     0.045 A 
HETATM   30  C13 UNK     1      12.255   7.990   8.417  1.00  0.00     0.015 A 
HETATM   31  C18 UNK     1      11.228   7.685   7.516  1.00  0.00     0.007 A 
HETATM   32  C19 UNK     1      11.102   6.396   7.001  1.00  0.00    -0.059 A 
HETATM   33  C21 UNK     1      10.005   6.078   6.042  1.00  0.00     0.048 C 
ENDBRANCH  21  22
ENDBRANCH   1  21
TORSDOF 5
ENDMDL
MODEL 9
REMARK VINA RESULT:      -9.3     27.538     30.454
REMARK  5 active torsions:
REMARK  status: ('A' for Active; 'I' for Inactive)
REMARK    1  A    between atoms: C5_12  and  N1_5 
REMARK    2  A    between atoms: C6_13  and  N2_6 
REMARK    3  A    between atoms: C5_12  and  C7_14 
REMARK    4  A    between atoms: C6_13  and  C8_15 
REMARK    5  A    between atoms: C14_21  and  C20_27 
ROOT
HETATM    1  N1  UNK     1      15.416   9.108   9.549  1.00  0.00     0.096 N 
HETATM    2  N2  UNK     1      13.565   6.895   9.368  1.00  0.00     0.097 N 
HETATM    3  C1  UNK     1      15.303   8.120  10.628  1.00  0.00     0.303 C 
HETATM    4  C2  UNK     1      14.139   9.239   8.838  1.00  0.00     0.303 C 
HETATM    5  C3  UNK     1      14.842   6.764  10.081  1.00  0.00     0.303 C 
HETATM    6  C4  UNK     1      13.679   7.884   8.289  1.00  0.00     0.303 C 
ENDROOT
BRANCH   2   7
HETATM    7  C6  UNK     1      13.130   5.602   8.843  1.00  0.00     0.334 C 
BRANCH   7   8
HETATM    8  C8  UNK     1      11.651   5.633   8.620  1.00  0.00     0.095 A 
HETATM    9  C10 UNK     1      10.958   5.871   7.461  1.00  0.00     0.078 A 
HETATM   10  O1  UNK     1       9.628   5.796   7.745  1.00  0.00    -0.294 OA
HETATM   11  C16 UNK     1      11.328   6.170   6.073  1.00  0.00     0.079 C 
HETATM   12  C14 UNK     1       9.602   5.514   9.076  1.00  0.00     0.182 A 
HETATM   13  N3  UNK     1      10.778   5.405   9.653  1.00  0.00    -0.224 NA
BRANCH  12  14
HETATM   14  C20 UNK     1       8.291   5.378   9.648  1.00  0.00     0.039 A 
HETATM   15  C22 UNK     1       7.533   6.487  10.023  1.00  0.00     0.048 A 
HETATM   16 Cl1  UNK     1       8.116   8.104   9.828  1.00  0.00    -0.083 Cl
HETATM   17  C24 UNK     1       6.264   6.311  10.574  1.00  0.00     0.025 A 
HETATM   18  C26 UNK     1       5.753   5.024  10.749  1.00  0.00     0.002 A 
HETATM   19  C25 UNK     1       6.511   3.916  10.374  1.00  0.00     0.001 A 
HETATM   20  C23 UNK     1       7.779   4.092   9.824  1.00  0.00     0.017 A 
ENDBRANCH  12  14
ENDBRANCH   7   8
ENDBRANCH   2   7
BRANCH   1  21
HETATM   21  C5  UNK     1      15.854  10.401  10.071  1.00  0.00     0.312 C 
BRANCH  21  22
HETATM   22  C7  UNK     1      16.700  11.144   9.097  1.00  0.00    -0.011 A 
HETATM   23  C11 UNK     1      17.937  10.726   8.793  1.00  0.00     0.092 A 
HETATM   24  C15 UNK     1      18.810  11.428   7.836  1.00  0.00     0.288 A 
HETATM   25  O2  UNK     1      18.293  12.569   7.242  1.00  0.00    -0.275 OA
HETATM   26  O3  UNK     1      19.937  11.016   7.582  1.00  0.00    -0.260 OA
HETATM   27  C12 UNK     1      16.995  13.032   7.541  1.00  0.00     0.090 A 
HETATM   28  C9  UNK     1      16.180  12.357   8.451  1.00  0.00     0.006 A 
HETATM   29  C17 UNK     1      16.579  14.191   6.885  1.00  0.00     0.045 A 
HETATM   30  C13 UNK     1      14.904  12.882   8.694  1.00  0.00     0.015 A 
HETATM   31  C18 UNK     1      14.472  14.043   8.044  1.00  0.00     0.007 A 
HETATM   32  C19 UNK     1      15.308  14.696   7.140  1.00  0.00    -0.059 A 
HETATM   33  C21 UNK     1      14.842  15.933   6.449  1.00  0.00     0.048 C 
ENDBRANCH  21  22
ENDBRANCH   1  21
TORSDOF 5
ENDMDL
MODEL 10
REMARK VINA RESULT:      -9.2      5.540     14.320
REMARK  5 active torsions:
REMARK  status: ('A' for Active; 'I' for Inactive)
REMARK    1  A    between atoms: C5_12  and  N1_5 
REMARK    2  A    between atoms: C6_13  and  N2_6 
REMARK    3  A    between atoms: C5_12  and  C7_14 
REMARK    4  A    between atoms: C6_13  and  C8_15 
REMARK    5  A    between atoms: C14_21  and  C20_27 
ROOT
HETATM    1  N1  UNK     1      16.623   8.710  33.749  1.00  0.00     0.096 N 
HETATM    2  N2  UNK     1      17.597   6.167  32.780  1.00  0.00     0.097 N 
HETATM    3  C1  UNK     1      17.770   8.044  34.378  1.00  0.00     0.303 C 
HETATM    4  C2  UNK     1      15.714   7.719  33.163  1.00  0.00     0.303 C 
HETATM    5  C3  UNK     1      18.507   7.157  33.368  1.00  0.00     0.303 C 
HETATM    6  C4  UNK     1      16.450   6.833  32.152  1.00  0.00     0.303 C 
ENDROOT
BRANCH   2   7
HETATM    7  C6  UNK     1      18.301   5.325  31.815  1.00  0.00     0.334 C 
BRANCH   7   8
HETATM    8  C8  UNK     1      18.223   3.898  32.255  1.00  0.00     0.095 A 
HETATM    9  C10 UNK     1      18.374   2.756  31.511  1.00  0.00     0.078 A 
HETATM   10  O1  UNK     1      18.217   1.689  32.344  1.00  0.00    -0.294 OA
HETATM   11  C16 UNK     1      18.649   2.465  30.100  1.00  0.00     0.079 C 
HETATM   12  C14 UNK     1      17.980   2.264  33.555  1.00  0.00     0.182 A 
HETATM   13  N3  UNK     1      17.971   3.578  33.564  1.00  0.00    -0.224 NA
BRANCH  12  14
HETATM   14  C20 UNK     1      17.774   1.344  34.639  1.00  0.00     0.039 A 
HETATM   15  C22 UNK     1      18.534   1.401  35.808  1.00  0.00     0.048 A 
HETATM   16 Cl1  UNK     1      19.777   2.582  36.034  1.00  0.00    -0.083 Cl
HETATM   17  C24 UNK     1      18.302   0.489  36.837  1.00  0.00     0.025 A 
HETATM   18  C26 UNK     1      17.308  -0.481  36.697  1.00  0.00     0.002 A 
HETATM   19  C25 UNK     1      16.548  -0.538  35.529  1.00  0.00     0.001 A 
HETATM   20  C23 UNK     1      16.781   0.373  34.500  1.00  0.00     0.017 A 
ENDBRANCH  12  14
ENDBRANCH   7   8
ENDBRANCH   2   7
BRANCH   1  21
HETATM   21  C5  UNK     1      15.920   9.554  34.713  1.00  0.00     0.312 C 
BRANCH  21  22
HETATM   22  C7  UNK     1      15.993  10.997  34.355  1.00  0.00    -0.011 A 
HETATM   23  C11 UNK     1      17.162  11.654  34.355  1.00  0.00     0.092 A 
HETATM   24  C15 UNK     1      17.283  13.080  34.009  1.00  0.00     0.288 A 
HETATM   25  O2  UNK     1      16.112  13.740  33.672  1.00  0.00    -0.275 OA
HETATM   26  O3  UNK     1      18.370  13.647  34.018  1.00  0.00    -0.260 OA
HETATM   27  C12 UNK     1      14.868  13.078  33.663  1.00  0.00     0.090 A 
HETATM   28  C9  UNK     1      14.768  11.725  33.994  1.00  0.00     0.006 A 
HETATM   29  C17 UNK     1      13.755  13.842  33.309  1.00  0.00     0.045 A 
HETATM   30  C13 UNK     1      13.496  11.140  33.962  1.00  0.00     0.015 A 
HETATM   31  C18 UNK     1      12.371  11.893  33.610  1.00  0.00     0.007 A 
HETATM   32  C19 UNK     1      12.500  13.242  33.283  1.00  0.00    -0.059 A 
HETATM   33  C21 UNK     1      11.297  14.038  32.907  1.00  0.00     0.048 C 
ENDBRANCH  21  22
ENDBRANCH   1  21
TORSDOF 5
ENDMDL
