MODEL 1
REMARK VINA RESULT:     -10.5      0.000      0.000
REMARK  2 active torsions:
REMARK  status: ('A' for Active; 'I' for Inactive)
REMARK       I    between atoms: C11_15  and  N1_4 
REMARK    1  A    between atoms: C2_6  and  N1_4 
REMARK    2  A    between atoms: C11_15  and  C5_9 
ROOT
HETATM    1  O2  UNK     1      18.691   4.884  30.165  1.00  0.00    -0.267 OA
HETATM    2  N1  UNK     1      17.590   4.784  32.245  1.00  0.00    -0.322 N 
HETATM    3  C11 UNK     1      18.312   4.284  31.169  1.00  0.00     0.262 C 
HETATM    4  H1  UNK     1      17.516   4.179  33.056  1.00  0.00     0.169 HD
ENDROOT
BRANCH   3   5
HETATM    5  C5  UNK     1      18.621   2.858  31.325  1.00  0.00     0.108 A 
HETATM    6  C15 UNK     1      18.386   2.138  32.597  1.00  0.00     0.304 A 
HETATM    7  O1  UNK     1      18.720   0.786  32.621  1.00  0.00    -0.274 OA
HETATM    8  O3  UNK     1      17.919   2.698  33.583  1.00  0.00    -0.259 OA
HETATM    9  C10 UNK     1      19.256   0.133  31.494  1.00  0.00     0.089 A 
HETATM   10  C4  UNK     1      19.469   0.829  30.309  1.00  0.00    -0.001 A 
HETATM   11  C18 UNK     1      19.559  -1.222  31.614  1.00  0.00     0.038 A 
HETATM   12  C17 UNK     1      20.003   0.146  29.213  1.00  0.00     0.014 A 
HETATM   13  C9  UNK     1      19.131   2.242  30.251  1.00  0.00     0.037 A 
HETATM   14  C19 UNK     1      20.311  -1.214  29.318  1.00  0.00     0.001 A 
HETATM   15  C20 UNK     1      20.090  -1.895  30.517  1.00  0.00     0.003 A 
ENDBRANCH   3   5
BRANCH   2  16
HETATM   16  C2  UNK     1      17.124   6.109  32.432  1.00  0.00     0.046 A 
HETATM   17  C1  UNK     1      17.923   7.078  33.040  1.00  0.00     0.001 A 
HETATM   18  C3  UNK     1      17.404   8.385  33.200  1.00  0.00    -0.024 A 
HETATM   19  C7  UNK     1      19.221   6.795  33.495  1.00  0.00     0.014 A 
HETATM   20  C12 UNK     1      18.197   9.369  33.811  1.00  0.00     0.012 A 
HETATM   21  C8  UNK     1      16.105   8.668  32.745  1.00  0.00     0.012 A 
HETATM   22  C16 UNK     1      19.485   9.070  34.257  1.00  0.00     0.001 A 
HETATM   23  C14 UNK     1      19.995   7.785  34.099  1.00  0.00     0.001 A 
HETATM   24  C13 UNK     1      15.331   7.678  32.141  1.00  0.00     0.003 A 
HETATM   25  C6  UNK     1      15.842   6.393  31.983  1.00  0.00     0.030 A 
ENDBRANCH   2  16
TORSDOF 2
ENDMDL
MODEL 2
REMARK VINA RESULT:     -10.1      7.599     12.310
REMARK  2 active torsions:
REMARK  status: ('A' for Active; 'I' for Inactive)
REMARK       I    between atoms: C11_15  and  N1_4 
REMARK    1  A    between atoms: C2_6  and  N1_4 
REMARK    2  A    between atoms: C11_15  and  C5_9 
ROOT
HETATM    1  O2  UNK     1      20.155  -5.216  35.122  1.00  0.00    -0.267 OA
HETATM    2  N1  UNK     1      19.603  -5.020  37.404  1.00  0.00    -0.322 N 
HETATM    3  C11 UNK     1      19.804  -4.568  36.107  1.00  0.00     0.262 C 
HETATM    4  H1  UNK     1      19.153  -4.372  38.041  1.00  0.00     0.169 HD
ENDROOT
BRANCH   3   5
HETATM    5  C5  UNK     1      19.542  -3.130  35.975  1.00  0.00     0.108 A 
HETATM    6  C15 UNK     1      20.056  -2.339  34.834  1.00  0.00     0.304 A 
HETATM    7  O1  UNK     1      19.741  -0.982  34.821  1.00  0.00    -0.274 OA
HETATM    8  O3  UNK     1      20.725  -2.848  33.941  1.00  0.00    -0.259 OA
HETATM    9  C10 UNK     1      18.972  -0.389  35.841  1.00  0.00     0.089 A 
HETATM   10  C4  UNK     1      18.499  -1.150  36.905  1.00  0.00    -0.001 A 
HETATM   11  C18 UNK     1      18.708   0.976  35.741  1.00  0.00     0.038 A 
HETATM   12  C17 UNK     1      17.740  -0.525  37.897  1.00  0.00     0.014 A 
HETATM   13  C9  UNK     1      18.811  -2.570  36.947  1.00  0.00     0.037 A 
HETATM   14  C19 UNK     1      17.467   0.844  37.810  1.00  0.00     0.001 A 
HETATM   15  C20 UNK     1      17.950   1.592  36.734  1.00  0.00     0.003 A 
ENDBRANCH   3   5
BRANCH   2  16
HETATM   16  C2  UNK     1      19.760  -6.340  37.892  1.00  0.00     0.046 A 
HETATM   17  C1  UNK     1      20.959  -6.760  38.472  1.00  0.00     0.001 A 
HETATM   18  C3  UNK     1      21.057  -8.092  38.941  1.00  0.00    -0.024 A 
HETATM   19  C7  UNK     1      22.063  -5.903  38.601  1.00  0.00     0.014 A 
HETATM   20  C12 UNK     1      22.257  -8.527  39.526  1.00  0.00     0.012 A 
HETATM   21  C8  UNK     1      19.952  -8.949  38.811  1.00  0.00     0.012 A 
HETATM   22  C16 UNK     1      23.345  -7.662  39.647  1.00  0.00     0.001 A 
HETATM   23  C14 UNK     1      23.248  -6.352  39.185  1.00  0.00     0.001 A 
HETATM   24  C13 UNK     1      18.767  -8.500  38.227  1.00  0.00     0.003 A 
HETATM   25  C6  UNK     1      18.671  -7.190  37.766  1.00  0.00     0.030 A 
ENDBRANCH   2  16
TORSDOF 2
ENDMDL
MODEL 3
REMARK VINA RESULT:     -10.0      7.417     12.622
REMARK  2 active torsions:
REMARK  status: ('A' for Active; 'I' for Inactive)
REMARK       I    between atoms: C11_15  and  N1_4 
REMARK    1  A    between atoms: C2_6  and  N1_4 
REMARK    2  A    between atoms: C11_15  and  C5_9 
ROOT
HETATM    1  O2  UNK     1      21.771  -4.287  37.217  1.00  0.00    -0.267 OA
HETATM    2  N1  UNK     1      19.656  -5.324  37.251  1.00  0.00    -0.322 N 
HETATM    3  C11 UNK     1      20.555  -4.290  37.029  1.00  0.00     0.262 C 
HETATM    4  H1  UNK     1      18.721  -5.194  36.879  1.00  0.00     0.169 HD
ENDROOT
BRANCH   3   5
HETATM    5  C5  UNK     1      19.897  -3.088  36.504  1.00  0.00     0.108 A 
HETATM    6  C15 UNK     1      20.005  -2.691  35.081  1.00  0.00     0.304 A 
HETATM    7  O1  UNK     1      19.335  -1.530  34.704  1.00  0.00    -0.274 OA
HETATM    8  O3  UNK     1      20.648  -3.350  34.272  1.00  0.00    -0.259 OA
HETATM    9  C10 UNK     1      18.592  -0.767  35.626  1.00  0.00     0.089 A 
HETATM   10  C4  UNK     1      18.504  -1.157  36.958  1.00  0.00    -0.001 A 
HETATM   11  C18 UNK     1      17.957   0.380  35.154  1.00  0.00     0.038 A 
HETATM   12  C17 UNK     1      17.759  -0.374  37.842  1.00  0.00     0.014 A 
HETATM   13  C9  UNK     1      19.193  -2.366  37.384  1.00  0.00     0.037 A 
HETATM   14  C19 UNK     1      17.115   0.779  37.383  1.00  0.00     0.001 A 
HETATM   15  C20 UNK     1      17.215   1.155  36.042  1.00  0.00     0.003 A 
ENDBRANCH   3   5
BRANCH   2  16
HETATM   16  C2  UNK     1      19.936  -6.620  37.750  1.00  0.00     0.046 A 
HETATM   17  C1  UNK     1      20.429  -7.625  36.915  1.00  0.00     0.001 A 
HETATM   18  C3  UNK     1      20.690  -8.901  37.469  1.00  0.00    -0.024 A 
HETATM   19  C7  UNK     1      20.672  -7.406  35.550  1.00  0.00     0.014 A 
HETATM   20  C12 UNK     1      21.186  -9.920  36.641  1.00  0.00     0.012 A 
HETATM   21  C8  UNK     1      20.447  -9.119  38.836  1.00  0.00     0.012 A 
HETATM   22  C16 UNK     1      21.422  -9.686  35.286  1.00  0.00     0.001 A 
HETATM   23  C14 UNK     1      21.165  -8.431  34.742  1.00  0.00     0.001 A 
HETATM   24  C13 UNK     1      19.953  -8.095  39.643  1.00  0.00     0.003 A 
HETATM   25  C6  UNK     1      19.697  -6.840  39.099  1.00  0.00     0.030 A 
ENDBRANCH   2  16
TORSDOF 2
ENDMDL
MODEL 4
REMARK VINA RESULT:      -9.9      1.101      2.921
REMARK  2 active torsions:
REMARK  status: ('A' for Active; 'I' for Inactive)
REMARK       I    between atoms: C11_15  and  N1_4 
REMARK    1  A    between atoms: C2_6  and  N1_4 
REMARK    2  A    between atoms: C11_15  and  C5_9 
ROOT
HETATM    1  O2  UNK     1      17.664   3.501  33.021  1.00  0.00    -0.267 OA
HETATM    2  N1  UNK     1      18.977   4.972  31.732  1.00  0.00    -0.322 N 
HETATM    3  C11 UNK     1      18.390   3.757  32.062  1.00  0.00     0.262 C 
HETATM    4  H1  UNK     1      19.404   5.029  30.814  1.00  0.00     0.169 HD
ENDROOT
BRANCH   3   5
HETATM    5  C5  UNK     1      18.724   2.701  31.099  1.00  0.00     0.108 A 
HETATM    6  C15 UNK     1      18.632   2.914  29.637  1.00  0.00     0.304 A 
HETATM    7  O1  UNK     1      18.976   1.835  28.826  1.00  0.00    -0.274 OA
HETATM    8  O3  UNK     1      18.274   3.984  29.159  1.00  0.00    -0.259 OA
HETATM    9  C10 UNK     1      19.391   0.602  29.366  1.00  0.00     0.089 A 
HETATM   10  C4  UNK     1      19.470   0.424  30.743  1.00  0.00    -0.001 A 
HETATM   11  C18 UNK     1      19.714  -0.419  28.473  1.00  0.00     0.038 A 
HETATM   12  C17 UNK     1      19.884  -0.814  31.239  1.00  0.00     0.014 A 
HETATM   13  C9  UNK     1      19.117   1.531  31.617  1.00  0.00     0.037 A 
HETATM   14  C19 UNK     1      20.213  -1.848  30.357  1.00  0.00     0.001 A 
HETATM   15  C20 UNK     1      20.128  -1.650  28.977  1.00  0.00     0.003 A 
ENDBRANCH   3   5
BRANCH   2  16
HETATM   16  C2  UNK     1      18.872   6.200  32.430  1.00  0.00     0.046 A 
HETATM   17  C1  UNK     1      17.678   6.923  32.446  1.00  0.00     0.001 A 
HETATM   18  C3  UNK     1      17.633   8.144  33.160  1.00  0.00    -0.024 A 
HETATM   19  C7  UNK     1      16.527   6.475  31.778  1.00  0.00     0.014 A 
HETATM   20  C12 UNK     1      16.439   8.882  33.184  1.00  0.00     0.012 A 
HETATM   21  C8  UNK     1      18.785   8.592  33.829  1.00  0.00     0.012 A 
HETATM   22  C16 UNK     1      15.304   8.422  32.514  1.00  0.00     0.001 A 
HETATM   23  C14 UNK     1      15.349   7.221  31.813  1.00  0.00     0.001 A 
HETATM   24  C13 UNK     1      19.964   7.847  33.793  1.00  0.00     0.003 A 
HETATM   25  C6  UNK     1      20.007   6.645  33.092  1.00  0.00     0.030 A 
ENDBRANCH   2  16
TORSDOF 2
ENDMDL
MODEL 5
REMARK VINA RESULT:      -9.8      7.242     12.409
REMARK  2 active torsions:
REMARK  status: ('A' for Active; 'I' for Inactive)
REMARK       I    between atoms: C11_15  and  N1_4 
REMARK    1  A    between atoms: C2_6  and  N1_4 
REMARK    2  A    between atoms: C11_15  and  C5_9 
ROOT
HETATM    1  O2  UNK     1      21.527  -4.283  37.150  1.00  0.00    -0.267 OA
HETATM    2  N1  UNK     1      19.898  -5.364  35.837  1.00  0.00    -0.322 N 
HETATM    3  C11 UNK     1      20.535  -4.279  36.423  1.00  0.00     0.262 C 
HETATM    4  H1  UNK     1      19.197  -5.148  35.136  1.00  0.00     0.169 HD
ENDROOT
BRANCH   3   5
HETATM    5  C5  UNK     1      19.886  -3.007  36.085  1.00  0.00     0.108 A 
HETATM    6  C15 UNK     1      20.004  -2.398  34.740  1.00  0.00     0.304 A 
HETATM    7  O1  UNK     1      19.343  -1.189  34.541  1.00  0.00    -0.274 OA
HETATM    8  O3  UNK     1      20.649  -2.929  33.843  1.00  0.00    -0.259 OA
HETATM    9  C10 UNK     1      18.598  -0.573  35.566  1.00  0.00     0.089 A 
HETATM   10  C4  UNK     1      18.500  -1.161  36.822  1.00  0.00    -0.001 A 
HETATM   11  C18 UNK     1      17.970   0.637  35.271  1.00  0.00     0.038 A 
HETATM   12  C17 UNK     1      17.753  -0.519  37.811  1.00  0.00     0.014 A 
HETATM   13  C9  UNK     1      19.180  -2.424  37.061  1.00  0.00     0.037 A 
HETATM   14  C19 UNK     1      17.117   0.695  37.530  1.00  0.00     0.001 A 
HETATM   15  C20 UNK     1      17.227   1.271  36.263  1.00  0.00     0.003 A 
ENDBRANCH   3   5
BRANCH   2  16
HETATM   16  C2  UNK     1      20.248  -6.733  35.944  1.00  0.00     0.046 A 
HETATM   17  C1  UNK     1      20.156  -7.410  37.162  1.00  0.00     0.001 A 
HETATM   18  C3  UNK     1      20.521  -8.777  37.209  1.00  0.00    -0.024 A 
HETATM   19  C7  UNK     1      19.715  -6.776  38.335  1.00  0.00     0.014 A 
HETATM   20  C12 UNK     1      20.433  -9.469  38.426  1.00  0.00     0.012 A 
HETATM   21  C8  UNK     1      20.961  -9.410  36.035  1.00  0.00     0.012 A 
HETATM   22  C16 UNK     1      19.993  -8.824  39.583  1.00  0.00     0.001 A 
HETATM   23  C14 UNK     1      19.635  -7.480  39.536  1.00  0.00     0.001 A 
HETATM   24  C13 UNK     1      21.043  -8.707  34.833  1.00  0.00     0.003 A 
HETATM   25  C6  UNK     1      20.684  -7.363  34.787  1.00  0.00     0.030 A 
ENDBRANCH   2  16
TORSDOF 2
ENDMDL
MODEL 6
REMARK VINA RESULT:      -9.7      7.099      9.913
REMARK  2 active torsions:
REMARK  status: ('A' for Active; 'I' for Inactive)
REMARK       I    between atoms: C11_15  and  N1_4 
REMARK    1  A    between atoms: C2_6  and  N1_4 
REMARK    2  A    between atoms: C11_15  and  C5_9 
ROOT
HETATM    1  O2  UNK     1      20.985  -3.133  37.663  1.00  0.00    -0.267 OA
HETATM    2  N1  UNK     1      18.847  -3.204  36.675  1.00  0.00    -0.322 N 
HETATM    3  C11 UNK     1      20.029  -3.734  37.175  1.00  0.00     0.262 C 
HETATM    4  H1  UNK     1      18.109  -3.868  36.469  1.00  0.00     0.169 HD
ENDROOT
BRANCH   3   5
HETATM    5  C5  UNK     1      20.065  -5.198  37.074  1.00  0.00     0.108 A 
HETATM    6  C15 UNK     1      20.155  -5.893  35.770  1.00  0.00     0.304 A 
HETATM    7  O1  UNK     1      20.182  -7.285  35.805  1.00  0.00    -0.274 OA
HETATM    8  O3  UNK     1      20.205  -5.280  34.710  1.00  0.00    -0.259 OA
HETATM    9  C10 UNK     1      20.126  -7.999  37.018  1.00  0.00     0.089 A 
HETATM   10  C4  UNK     1      20.042  -7.326  38.232  1.00  0.00    -0.001 A 
HETATM   11  C18 UNK     1      20.159  -9.391  36.951  1.00  0.00     0.038 A 
HETATM   12  C17 UNK     1      19.988  -8.070  39.413  1.00  0.00     0.014 A 
HETATM   13  C9  UNK     1      20.012  -5.872  38.229  1.00  0.00     0.037 A 
HETATM   14  C19 UNK     1      20.021  -9.467  39.362  1.00  0.00     0.001 A 
HETATM   15  C20 UNK     1      20.106 -10.125  38.133  1.00  0.00     0.003 A 
ENDBRANCH   3   5
BRANCH   2  16
HETATM   16  C2  UNK     1      18.471  -1.839  36.613  1.00  0.00     0.046 A 
HETATM   17  C1  UNK     1      18.528  -1.127  35.414  1.00  0.00     0.001 A 
HETATM   18  C3  UNK     1      18.140   0.234  35.413  1.00  0.00    -0.024 A 
HETATM   19  C7  UNK     1      18.956  -1.721  34.215  1.00  0.00     0.014 A 
HETATM   20  C12 UNK     1      18.193   0.962  34.214  1.00  0.00     0.012 A 
HETATM   21  C8  UNK     1      17.711   0.827  36.612  1.00  0.00     0.012 A 
HETATM   22  C16 UNK     1      18.621   0.357  33.031  1.00  0.00     0.001 A 
HETATM   23  C14 UNK     1      19.002  -0.982  33.033  1.00  0.00     0.001 A 
HETATM   24  C13 UNK     1      17.666   0.089  37.795  1.00  0.00     0.003 A 
HETATM   25  C6  UNK     1      18.047  -1.250  37.795  1.00  0.00     0.030 A 
ENDBRANCH   2  16
TORSDOF 2
ENDMDL
MODEL 7
REMARK VINA RESULT:      -9.5     13.853     16.583
REMARK  2 active torsions:
REMARK  status: ('A' for Active; 'I' for Inactive)
REMARK       I    between atoms: C11_15  and  N1_4 
REMARK    1  A    between atoms: C2_6  and  N1_4 
REMARK    2  A    between atoms: C11_15  and  C5_9 
ROOT
HETATM    1  O2  UNK     1      19.446  -0.063  14.428  1.00  0.00    -0.267 OA
HETATM    2  N1  UNK     1      18.962  -0.403  16.708  1.00  0.00    -0.322 N 
HETATM    3  C11 UNK     1      19.103  -0.768  15.376  1.00  0.00     0.262 C 
HETATM    4  H1  UNK     1      18.834  -1.161  17.370  1.00  0.00     0.169 HD
ENDROOT
BRANCH   3   5
HETATM    5  C5  UNK     1      18.788  -2.184  15.153  1.00  0.00     0.108 A 
HETATM    6  C15 UNK     1      17.631  -2.842  15.801  1.00  0.00     0.304 A 
HETATM    7  O1  UNK     1      17.436  -4.190  15.512  1.00  0.00    -0.274 OA
HETATM    8  O3  UNK     1      16.878  -2.235  16.555  1.00  0.00    -0.259 OA
HETATM    9  C10 UNK     1      18.295  -4.896  14.646  1.00  0.00     0.089 A 
HETATM   10  C4  UNK     1      19.376  -4.258  14.048  1.00  0.00    -0.001 A 
HETATM   11  C18 UNK     1      18.018  -6.243  14.417  1.00  0.00     0.038 A 
HETATM   12  C17 UNK     1      20.205  -4.992  13.196  1.00  0.00     0.014 A 
HETATM   13  C9  UNK     1      19.607  -2.851  14.331  1.00  0.00     0.037 A 
HETATM   14  C19 UNK     1      19.940  -6.344  12.956  1.00  0.00     0.001 A 
HETATM   15  C20 UNK     1      18.848  -6.967  13.566  1.00  0.00     0.003 A 
ENDBRANCH   3   5
BRANCH   2  16
HETATM   16  C2  UNK     1      19.182   0.873  17.282  1.00  0.00     0.046 A 
HETATM   17  C1  UNK     1      19.309   1.033  18.663  1.00  0.00     0.001 A 
HETATM   18  C3  UNK     1      19.527   2.333  19.179  1.00  0.00    -0.024 A 
HETATM   19  C7  UNK     1      19.226  -0.053  19.549  1.00  0.00     0.014 A 
HETATM   20  C12 UNK     1      19.655   2.508  20.566  1.00  0.00     0.012 A 
HETATM   21  C8  UNK     1      19.610   3.419  18.292  1.00  0.00     0.012 A 
HETATM   22  C16 UNK     1      19.570   1.418  21.433  1.00  0.00     0.001 A 
HETATM   23  C14 UNK     1      19.356   0.140  20.924  1.00  0.00     0.001 A 
HETATM   24  C13 UNK     1      19.479   3.227  16.917  1.00  0.00     0.003 A 
HETATM   25  C6  UNK     1      19.265   1.949  16.409  1.00  0.00     0.030 A 
ENDBRANCH   2  16
TORSDOF 2
ENDMDL
MODEL 8
REMARK VINA RESULT:      -9.4     14.211     17.066
REMARK  2 active torsions:
REMARK  status: ('A' for Active; 'I' for Inactive)
REMARK       I    between atoms: C11_15  and  N1_4 
REMARK    1  A    between atoms: C2_6  and  N1_4 
REMARK    2  A    between atoms: C11_15  and  C5_9 
ROOT
HETATM    1  O2  UNK     1      16.824  -1.757  16.997  1.00  0.00    -0.267 OA
HETATM    2  N1  UNK     1      19.094  -1.130  17.033  1.00  0.00    -0.322 N 
HETATM    3  C11 UNK     1      17.975  -1.808  16.568  1.00  0.00     0.262 C 
HETATM    4  H1  UNK     1      19.920  -1.171  16.446  1.00  0.00     0.169 HD
ENDROOT
BRANCH   3   5
HETATM    5  C5  UNK     1      18.287  -2.668  15.420  1.00  0.00     0.108 A 
HETATM    6  C15 UNK     1      19.071  -2.180  14.263  1.00  0.00     0.304 A 
HETATM    7  O1  UNK     1      19.302  -3.091  13.236  1.00  0.00    -0.274 OA
HETATM    8  O3  UNK     1      19.500  -1.033  14.208  1.00  0.00    -0.259 OA
HETATM    9  C10 UNK     1      18.815  -4.412  13.291  1.00  0.00     0.089 A 
HETATM   10  C4  UNK     1      18.080  -4.850  14.387  1.00  0.00    -0.001 A 
HETATM   11  C18 UNK     1      19.097  -5.251  12.214  1.00  0.00     0.038 A 
HETATM   12  C17 UNK     1      17.614  -6.166  14.404  1.00  0.00     0.014 A 
HETATM   13  C9  UNK     1      17.822  -3.922  15.477  1.00  0.00     0.037 A 
HETATM   14  C19 UNK     1      17.890  -7.020  13.331  1.00  0.00     0.001 A 
HETATM   15  C20 UNK     1      18.629  -6.562  12.239  1.00  0.00     0.003 A 
ENDBRANCH   3   5
BRANCH   2  16
HETATM   16  C2  UNK     1      19.164  -0.220  18.117  1.00  0.00     0.046 A 
HETATM   17  C1  UNK     1      19.287   1.154  17.901  1.00  0.00     0.001 A 
HETATM   18  C3  UNK     1      19.353   2.015  19.023  1.00  0.00    -0.024 A 
HETATM   19  C7  UNK     1      19.348   1.703  16.610  1.00  0.00     0.014 A 
HETATM   20  C12 UNK     1      19.478   3.398  18.820  1.00  0.00     0.012 A 
HETATM   21  C8  UNK     1      19.292   1.465  20.315  1.00  0.00     0.012 A 
HETATM   22  C16 UNK     1      19.537   3.927  17.530  1.00  0.00     0.001 A 
HETATM   23  C14 UNK     1      19.472   3.080  16.427  1.00  0.00     0.001 A 
HETATM   24  C13 UNK     1      19.169   0.088  20.497  1.00  0.00     0.003 A 
HETATM   25  C6  UNK     1      19.104  -0.758  19.394  1.00  0.00     0.030 A 
ENDBRANCH   2  16
TORSDOF 2
ENDMDL
MODEL 9
REMARK VINA RESULT:      -9.4     14.488     16.141
REMARK  2 active torsions:
REMARK  status: ('A' for Active; 'I' for Inactive)
REMARK       I    between atoms: C11_15  and  N1_4 
REMARK    1  A    between atoms: C2_6  and  N1_4 
REMARK    2  A    between atoms: C11_15  and  C5_9 
ROOT
HETATM    1  O2  UNK     1      25.719  -9.176  39.432  1.00  0.00    -0.267 OA
HETATM    2  N1  UNK     1      24.628  -8.034  37.684  1.00  0.00    -0.322 N 
HETATM    3  C11 UNK     1      25.613  -8.241  38.640  1.00  0.00     0.262 C 
HETATM    4  H1  UNK     1      24.802  -7.294  37.012  1.00  0.00     0.169 HD
ENDROOT
BRANCH   3   5
HETATM    5  C5  UNK     1      26.617  -7.170  38.641  1.00  0.00     0.108 A 
HETATM    6  C15 UNK     1      26.243  -5.743  38.765  1.00  0.00     0.304 A 
HETATM    7  O1  UNK     1      27.285  -4.820  38.753  1.00  0.00    -0.274 OA
HETATM    8  O3  UNK     1      25.075  -5.386  38.874  1.00  0.00    -0.259 OA
HETATM    9  C10 UNK     1      28.630  -5.220  38.629  1.00  0.00     0.089 A 
HETATM   10  C4  UNK     1      28.960  -6.566  38.513  1.00  0.00    -0.001 A 
HETATM   11  C18 UNK     1      29.604  -4.223  38.628  1.00  0.00     0.038 A 
HETATM   12  C17 UNK     1      30.305  -6.922  38.392  1.00  0.00     0.014 A 
HETATM   13  C9  UNK     1      27.894  -7.555  38.522  1.00  0.00     0.037 A 
HETATM   14  C19 UNK     1      31.294  -5.933  38.389  1.00  0.00     0.001 A 
HETATM   15  C20 UNK     1      30.943  -4.587  38.506  1.00  0.00     0.003 A 
ENDBRANCH   3   5
BRANCH   2  16
HETATM   16  C2  UNK     1      23.511  -8.858  37.403  1.00  0.00     0.046 A 
HETATM   17  C1  UNK     1      22.281  -8.649  38.029  1.00  0.00     0.001 A 
HETATM   18  C3  UNK     1      21.200  -9.505  37.709  1.00  0.00    -0.024 A 
HETATM   19  C7  UNK     1      22.087  -7.618  38.963  1.00  0.00     0.014 A 
HETATM   20  C12 UNK     1      19.958  -9.306  38.331  1.00  0.00     0.012 A 
HETATM   21  C8  UNK     1      21.395 -10.536  36.774  1.00  0.00     0.012 A 
HETATM   22  C16 UNK     1      19.783  -8.276  39.257  1.00  0.00     0.001 A 
HETATM   23  C14 UNK     1      20.845  -7.434  39.572  1.00  0.00     0.001 A 
HETATM   24  C13 UNK     1      22.636 -10.721  36.166  1.00  0.00     0.003 A 
HETATM   25  C6  UNK     1      23.698  -9.878  36.480  1.00  0.00     0.030 A 
ENDBRANCH   2  16
TORSDOF 2
ENDMDL
MODEL 10
REMARK VINA RESULT:      -9.3     15.058     19.590
REMARK  2 active torsions:
REMARK  status: ('A' for Active; 'I' for Inactive)
REMARK       I    between atoms: C11_15  and  N1_4 
REMARK    1  A    between atoms: C2_6  and  N1_4 
REMARK    2  A    between atoms: C11_15  and  C5_9 
ROOT
HETATM    1  O2  UNK     1      17.829  -3.131  15.841  1.00  0.00    -0.267 OA
HETATM    2  N1  UNK     1      20.066  -2.997  15.114  1.00  0.00    -0.322 N 
HETATM    3  C11 UNK     1      18.886  -2.525  15.673  1.00  0.00     0.262 C 
HETATM    4  H1  UNK     1      20.880  -2.401  15.214  1.00  0.00     0.169 HD
ENDROOT
BRANCH   3   5
HETATM    5  C5  UNK     1      18.994  -1.122  16.090  1.00  0.00     0.108 A 
HETATM    6  C15 UNK     1      19.281  -0.035  15.126  1.00  0.00     0.304 A 
HETATM    7  O1  UNK     1      19.360   1.255  15.644  1.00  0.00    -0.274 OA
HETATM    8  O3  UNK     1      19.440  -0.255  13.931  1.00  0.00    -0.259 OA
HETATM    9  C10 UNK     1      19.176   1.518  17.016  1.00  0.00     0.089 A 
HETATM   10  C4  UNK     1      18.908   0.482  17.905  1.00  0.00    -0.001 A 
HETATM   11  C18 UNK     1      19.274   2.842  17.440  1.00  0.00     0.038 A 
HETATM   12  C17 UNK     1      18.734   0.783  19.257  1.00  0.00     0.014 A 
HETATM   13  C9  UNK     1      18.820  -0.877  17.395  1.00  0.00     0.037 A 
HETATM   14  C19 UNK     1      18.828   2.107  19.698  1.00  0.00     0.001 A 
HETATM   15  C20 UNK     1      19.098   3.133  18.790  1.00  0.00     0.003 A 
ENDBRANCH   3   5
BRANCH   2  16
HETATM   16  C2  UNK     1      20.322  -4.295  14.607  1.00  0.00     0.046 A 
HETATM   17  C1  UNK     1      20.003  -4.633  13.290  1.00  0.00     0.001 A 
HETATM   18  C3  UNK     1      20.281  -5.945  12.839  1.00  0.00    -0.024 A 
HETATM   19  C7  UNK     1      19.416  -3.712  12.407  1.00  0.00     0.014 A 
HETATM   20  C12 UNK     1      19.964  -6.298  11.518  1.00  0.00     0.012 A 
HETATM   21  C8  UNK     1      20.867  -6.866  13.724  1.00  0.00     0.012 A 
HETATM   22  C16 UNK     1      19.382  -5.371  10.652  1.00  0.00     0.001 A 
HETATM   23  C14 UNK     1      19.109  -4.081  11.097  1.00  0.00     0.001 A 
HETATM   24  C13 UNK     1      21.174  -6.498  15.034  1.00  0.00     0.003 A 
HETATM   25  C6  UNK     1      20.901  -5.207  15.477  1.00  0.00     0.030 A 
ENDBRANCH   2  16
TORSDOF 2
ENDMDL
