MODEL 1
REMARK VINA RESULT:      -8.7      0.000      0.000
REMARK  2 active torsions:
REMARK  status: ('A' for Active; 'I' for Inactive)
REMARK    1  A    between atoms: C5_10  and  N1_4 
REMARK       I    between atoms: C6_11  and  N2_5 
REMARK    2  A    between atoms: C6_11  and  C7_12 
ROOT
HETATM    1  O1  UNK     1       7.254   6.609   8.208  1.00  0.00    -0.267 OA
HETATM    2  N1  UNK     1      12.160   6.068   9.291  1.00  0.00    -0.378 N 
HETATM    3  N2  UNK     1       9.292   5.811   9.000  1.00  0.00    -0.345 N 
HETATM    4  C1  UNK     1      11.332   7.202   8.874  1.00  0.00     0.143 C 
HETATM    5  C2  UNK     1      11.519   4.757   9.429  1.00  0.00     0.143 C 
HETATM    6  C3  UNK     1      10.071   6.717   8.160  1.00  0.00     0.146 C 
HETATM    7  C4  UNK     1      10.060   4.909   9.864  1.00  0.00     0.146 C 
HETATM    8  C6  UNK     1       7.900   5.852   8.933  1.00  0.00     0.260 C 
ENDROOT
BRANCH   8   9
HETATM    9  C7  UNK     1       7.155   4.924   9.809  1.00  0.00     0.108 A 
HETATM   10  C10 UNK     1       6.880   5.365  11.043  1.00  0.00     0.037 A 
HETATM   11  C12 UNK     1       6.151   4.523  11.977  1.00  0.00    -0.001 A 
HETATM   12  C15 UNK     1       5.746   3.257  11.569  1.00  0.00     0.089 A 
HETATM   13  C17 UNK     1       5.842   4.944  13.274  1.00  0.00     0.014 A 
HETATM   14  O2  UNK     1       6.038   2.798  10.269  1.00  0.00    -0.274 OA
HETATM   15  C18 UNK     1       5.045   2.402  12.416  1.00  0.00     0.038 A 
HETATM   16  C11 UNK     1       6.734   3.580   9.353  1.00  0.00     0.304 A 
HETATM   17  O3  UNK     1       6.985   3.171   8.223  1.00  0.00    -0.259 OA
HETATM   18  C20 UNK     1       4.741   2.828  13.707  1.00  0.00     0.003 A 
HETATM   19  C19 UNK     1       5.139   4.096  14.135  1.00  0.00     0.001 A 
ENDBRANCH   8   9
BRANCH   2  20
HETATM   20  C5  UNK     1      13.531   6.226   9.486  1.00  0.00     0.030 A 
HETATM   21  C8  UNK     1      14.104   7.504   9.677  1.00  0.00     0.029 A 
HETATM   22  C13 UNK     1      15.476   7.663   9.874  1.00  0.00     0.002 A 
HETATM   23  C16 UNK     1      16.314   6.547   9.883  1.00  0.00     0.000 A 
HETATM   24  C14 UNK     1      15.778   5.272   9.696  1.00  0.00     0.002 A 
HETATM   25  C9  UNK     1      14.406   5.113   9.500  1.00  0.00     0.029 A 
ENDBRANCH   2  20
TORSDOF 2
ENDMDL
MODEL 2
REMARK VINA RESULT:      -8.5     26.525     28.191
REMARK  2 active torsions:
REMARK  status: ('A' for Active; 'I' for Inactive)
REMARK    1  A    between atoms: C5_10  and  N1_4 
REMARK       I    between atoms: C6_11  and  N2_5 
REMARK    2  A    between atoms: C6_11  and  C7_12 
ROOT
HETATM    1  O1  UNK     1      16.852  -0.198  35.235  1.00  0.00    -0.267 OA
HETATM    2  N1  UNK     1      19.909  -3.784  37.061  1.00  0.00    -0.378 N 
HETATM    3  N2  UNK     1      18.648  -1.636  35.586  1.00  0.00    -0.345 N 
HETATM    4  C1  UNK     1      18.475  -3.510  37.190  1.00  0.00     0.143 C 
HETATM    5  C2  UNK     1      20.721  -2.859  36.268  1.00  0.00     0.143 C 
HETATM    6  C3  UNK     1      18.179  -2.038  36.910  1.00  0.00     0.146 C 
HETATM    7  C4  UNK     1      19.898  -2.252  35.129  1.00  0.00     0.146 C 
HETATM    8  C6  UNK     1      17.902  -0.715  34.853  1.00  0.00     0.260 C 
ENDROOT
BRANCH   8   9
HETATM    9  C7  UNK     1      18.410  -0.348  33.514  1.00  0.00     0.108 A 
HETATM   10  C10 UNK     1      18.989  -1.328  32.811  1.00  0.00     0.037 A 
HETATM   11  C12 UNK     1      19.519  -1.063  31.484  1.00  0.00    -0.001 A 
HETATM   12  C15 UNK     1      19.416   0.221  30.961  1.00  0.00     0.089 A 
HETATM   13  C17 UNK     1      20.131  -2.056  30.714  1.00  0.00     0.014 A 
HETATM   14  O2  UNK     1      18.805   1.250  31.706  1.00  0.00    -0.274 OA
HETATM   15  C18 UNK     1      19.904   0.541  29.696  1.00  0.00     0.038 A 
HETATM   16  C11 UNK     1      18.289   1.026  32.979  1.00  0.00     0.304 A 
HETATM   17  O3  UNK     1      17.760   1.929  33.621  1.00  0.00    -0.259 OA
HETATM   18  C20 UNK     1      20.513  -0.455  28.935  1.00  0.00     0.003 A 
HETATM   19  C19 UNK     1      20.626  -1.750  29.443  1.00  0.00     0.001 A 
ENDBRANCH   8   9
BRANCH   2  20
HETATM   20  C5  UNK     1      20.487  -4.861  37.731  1.00  0.00     0.030 A 
HETATM   21  C8  UNK     1      21.878  -4.913  37.977  1.00  0.00     0.029 A 
HETATM   22  C13 UNK     1      22.457  -5.989  38.649  1.00  0.00     0.002 A 
HETATM   23  C16 UNK     1      21.660  -7.046  39.091  1.00  0.00     0.000 A 
HETATM   24  C14 UNK     1      20.284  -7.024  38.863  1.00  0.00     0.002 A 
HETATM   25  C9  UNK     1      19.705  -5.947  38.192  1.00  0.00     0.029 A 
ENDBRANCH   2  20
TORSDOF 2
ENDMDL
MODEL 3
REMARK VINA RESULT:      -8.4     24.664     25.920
REMARK  2 active torsions:
REMARK  status: ('A' for Active; 'I' for Inactive)
REMARK    1  A    between atoms: C5_10  and  N1_4 
REMARK       I    between atoms: C6_11  and  N2_5 
REMARK    2  A    between atoms: C6_11  and  C7_12 
ROOT
HETATM    1  O1  UNK     1      17.551   2.421  31.178  1.00  0.00    -0.267 OA
HETATM    2  N1  UNK     1      18.720   6.854  33.305  1.00  0.00    -0.378 N 
HETATM    3  N2  UNK     1      18.354   4.066  32.615  1.00  0.00    -0.345 N 
HETATM    4  C1  UNK     1      17.757   6.442  32.280  1.00  0.00     0.143 C 
HETATM    5  C2  UNK     1      19.594   5.830  33.883  1.00  0.00     0.143 C 
HETATM    6  C3  UNK     1      18.191   5.131  31.628  1.00  0.00     0.146 C 
HETATM    7  C4  UNK     1      18.892   4.471  33.919  1.00  0.00     0.146 C 
HETATM    8  C6  UNK     1      18.002   2.762  32.272  1.00  0.00     0.260 C 
ENDROOT
BRANCH   8   9
HETATM    9  C7  UNK     1      18.175   1.722  33.308  1.00  0.00     0.108 A 
HETATM   10  C10 UNK     1      17.670   1.999  34.516  1.00  0.00     0.037 A 
HETATM   11  C12 UNK     1      17.792   1.037  35.599  1.00  0.00    -0.001 A 
HETATM   12  C15 UNK     1      18.439  -0.170  35.358  1.00  0.00     0.089 A 
HETATM   13  C17 UNK     1      17.280   1.284  36.876  1.00  0.00     0.014 A 
HETATM   14  O2  UNK     1      18.968  -0.457  34.084  1.00  0.00    -0.274 OA
HETATM   15  C18 UNK     1      18.589  -1.135  36.353  1.00  0.00     0.038 A 
HETATM   16  C11 UNK     1      18.868   0.444  33.028  1.00  0.00     0.304 A 
HETATM   17  O3  UNK     1      19.333   0.187  31.922  1.00  0.00    -0.259 OA
HETATM   18  C20 UNK     1      18.076  -0.881  37.623  1.00  0.00     0.003 A 
HETATM   19  C19 UNK     1      17.423   0.326  37.884  1.00  0.00     0.001 A 
ENDBRANCH   8   9
BRANCH   2  20
HETATM   20  C5  UNK     1      18.838   8.194  33.669  1.00  0.00     0.030 A 
HETATM   21  C8  UNK     1      20.053   8.715  34.173  1.00  0.00     0.029 A 
HETATM   22  C13 UNK     1      20.171  10.057  34.535  1.00  0.00     0.002 A 
HETATM   23  C16 UNK     1      19.079  10.915  34.405  1.00  0.00     0.000 A 
HETATM   24  C14 UNK     1      17.867  10.430  33.910  1.00  0.00     0.002 A 
HETATM   25  C9  UNK     1      17.748   9.089  33.548  1.00  0.00     0.029 A 
ENDBRANCH   2  20
TORSDOF 2
ENDMDL
MODEL 4
REMARK VINA RESULT:      -8.3      4.595      7.201
REMARK  2 active torsions:
REMARK  status: ('A' for Active; 'I' for Inactive)
REMARK    1  A    between atoms: C5_10  and  N1_4 
REMARK       I    between atoms: C6_11  and  N2_5 
REMARK    2  A    between atoms: C6_11  and  C7_12 
ROOT
HETATM    1  O1  UNK     1      14.532   6.690  10.948  1.00  0.00    -0.267 OA
HETATM    2  N1  UNK     1      16.770  10.637   8.723  1.00  0.00    -0.378 N 
HETATM    3  N2  UNK     1      15.002   8.510   9.575  1.00  0.00    -0.345 N 
HETATM    4  C1  UNK     1      17.256   9.526   9.545  1.00  0.00     0.143 C 
HETATM    5  C2  UNK     1      15.333  10.720   8.452  1.00  0.00     0.143 C 
HETATM    6  C3  UNK     1      16.126   8.950  10.398  1.00  0.00     0.146 C 
HETATM    7  C4  UNK     1      14.710   9.324   8.391  1.00  0.00     0.146 C 
HETATM    8  C6  UNK     1      14.288   7.374   9.954  1.00  0.00     0.260 C 
ENDROOT
BRANCH   8   9
HETATM    9  C7  UNK     1      13.166   6.961   9.085  1.00  0.00     0.108 A 
HETATM   10  C10 UNK     1      11.964   7.462   9.392  1.00  0.00     0.037 A 
HETATM   11  C12 UNK     1      10.799   7.113   8.595  1.00  0.00    -0.001 A 
HETATM   12  C15 UNK     1      10.956   6.252   7.514  1.00  0.00     0.089 A 
HETATM   13  C17 UNK     1       9.525   7.613   8.879  1.00  0.00     0.014 A 
HETATM   14  O2  UNK     1      12.224   5.728   7.195  1.00  0.00    -0.274 OA
HETATM   15  C18 UNK     1       9.880   5.878   6.711  1.00  0.00     0.038 A 
HETATM   16  C11 UNK     1      13.357   6.043   7.939  1.00  0.00     0.304 A 
HETATM   17  O3  UNK     1      14.458   5.581   7.655  1.00  0.00    -0.259 OA
HETATM   18  C20 UNK     1       8.614   6.381   7.000  1.00  0.00     0.003 A 
HETATM   19  C19 UNK     1       8.437   7.247   8.081  1.00  0.00     0.001 A 
ENDBRANCH   8   9
BRANCH   2  20
HETATM   20  C5  UNK     1      17.648  11.619   8.270  1.00  0.00     0.030 A 
HETATM   21  C8  UNK     1      18.941  11.764   8.827  1.00  0.00     0.029 A 
HETATM   22  C13 UNK     1      19.821  12.746   8.373  1.00  0.00     0.002 A 
HETATM   23  C16 UNK     1      19.433  13.613   7.350  1.00  0.00     0.000 A 
HETATM   24  C14 UNK     1      18.165  13.495   6.781  1.00  0.00     0.002 A 
HETATM   25  C9  UNK     1      17.285  12.513   7.235  1.00  0.00     0.029 A 
ENDBRANCH   2  20
TORSDOF 2
ENDMDL
MODEL 5
REMARK VINA RESULT:      -8.2      1.327      2.121
REMARK  2 active torsions:
REMARK  status: ('A' for Active; 'I' for Inactive)
REMARK    1  A    between atoms: C5_10  and  N1_4 
REMARK       I    between atoms: C6_11  and  N2_5 
REMARK    2  A    between atoms: C6_11  and  C7_12 
ROOT
HETATM    1  O1  UNK     1       8.190   8.465   9.075  1.00  0.00    -0.267 OA
HETATM    2  N1  UNK     1      13.102   7.317   9.380  1.00  0.00    -0.378 N 
HETATM    3  N2  UNK     1      10.219   7.326   9.122  1.00  0.00    -0.345 N 
HETATM    4  C1  UNK     1      12.305   8.479   9.782  1.00  0.00     0.143 C 
HETATM    5  C2  UNK     1      12.418   6.205   8.716  1.00  0.00     0.143 C 
HETATM    6  C3  UNK     1      11.007   8.547   8.978  1.00  0.00     0.146 C 
HETATM    7  C4  UNK     1      10.979   6.074   9.218  1.00  0.00     0.146 C 
HETATM    8  C6  UNK     1       8.829   7.415   9.156  1.00  0.00     0.260 C 
ENDROOT
BRANCH   8   9
HETATM    9  C7  UNK     1       8.075   6.154   9.314  1.00  0.00     0.108 A 
HETATM   10  C10 UNK     1       7.536   5.932  10.518  1.00  0.00     0.037 A 
HETATM   11  C12 UNK     1       6.777   4.718  10.769  1.00  0.00    -0.001 A 
HETATM   12  C15 UNK     1       6.622   3.795   9.741  1.00  0.00     0.089 A 
HETATM   13  C17 UNK     1       6.197   4.445  12.012  1.00  0.00     0.014 A 
HETATM   14  O2  UNK     1       7.191   4.034   8.474  1.00  0.00    -0.274 OA
HETATM   15  C18 UNK     1       5.906   2.612   9.916  1.00  0.00     0.038 A 
HETATM   16  C11 UNK     1       7.923   5.186   8.204  1.00  0.00     0.304 A 
HETATM   17  O3  UNK     1       8.416   5.385   7.098  1.00  0.00    -0.259 OA
HETATM   18  C20 UNK     1       5.331   2.349  11.157  1.00  0.00     0.003 A 
HETATM   19  C19 UNK     1       5.476   3.263  12.202  1.00  0.00     0.001 A 
ENDBRANCH   8   9
BRANCH   2  20
HETATM   20  C5  UNK     1      14.483   7.307   9.569  1.00  0.00     0.030 A 
HETATM   21  C8  UNK     1      15.220   6.100   9.544  1.00  0.00     0.029 A 
HETATM   22  C13 UNK     1      16.602   6.089   9.732  1.00  0.00     0.002 A 
HETATM   23  C16 UNK     1      17.286   7.286   9.952  1.00  0.00     0.000 A 
HETATM   24  C14 UNK     1      16.587   8.493   9.982  1.00  0.00     0.002 A 
HETATM   25  C9  UNK     1      15.205   8.503   9.794  1.00  0.00     0.029 A 
ENDBRANCH   2  20
TORSDOF 2
ENDMDL
MODEL 6
REMARK VINA RESULT:      -8.2      5.508     10.949
REMARK  2 active torsions:
REMARK  status: ('A' for Active; 'I' for Inactive)
REMARK    1  A    between atoms: C5_10  and  N1_4 
REMARK       I    between atoms: C6_11  and  N2_5 
REMARK    2  A    between atoms: C6_11  and  C7_12 
ROOT
HETATM    1  O1  UNK     1      15.127  10.650  11.370  1.00  0.00    -0.267 OA
HETATM    2  N1  UNK     1      12.031   7.966   8.411  1.00  0.00    -0.378 N 
HETATM    3  N2  UNK     1      14.225   9.429   9.605  1.00  0.00    -0.345 N 
HETATM    4  C1  UNK     1      11.824   8.838   9.570  1.00  0.00     0.143 C 
HETATM    5  C2  UNK     1      13.403   7.745   7.948  1.00  0.00     0.143 C 
HETATM    6  C3  UNK     1      13.101   8.943  10.402  1.00  0.00     0.146 C 
HETATM    7  C4  UNK     1      14.272   8.977   8.210  1.00  0.00     0.146 C 
HETATM    8  C6  UNK     1      15.165  10.270  10.199  1.00  0.00     0.260 C 
ENDROOT
BRANCH   8   9
HETATM    9  C7  UNK     1      16.278  10.744   9.350  1.00  0.00     0.108 A 
HETATM   10  C10 UNK     1      16.057  11.869   8.659  1.00  0.00     0.037 A 
HETATM   11  C12 UNK     1      17.093  12.413   7.796  1.00  0.00    -0.001 A 
HETATM   12  C15 UNK     1      18.310  11.748   7.702  1.00  0.00     0.089 A 
HETATM   13  C17 UNK     1      16.906  13.584   7.056  1.00  0.00     0.014 A 
HETATM   14  O2  UNK     1      18.537  10.565   8.432  1.00  0.00    -0.274 OA
HETATM   15  C18 UNK     1      19.343  12.217   6.893  1.00  0.00     0.038 A 
HETATM   16  C11 UNK     1      17.565  10.019   9.266  1.00  0.00     0.304 A 
HETATM   17  O3  UNK     1      17.771   8.987   9.898  1.00  0.00    -0.259 OA
HETATM   18  C20 UNK     1      19.150  13.385   6.159  1.00  0.00     0.003 A 
HETATM   19  C19 UNK     1      17.934  14.067   6.240  1.00  0.00     0.001 A 
ENDBRANCH   8   9
BRANCH   2  20
HETATM   20  C5  UNK     1      10.953   7.319   7.811  1.00  0.00     0.030 A 
HETATM   21  C8  UNK     1       9.740   7.111   8.507  1.00  0.00     0.029 A 
HETATM   22  C13 UNK     1       8.660   6.464   7.906  1.00  0.00     0.002 A 
HETATM   23  C16 UNK     1       8.763   6.005   6.592  1.00  0.00     0.000 A 
HETATM   24  C14 UNK     1       9.948   6.196   5.879  1.00  0.00     0.002 A 
HETATM   25  C9  UNK     1      11.027   6.843   6.480  1.00  0.00     0.029 A 
ENDBRANCH   2  20
TORSDOF 2
ENDMDL
MODEL 7
REMARK VINA RESULT:      -8.1      4.910      8.097
REMARK  2 active torsions:
REMARK  status: ('A' for Active; 'I' for Inactive)
REMARK    1  A    between atoms: C5_10  and  N1_4 
REMARK       I    between atoms: C6_11  and  N2_5 
REMARK    2  A    between atoms: C6_11  and  C7_12 
ROOT
HETATM    1  O1  UNK     1      15.669   7.018  10.276  1.00  0.00    -0.267 OA
HETATM    2  N1  UNK     1      16.926  11.573   8.483  1.00  0.00    -0.378 N 
HETATM    3  N2  UNK     1      15.593   9.166   9.383  1.00  0.00    -0.345 N 
HETATM    4  C1  UNK     1      17.665  10.324   8.691  1.00  0.00     0.143 C 
HETATM    5  C2  UNK     1      15.514  11.613   8.871  1.00  0.00     0.143 C 
HETATM    6  C3  UNK     1      16.977   9.459   9.746  1.00  0.00     0.146 C 
HETATM    7  C4  UNK     1      14.863  10.239   8.699  1.00  0.00     0.146 C 
HETATM    8  C6  UNK     1      15.057   7.919   9.701  1.00  0.00     0.260 C 
ENDROOT
BRANCH   8   9
HETATM    9  C7  UNK     1      13.656   7.665   9.304  1.00  0.00     0.108 A 
HETATM   10  C10 UNK     1      13.469   7.168   8.076  1.00  0.00     0.037 A 
HETATM   11  C12 UNK     1      12.126   6.886   7.597  1.00  0.00    -0.001 A 
HETATM   12  C15 UNK     1      11.045   7.141   8.432  1.00  0.00     0.089 A 
HETATM   13  C17 UNK     1      11.884   6.367   6.322  1.00  0.00     0.014 A 
HETATM   14  O2  UNK     1      11.247   7.664   9.725  1.00  0.00    -0.274 OA
HETATM   15  C18 UNK     1       9.733   6.893   8.033  1.00  0.00     0.038 A 
HETATM   16  C11 UNK     1      12.521   7.945  10.212  1.00  0.00     0.304 A 
HETATM   17  O3  UNK     1      12.688   8.402  11.338  1.00  0.00    -0.259 OA
HETATM   18  C20 UNK     1       9.500   6.375   6.761  1.00  0.00     0.003 A 
HETATM   19  C19 UNK     1      10.574   6.112   5.907  1.00  0.00     0.001 A 
ENDBRANCH   8   9
BRANCH   2  20
HETATM   20  C5  UNK     1      17.572  12.704   7.990  1.00  0.00     0.030 A 
HETATM   21  C8  UNK     1      18.036  12.764   6.655  1.00  0.00     0.029 A 
HETATM   22  C13 UNK     1      18.682  13.897   6.161  1.00  0.00     0.002 A 
HETATM   23  C16 UNK     1      18.884  15.002   6.988  1.00  0.00     0.000 A 
HETATM   24  C14 UNK     1      18.438  14.974   8.310  1.00  0.00     0.002 A 
HETATM   25  C9  UNK     1      17.792  13.841   8.804  1.00  0.00     0.029 A 
ENDBRANCH   2  20
TORSDOF 2
ENDMDL
MODEL 8
REMARK VINA RESULT:      -8.0     26.629     28.098
REMARK  2 active torsions:
REMARK  status: ('A' for Active; 'I' for Inactive)
REMARK    1  A    between atoms: C5_10  and  N1_4 
REMARK       I    between atoms: C6_11  and  N2_5 
REMARK    2  A    between atoms: C6_11  and  C7_12 
ROOT
HETATM    1  O1  UNK     1      18.573  -1.422  38.483  1.00  0.00    -0.267 OA
HETATM    2  N1  UNK     1      18.301   1.529  34.389  1.00  0.00    -0.378 N 
HETATM    3  N2  UNK     1      18.471  -0.647  36.291  1.00  0.00    -0.345 N 
HETATM    4  C1  UNK     1      18.658   1.767  35.791  1.00  0.00     0.143 C 
HETATM    5  C2  UNK     1      17.899   0.176  33.999  1.00  0.00     0.143 C 
HETATM    6  C3  UNK     1      18.052   0.694  36.692  1.00  0.00     0.146 C 
HETATM    7  C4  UNK     1      18.619  -0.873  34.849  1.00  0.00     0.146 C 
HETATM    8  C6  UNK     1      18.697  -1.610  37.272  1.00  0.00     0.260 C 
ENDROOT
BRANCH   8   9
HETATM    9  C7  UNK     1      19.130  -2.948  36.818  1.00  0.00     0.108 A 
HETATM   10  C10 UNK     1      18.216  -3.923  36.892  1.00  0.00     0.037 A 
HETATM   11  C12 UNK     1      18.549  -5.273  36.469  1.00  0.00    -0.001 A 
HETATM   12  C15 UNK     1      19.828  -5.533  35.988  1.00  0.00     0.089 A 
HETATM   13  C17 UNK     1      17.627  -6.322  36.529  1.00  0.00     0.014 A 
HETATM   14  O2  UNK     1      20.786  -4.502  35.911  1.00  0.00    -0.274 OA
HETATM   15  C18 UNK     1      20.210  -6.805  35.566  1.00  0.00     0.038 A 
HETATM   16  C11 UNK     1      20.497  -3.201  36.310  1.00  0.00     0.304 A 
HETATM   17  O3  UNK     1      21.338  -2.310  36.241  1.00  0.00    -0.259 OA
HETATM   18  C20 UNK     1      19.285  -7.844  35.629  1.00  0.00     0.003 A 
HETATM   19  C19 UNK     1      17.996  -7.603  36.109  1.00  0.00     0.001 A 
ENDBRANCH   8   9
BRANCH   2  20
HETATM   20  C5  UNK     1      18.285   2.580  33.475  1.00  0.00     0.030 A 
HETATM   21  C8  UNK     1      18.316   2.343  32.081  1.00  0.00     0.029 A 
HETATM   22  C13 UNK     1      18.299   3.394  31.165  1.00  0.00     0.002 A 
HETATM   23  C16 UNK     1      18.251   4.714  31.617  1.00  0.00     0.000 A 
HETATM   24  C14 UNK     1      18.219   4.980  32.986  1.00  0.00     0.002 A 
HETATM   25  C9  UNK     1      18.237   3.929  33.902  1.00  0.00     0.029 A 
ENDBRANCH   2  20
TORSDOF 2
ENDMDL
MODEL 9
REMARK VINA RESULT:      -7.9     24.136     25.771
REMARK  2 active torsions:
REMARK  status: ('A' for Active; 'I' for Inactive)
REMARK    1  A    between atoms: C5_10  and  N1_4 
REMARK       I    between atoms: C6_11  and  N2_5 
REMARK    2  A    between atoms: C6_11  and  C7_12 
ROOT
HETATM    1  O1  UNK     1      20.144   6.158  32.844  1.00  0.00    -0.267 OA
HETATM    2  N1  UNK     1      16.053   8.875  34.039  1.00  0.00    -0.378 N 
HETATM    3  N2  UNK     1      18.070   6.834  33.656  1.00  0.00    -0.345 N 
HETATM    4  C1  UNK     1      17.143   9.051  33.075  1.00  0.00     0.143 C 
HETATM    5  C2  UNK     1      16.082   7.695  34.906  1.00  0.00     0.143 C 
HETATM    6  C3  UNK     1      18.375   8.254  33.500  1.00  0.00     0.146 C 
HETATM    7  C4  UNK     1      16.744   6.513  34.196  1.00  0.00     0.146 C 
HETATM    8  C6  UNK     1      19.030   5.890  33.296  1.00  0.00     0.260 C 
ENDROOT
BRANCH   8   9
HETATM    9  C7  UNK     1      18.673   4.466  33.462  1.00  0.00     0.108 A 
HETATM   10  C10 UNK     1      18.858   3.946  34.681  1.00  0.00     0.037 A 
HETATM   11  C12 UNK     1      18.535   2.553  34.941  1.00  0.00    -0.001 A 
HETATM   12  C15 UNK     1      18.033   1.773  33.905  1.00  0.00     0.089 A 
HETATM   13  C17 UNK     1      18.712   1.969  36.199  1.00  0.00     0.014 A 
HETATM   14  O2  UNK     1      17.840   2.325  32.623  1.00  0.00    -0.274 OA
HETATM   15  C18 UNK     1      17.704   0.431  34.088  1.00  0.00     0.038 A 
HETATM   16  C11 UNK     1      18.140   3.655  32.344  1.00  0.00     0.304 A 
HETATM   17  O3  UNK     1      17.970   4.127  31.224  1.00  0.00    -0.259 OA
HETATM   18  C20 UNK     1      17.883  -0.143  35.344  1.00  0.00     0.003 A 
HETATM   19  C19 UNK     1      18.386   0.624  36.397  1.00  0.00     0.001 A 
ENDBRANCH   8   9
BRANCH   2  20
HETATM   20  C5  UNK     1      15.057   9.840  34.165  1.00  0.00     0.030 A 
HETATM   21  C8  UNK     1      14.264  10.228  33.060  1.00  0.00     0.029 A 
HETATM   22  C13 UNK     1      13.265  11.193  33.187  1.00  0.00     0.002 A 
HETATM   23  C16 UNK     1      13.032  11.800  34.422  1.00  0.00     0.000 A 
HETATM   24  C14 UNK     1      13.798  11.439  35.531  1.00  0.00     0.002 A 
HETATM   25  C9  UNK     1      14.796  10.473  35.404  1.00  0.00     0.029 A 
ENDBRANCH   2  20
TORSDOF 2
ENDMDL
MODEL 10
REMARK VINA RESULT:      -7.9      5.195     10.715
REMARK  2 active torsions:
REMARK  status: ('A' for Active; 'I' for Inactive)
REMARK    1  A    between atoms: C5_10  and  N1_4 
REMARK       I    between atoms: C6_11  and  N2_5 
REMARK    2  A    between atoms: C6_11  and  C7_12 
ROOT
HETATM    1  O1  UNK     1      16.550   7.747  11.204  1.00  0.00    -0.267 OA
HETATM    2  N1  UNK     1      12.416   7.119   8.366  1.00  0.00    -0.378 N 
HETATM    3  N2  UNK     1      14.885   7.996   9.597  1.00  0.00    -0.345 N 
HETATM    4  C1  UNK     1      12.826   6.629   9.684  1.00  0.00     0.143 C 
HETATM    5  C2  UNK     1      13.353   7.964   7.620  1.00  0.00     0.143 C 
HETATM    6  C3  UNK     1      14.348   6.656   9.822  1.00  0.00     0.146 C 
HETATM    7  C4  UNK     1      14.209   8.800   8.574  1.00  0.00     0.146 C 
HETATM    8  C6  UNK     1      15.981   8.422  10.345  1.00  0.00     0.260 C 
ENDROOT
BRANCH   8   9
HETATM    9  C7  UNK     1      16.483   9.788  10.090  1.00  0.00     0.108 A 
HETATM   10  C10 UNK     1      17.455   9.902   9.178  1.00  0.00     0.037 A 
HETATM   11  C12 UNK     1      18.013  11.206   8.860  1.00  0.00    -0.001 A 
HETATM   12  C15 UNK     1      17.520  12.328   9.517  1.00  0.00     0.089 A 
HETATM   13  C17 UNK     1      19.029  11.371   7.914  1.00  0.00     0.014 A 
HETATM   14  O2  UNK     1      16.496  12.203  10.476  1.00  0.00    -0.274 OA
HETATM   15  C18 UNK     1      18.012  13.606   9.258  1.00  0.00     0.038 A 
HETATM   16  C11 UNK     1      15.943  10.968  10.802  1.00  0.00     0.304 A 
HETATM   17  O3  UNK     1      15.052  10.868  11.640  1.00  0.00    -0.259 OA
HETATM   18  C20 UNK     1      19.024  13.762   8.314  1.00  0.00     0.003 A 
HETATM   19  C19 UNK     1      19.532  12.647   7.644  1.00  0.00     0.001 A 
ENDBRANCH   8   9
BRANCH   2  20
HETATM   20  C5  UNK     1      11.196   6.734   7.816  1.00  0.00     0.030 A 
HETATM   21  C8  UNK     1      11.050   6.520   6.425  1.00  0.00     0.029 A 
HETATM   22  C13 UNK     1       9.828   6.134   5.874  1.00  0.00     0.002 A 
HETATM   23  C16 UNK     1       8.716   5.952   6.699  1.00  0.00     0.000 A 
HETATM   24  C14 UNK     1       8.829   6.155   8.075  1.00  0.00     0.002 A 
HETATM   25  C9  UNK     1      10.050   6.541   8.625  1.00  0.00     0.029 A 
ENDBRANCH   2  20
TORSDOF 2
ENDMDL
