MODEL 1
REMARK VINA RESULT:     -10.2      0.000      0.000
REMARK  4 active torsions:
REMARK  status: ('A' for Active; 'I' for Inactive)
REMARK    1  A    between atoms: C5_12  and  N1_5 
REMARK    2  A    between atoms: C6_13  and  N2_6 
REMARK    3  A    between atoms: C6_13  and  N3_7 
REMARK    4  A    between atoms: C9_16  and  N3_7 
ROOT
HETATM    1  S1  UNK     1      18.293  -1.699  37.989  1.00  0.00    -0.041 SA
HETATM    2  C6  UNK     1      18.686  -2.543  36.594  1.00  0.00     0.174 C 
ENDROOT
BRANCH   2   3
HETATM    3  N2  UNK     1      19.156  -1.880  35.510  1.00  0.00    -0.355 N 
HETATM    4  C3  UNK     1      20.449  -2.191  34.917  1.00  0.00     0.145 C 
HETATM    5  C1  UNK     1      20.312  -2.418  33.414  1.00  0.00     0.143 C 
HETATM    6  N1  UNK     1      19.571  -1.307  32.793  1.00  0.00    -0.376 N 
HETATM    7  C2  UNK     1      18.273  -0.981  33.402  1.00  0.00     0.143 C 
HETATM    8  C4  UNK     1      18.430  -0.775  34.908  1.00  0.00     0.145 C 
BRANCH   6   9
HETATM    9  C5  UNK     1      19.773  -1.074  31.427  1.00  0.00     0.052 A 
HETATM   10  C7  UNK     1      19.521   0.179  30.817  1.00  0.00     0.060 A 
HETATM   11  C10 UNK     1      19.733   0.380  29.452  1.00  0.00     0.026 A 
HETATM   12 Cl1  UNK     1      18.940   1.502  31.763  1.00  0.00    -0.082 Cl
HETATM   13  C16 UNK     1      20.204  -0.666  28.658  1.00  0.00     0.002 A 
HETATM   14  C11 UNK     1      20.460  -1.913  29.228  1.00  0.00     0.002 A 
HETATM   15  C8  UNK     1      20.249  -2.114  30.592  1.00  0.00     0.031 A 
ENDBRANCH   6   9
ENDBRANCH   2   3
BRANCH   2  16
HETATM   16  N3  UNK     1      18.588  -3.924  36.553  1.00  0.00    -0.333 N 
HETATM   17  H10 UNK     1      17.662  -4.270  36.306  1.00  0.00     0.168 HD
BRANCH  16  18
HETATM   18  C9  UNK     1      19.529  -4.930  36.772  1.00  0.00     0.036 A 
HETATM   19  C12 UNK     1      19.624  -6.001  35.888  1.00  0.00     0.067 A 
HETATM   20  C14 UNK     1      20.573  -6.997  36.126  1.00  0.00     0.092 A 
HETATM   21  C13 UNK     1      21.435  -6.960  37.223  1.00  0.00     0.004 A 
HETATM   22  O1  UNK     1      20.622  -8.055  35.196  1.00  0.00    -0.275 OA
HETATM   23  C17 UNK     1      21.324  -5.873  38.100  1.00  0.00     0.017 A 
HETATM   24  C18 UNK     1      22.403  -8.051  37.394  1.00  0.00    -0.043 A 
HETATM   25  C15 UNK     1      20.377  -4.866  37.876  1.00  0.00     0.030 A 
HETATM   26  C19 UNK     1      22.427  -9.045  36.494  1.00  0.00     0.090 A 
HETATM   27  C20 UNK     1      23.345  -8.040  38.563  1.00  0.00     0.049 C 
HETATM   28  C21 UNK     1      21.525  -9.098  35.332  1.00  0.00     0.288 A 
HETATM   29  O2  UNK     1      21.576 -10.023  34.529  1.00  0.00    -0.260 OA
ENDBRANCH  16  18
ENDBRANCH   2  16
TORSDOF 4
ENDMDL
MODEL 2
REMARK VINA RESULT:      -9.9      1.582      1.640
REMARK  4 active torsions:
REMARK  status: ('A' for Active; 'I' for Inactive)
REMARK    1  A    between atoms: C5_12  and  N1_5 
REMARK    2  A    between atoms: C6_13  and  N2_6 
REMARK    3  A    between atoms: C6_13  and  N3_7 
REMARK    4  A    between atoms: C9_16  and  N3_7 
ROOT
HETATM    1  S1  UNK     1      18.314  -1.736  37.977  1.00  0.00    -0.041 SA
HETATM    2  C6  UNK     1      18.718  -2.566  36.577  1.00  0.00     0.174 C 
ENDROOT
BRANCH   2   3
HETATM    3  N2  UNK     1      19.173  -1.889  35.495  1.00  0.00    -0.355 N 
HETATM    4  C3  UNK     1      20.462  -2.183  34.888  1.00  0.00     0.145 C 
HETATM    5  C1  UNK     1      20.314  -2.398  33.384  1.00  0.00     0.143 C 
HETATM    6  N1  UNK     1      19.559  -1.287  32.780  1.00  0.00    -0.376 N 
HETATM    7  C2  UNK     1      18.264  -0.977  33.403  1.00  0.00     0.143 C 
HETATM    8  C4  UNK     1      18.432  -0.784  34.910  1.00  0.00     0.145 C 
BRANCH   6   9
HETATM    9  C5  UNK     1      19.746  -1.040  31.415  1.00  0.00     0.052 A 
HETATM   10  C7  UNK     1      19.490   0.221  30.820  1.00  0.00     0.060 A 
HETATM   11  C10 UNK     1      19.688   0.436  29.456  1.00  0.00     0.026 A 
HETATM   12 Cl1  UNK     1      18.922   1.534  31.787  1.00  0.00    -0.082 Cl
HETATM   13  C16 UNK     1      20.148  -0.603  28.646  1.00  0.00     0.002 A 
HETATM   14  C11 UNK     1      20.408  -1.856  29.199  1.00  0.00     0.002 A 
HETATM   15  C8  UNK     1      20.211  -2.071  30.563  1.00  0.00     0.031 A 
ENDBRANCH   6   9
ENDBRANCH   2   3
BRANCH   2  16
HETATM   16  N3  UNK     1      18.645  -3.948  36.530  1.00  0.00    -0.333 N 
HETATM   17  H10 UNK     1      17.919  -4.307  35.912  1.00  0.00     0.168 HD
BRANCH  16  18
HETATM   18  C9  UNK     1      19.395  -4.941  37.159  1.00  0.00     0.036 A 
HETATM   19  C12 UNK     1      18.855  -6.209  37.350  1.00  0.00     0.067 A 
HETATM   20  C14 UNK     1      19.623  -7.188  37.982  1.00  0.00     0.092 A 
HETATM   21  C13 UNK     1      20.921  -6.943  38.433  1.00  0.00     0.004 A 
HETATM   22  O1  UNK     1      19.022  -8.452  38.146  1.00  0.00    -0.275 OA
HETATM   23  C17 UNK     1      21.447  -5.660  38.230  1.00  0.00     0.017 A 
HETATM   24  C18 UNK     1      21.657  -8.033  39.087  1.00  0.00    -0.043 A 
HETATM   25  C15 UNK     1      20.690  -4.667  37.599  1.00  0.00     0.030 A 
HETATM   26  C19 UNK     1      21.060  -9.225  39.230  1.00  0.00     0.090 A 
HETATM   27  C20 UNK     1      23.055  -7.801  39.582  1.00  0.00     0.049 C 
HETATM   28  C21 UNK     1      19.692  -9.499  38.760  1.00  0.00     0.288 A 
HETATM   29  O2  UNK     1      19.178 -10.603  38.908  1.00  0.00    -0.260 OA
ENDBRANCH  16  18
ENDBRANCH   2  16
TORSDOF 4
ENDMDL
MODEL 3
REMARK VINA RESULT:      -9.7      1.848      2.196
REMARK  4 active torsions:
REMARK  status: ('A' for Active; 'I' for Inactive)
REMARK    1  A    between atoms: C5_12  and  N1_5 
REMARK    2  A    between atoms: C6_13  and  N2_6 
REMARK    3  A    between atoms: C6_13  and  N3_7 
REMARK    4  A    between atoms: C9_16  and  N3_7 
ROOT
HETATM    1  S1  UNK     1      18.253  -1.674  37.970  1.00  0.00    -0.041 SA
HETATM    2  C6  UNK     1      18.642  -2.505  36.566  1.00  0.00     0.174 C 
ENDROOT
BRANCH   2   3
HETATM    3  N2  UNK     1      19.096  -1.830  35.482  1.00  0.00    -0.355 N 
HETATM    4  C3  UNK     1      20.410  -2.085  34.910  1.00  0.00     0.145 C 
HETATM    5  C1  UNK     1      20.305  -2.331  33.407  1.00  0.00     0.143 C 
HETATM    6  N1  UNK     1      19.522  -1.261  32.766  1.00  0.00    -0.376 N 
HETATM    7  C2  UNK     1      18.202  -0.990  33.354  1.00  0.00     0.143 C 
HETATM    8  C4  UNK     1      18.328  -0.765  34.861  1.00  0.00     0.145 C 
BRANCH   6   9
HETATM    9  C5  UNK     1      19.731  -1.031  31.401  1.00  0.00     0.052 A 
HETATM   10  C7  UNK     1      19.491   0.224  30.789  1.00  0.00     0.060 A 
HETATM   11  C10 UNK     1      19.710   0.423  29.425  1.00  0.00     0.026 A 
HETATM   12 Cl1  UNK     1      18.914   1.552  31.731  1.00  0.00    -0.082 Cl
HETATM   13  C16 UNK     1      20.177  -0.627  28.634  1.00  0.00     0.002 A 
HETATM   14  C11 UNK     1      20.423  -1.876  29.205  1.00  0.00     0.002 A 
HETATM   15  C8  UNK     1      20.204  -2.074  30.569  1.00  0.00     0.031 A 
ENDBRANCH   6   9
ENDBRANCH   2   3
BRANCH   2  16
HETATM   16  N3  UNK     1      18.558  -3.886  36.517  1.00  0.00    -0.333 N 
HETATM   17  H10 UNK     1      17.828  -4.238  35.900  1.00  0.00     0.168 HD
BRANCH  16  18
HETATM   18  C9  UNK     1      19.301  -4.887  37.144  1.00  0.00     0.036 A 
HETATM   19  C12 UNK     1      20.652  -4.688  37.415  1.00  0.00     0.067 A 
HETATM   20  C14 UNK     1      21.376  -5.703  38.042  1.00  0.00     0.092 A 
HETATM   21  C13 UNK     1      20.795  -6.917  38.412  1.00  0.00     0.004 A 
HETATM   22  O1  UNK     1      22.739  -5.442  38.291  1.00  0.00    -0.275 OA
HETATM   23  C17 UNK     1      19.433  -7.097  38.131  1.00  0.00     0.017 A 
HETATM   24  C18 UNK     1      21.633  -7.927  39.069  1.00  0.00    -0.043 A 
HETATM   25  C15 UNK     1      18.693  -6.089  37.502  1.00  0.00     0.030 A 
HETATM   26  C19 UNK     1      22.926  -7.653  39.292  1.00  0.00     0.090 A 
HETATM   27  C20 UNK     1      21.037  -9.243  39.479  1.00  0.00     0.049 C 
HETATM   28  C21 UNK     1      23.554  -6.378  38.909  1.00  0.00     0.288 A 
HETATM   29  O2  UNK     1      24.741  -6.162  39.130  1.00  0.00    -0.260 OA
ENDBRANCH  16  18
ENDBRANCH   2  16
TORSDOF 4
ENDMDL
MODEL 4
REMARK VINA RESULT:      -9.6      7.938     10.830
REMARK  4 active torsions:
REMARK  status: ('A' for Active; 'I' for Inactive)
REMARK    1  A    between atoms: C5_12  and  N1_5 
REMARK    2  A    between atoms: C6_13  and  N2_6 
REMARK    3  A    between atoms: C6_13  and  N3_7 
REMARK    4  A    between atoms: C9_16  and  N3_7 
ROOT
HETATM    1  S1  UNK     1      19.560   5.893  31.776  1.00  0.00    -0.041 SA
HETATM    2  C6  UNK     1      17.989   5.430  32.139  1.00  0.00     0.174 C 
ENDROOT
BRANCH   2   3
HETATM    3  N2  UNK     1      17.175   6.270  32.822  1.00  0.00    -0.355 N 
HETATM    4  C3  UNK     1      17.302   6.469  34.258  1.00  0.00     0.145 C 
HETATM    5  C1  UNK     1      17.381   7.956  34.593  1.00  0.00     0.143 C 
HETATM    6  N1  UNK     1      16.282   8.687  33.938  1.00  0.00    -0.376 N 
HETATM    7  C2  UNK     1      16.142   8.474  32.490  1.00  0.00     0.143 C 
HETATM    8  C4  UNK     1      16.083   6.979  32.176  1.00  0.00     0.145 C 
BRANCH   6   9
HETATM    9  C5  UNK     1      15.889   9.908  34.499  1.00  0.00     0.052 A 
HETATM   10  C7  UNK     1      16.734  11.045  34.531  1.00  0.00     0.060 A 
HETATM   11  C10 UNK     1      16.313  12.249  35.097  1.00  0.00     0.026 A 
HETATM   12 Cl1  UNK     1      18.323  10.963  33.858  1.00  0.00    -0.082 Cl
HETATM   13  C16 UNK     1      15.036  12.352  35.648  1.00  0.00     0.002 A 
HETATM   14  C11 UNK     1      14.180  11.251  35.634  1.00  0.00     0.002 A 
HETATM   15  C8  UNK     1      14.600  10.047  35.067  1.00  0.00     0.031 A 
ENDBRANCH   6   9
ENDBRANCH   2   3
BRANCH   2  16
HETATM   16  N3  UNK     1      17.492   4.215  31.698  1.00  0.00    -0.333 N 
HETATM   17  H10 UNK     1      16.477   4.178  31.633  1.00  0.00     0.168 HD
BRANCH  16  18
HETATM   18  C9  UNK     1      18.127   3.035  31.310  1.00  0.00     0.036 A 
HETATM   19  C12 UNK     1      18.362   2.029  32.241  1.00  0.00     0.067 A 
HETATM   20  C14 UNK     1      18.999   0.857  31.831  1.00  0.00     0.092 A 
HETATM   21  C13 UNK     1      19.412   0.654  30.513  1.00  0.00     0.004 A 
HETATM   22  O1  UNK     1      19.208  -0.126  32.819  1.00  0.00    -0.275 OA
HETATM   23  C17 UNK     1      19.166   1.679  29.590  1.00  0.00     0.017 A 
HETATM   24  C18 UNK     1      20.075  -0.612  30.170  1.00  0.00    -0.043 A 
HETATM   25  C15 UNK     1      18.529   2.861  29.986  1.00  0.00     0.030 A 
HETATM   26  C19 UNK     1      20.260  -1.528  31.131  1.00  0.00     0.090 A 
HETATM   27  C20 UNK     1      20.530  -0.860  28.761  1.00  0.00     0.049 C 
HETATM   28  C21 UNK     1      19.830  -1.330  32.524  1.00  0.00     0.288 A 
HETATM   29  O2  UNK     1      20.017  -2.191  33.377  1.00  0.00    -0.260 OA
ENDBRANCH  16  18
ENDBRANCH   2  16
TORSDOF 4
ENDMDL
MODEL 5
REMARK VINA RESULT:      -9.3      8.342     10.880
REMARK  4 active torsions:
REMARK  status: ('A' for Active; 'I' for Inactive)
REMARK    1  A    between atoms: C5_12  and  N1_5 
REMARK    2  A    between atoms: C6_13  and  N2_6 
REMARK    3  A    between atoms: C6_13  and  N3_7 
REMARK    4  A    between atoms: C9_16  and  N3_7 
ROOT
HETATM    1  S1  UNK     1      19.605   5.886  31.132  1.00  0.00    -0.041 SA
HETATM    2  C6  UNK     1      18.257   5.578  32.082  1.00  0.00     0.174 C 
ENDROOT
BRANCH   2   3
HETATM    3  N2  UNK     1      17.740   6.558  32.862  1.00  0.00    -0.355 N 
HETATM    4  C3  UNK     1      18.412   7.018  34.069  1.00  0.00     0.145 C 
HETATM    5  C1  UNK     1      18.550   8.538  34.064  1.00  0.00     0.143 C 
HETATM    6  N1  UNK     1      17.251   9.169  33.772  1.00  0.00    -0.376 N 
HETATM    7  C2  UNK     1      16.563   8.693  32.563  1.00  0.00     0.143 C 
HETATM    8  C4  UNK     1      16.452   7.169  32.580  1.00  0.00     0.145 C 
BRANCH   6   9
HETATM    9  C5  UNK     1      17.056  10.485  34.206  1.00  0.00     0.052 A 
HETATM   10  C7  UNK     1      15.838  10.933  34.776  1.00  0.00     0.060 A 
HETATM   11  C10 UNK     1      15.675  12.253  35.201  1.00  0.00     0.026 A 
HETATM   12 Cl1  UNK     1      14.514   9.840  34.960  1.00  0.00    -0.082 Cl
HETATM   13  C16 UNK     1      16.724  13.163  35.068  1.00  0.00     0.002 A 
HETATM   14  C11 UNK     1      17.935  12.754  34.510  1.00  0.00     0.002 A 
HETATM   15  C8  UNK     1      18.099  11.435  34.087  1.00  0.00     0.031 A 
ENDBRANCH   6   9
ENDBRANCH   2   3
BRANCH   2  16
HETATM   16  N3  UNK     1      17.628   4.346  32.037  1.00  0.00    -0.333 N 
HETATM   17  H10 UNK     1      16.611   4.395  32.069  1.00  0.00     0.168 HD
BRANCH  16  18
HETATM   18  C9  UNK     1      18.130   3.048  31.938  1.00  0.00     0.036 A 
HETATM   19  C12 UNK     1      18.630   2.582  30.726  1.00  0.00     0.067 A 
HETATM   20  C14 UNK     1      19.127   1.280  30.650  1.00  0.00     0.092 A 
HETATM   21  C13 UNK     1      19.142   0.422  31.750  1.00  0.00     0.004 A 
HETATM   22  O1  UNK     1      19.619   0.867  29.396  1.00  0.00    -0.275 OA
HETATM   23  C17 UNK     1      18.636   0.910  32.962  1.00  0.00     0.017 A 
HETATM   24  C18 UNK     1      19.685  -0.932  31.578  1.00  0.00    -0.043 A 
HETATM   25  C15 UNK     1      18.133   2.213  33.055  1.00  0.00     0.030 A 
HETATM   26  C19 UNK     1      20.147  -1.299  30.374  1.00  0.00     0.090 A 
HETATM   27  C20 UNK     1      19.717  -1.879  32.743  1.00  0.00     0.049 C 
HETATM   28  C21 UNK     1      20.137  -0.405  29.205  1.00  0.00     0.288 A 
HETATM   29  O2  UNK     1      20.568  -0.776  28.118  1.00  0.00    -0.260 OA
ENDBRANCH  16  18
ENDBRANCH   2  16
TORSDOF 4
ENDMDL
MODEL 6
REMARK VINA RESULT:      -9.1      3.918      9.065
REMARK  4 active torsions:
REMARK  status: ('A' for Active; 'I' for Inactive)
REMARK    1  A    between atoms: C5_12  and  N1_5 
REMARK    2  A    between atoms: C6_13  and  N2_6 
REMARK    3  A    between atoms: C6_13  and  N3_7 
REMARK    4  A    between atoms: C9_16  and  N3_7 
ROOT
HETATM    1  S1  UNK     1      18.875  -1.738  36.507  1.00  0.00    -0.041 SA
HETATM    2  C6  UNK     1      19.619  -3.131  35.942  1.00  0.00     0.174 C 
ENDROOT
BRANCH   2   3
HETATM    3  N2  UNK     1      19.495  -4.292  36.631  1.00  0.00    -0.355 N 
HETATM    4  C3  UNK     1      18.303  -5.121  36.535  1.00  0.00     0.145 C 
HETATM    5  C1  UNK     1      18.677  -6.568  36.219  1.00  0.00     0.143 C 
HETATM    6  N1  UNK     1      19.717  -7.043  37.147  1.00  0.00    -0.376 N 
HETATM    7  C2  UNK     1      20.914  -6.196  37.257  1.00  0.00     0.143 C 
HETATM    8  C4  UNK     1      20.517  -4.751  37.556  1.00  0.00     0.145 C 
BRANCH   6   9
HETATM    9  C5  UNK     1      19.825  -8.424  37.350  1.00  0.00     0.052 A 
HETATM   10  C7  UNK     1      20.494  -9.283  36.444  1.00  0.00     0.060 A 
HETATM   11  C10 UNK     1      20.585 -10.656  36.675  1.00  0.00     0.026 A 
HETATM   12 Cl1  UNK     1      21.222  -8.639  35.016  1.00  0.00    -0.082 Cl
HETATM   13  C16 UNK     1      20.010 -11.211  37.818  1.00  0.00     0.002 A 
HETATM   14  C11 UNK     1      19.342 -10.393  38.730  1.00  0.00     0.002 A 
HETATM   15  C8  UNK     1      19.253  -9.019  38.500  1.00  0.00     0.031 A 
ENDBRANCH   6   9
ENDBRANCH   2   3
BRANCH   2  16
HETATM   16  N3  UNK     1      20.315  -3.124  34.746  1.00  0.00    -0.333 N 
HETATM   17  H10 UNK     1      21.055  -3.822  34.690  1.00  0.00     0.168 HD
BRANCH  16  18
HETATM   18  C9  UNK     1      20.180  -2.349  33.595  1.00  0.00     0.036 A 
HETATM   19  C12 UNK     1      19.433  -1.175  33.627  1.00  0.00     0.067 A 
HETATM   20  C14 UNK     1      19.311  -0.414  32.463  1.00  0.00     0.092 A 
HETATM   21  C13 UNK     1      19.912  -0.788  31.260  1.00  0.00     0.004 A 
HETATM   22  O1  UNK     1      18.543   0.764  32.558  1.00  0.00    -0.275 OA
HETATM   23  C17 UNK     1      20.660  -1.973  31.248  1.00  0.00     0.017 A 
HETATM   24  C18 UNK     1      19.730   0.074  30.085  1.00  0.00    -0.043 A 
HETATM   25  C15 UNK     1      20.792  -2.747  32.407  1.00  0.00     0.030 A 
HETATM   26  C19 UNK     1      18.995   1.189  30.204  1.00  0.00     0.090 A 
HETATM   27  C20 UNK     1      20.365  -0.300  28.777  1.00  0.00     0.049 C 
HETATM   28  C21 UNK     1      18.354   1.596  31.465  1.00  0.00     0.288 A 
HETATM   29  O2  UNK     1      17.688   2.624  31.537  1.00  0.00    -0.260 OA
ENDBRANCH  16  18
ENDBRANCH   2  16
TORSDOF 4
ENDMDL
MODEL 7
REMARK VINA RESULT:      -9.1     10.669     12.596
REMARK  4 active torsions:
REMARK  status: ('A' for Active; 'I' for Inactive)
REMARK    1  A    between atoms: C5_12  and  N1_5 
REMARK    2  A    between atoms: C6_13  and  N2_6 
REMARK    3  A    between atoms: C6_13  and  N3_7 
REMARK    4  A    between atoms: C9_16  and  N3_7 
ROOT
HETATM    1  S1  UNK     1      36.649  -7.288  34.953  1.00  0.00    -0.041 SA
HETATM    2  C6  UNK     1      35.010  -7.166  35.287  1.00  0.00     0.174 C 
ENDROOT
BRANCH   2   3
HETATM    3  N2  UNK     1      34.131  -6.916  34.287  1.00  0.00    -0.355 N 
HETATM    4  C3  UNK     1      33.635  -7.970  33.415  1.00  0.00     0.145 C 
HETATM    5  C1  UNK     1      32.110  -7.942  33.348  1.00  0.00     0.143 C 
HETATM    6  N1  UNK     1      31.636  -6.581  33.044  1.00  0.00    -0.376 N 
HETATM    7  C2  UNK     1      32.150  -5.513  33.913  1.00  0.00     0.143 C 
HETATM    8  C4  UNK     1      33.675  -5.570  33.980  1.00  0.00     0.145 C 
BRANCH   6   9
HETATM    9  C5  UNK     1      30.370  -6.450  32.460  1.00  0.00     0.052 A 
HETATM   10  C7  UNK     1      29.174  -6.414  33.220  1.00  0.00     0.060 A 
HETATM   11  C10 UNK     1      27.927  -6.281  32.608  1.00  0.00     0.026 A 
HETATM   12 Cl1  UNK     1      29.238  -6.534  34.942  1.00  0.00    -0.082 Cl
HETATM   13  C16 UNK     1      27.838  -6.181  31.220  1.00  0.00     0.002 A 
HETATM   14  C11 UNK     1      28.996  -6.214  30.443  1.00  0.00     0.002 A 
HETATM   15  C8  UNK     1      30.243  -6.345  31.054  1.00  0.00     0.031 A 
ENDBRANCH   6   9
ENDBRANCH   2   3
BRANCH   2  16
HETATM   16  N3  UNK     1      34.534  -7.375  36.571  1.00  0.00    -0.333 N 
HETATM   17  H10 UNK     1      35.256  -7.607  37.251  1.00  0.00     0.168 HD
BRANCH  16  18
HETATM   18  C9  UNK     1      33.249  -7.308  37.109  1.00  0.00     0.036 A 
HETATM   19  C12 UNK     1      32.776  -6.113  37.641  1.00  0.00     0.067 A 
HETATM   20  C14 UNK     1      31.487  -6.069  38.174  1.00  0.00     0.092 A 
HETATM   21  C13 UNK     1      30.649  -7.185  38.195  1.00  0.00     0.004 A 
HETATM   22  O1  UNK     1      31.063  -4.830  38.697  1.00  0.00    -0.275 OA
HETATM   23  C17 UNK     1      31.144  -8.379  37.654  1.00  0.00     0.017 A 
HETATM   24  C18 UNK     1      29.307  -7.046  38.776  1.00  0.00    -0.043 A 
HETATM   25  C15 UNK     1      32.434  -8.439  37.115  1.00  0.00     0.030 A 
HETATM   26  C19 UNK     1      28.931  -5.857  39.266  1.00  0.00     0.090 A 
HETATM   27  C20 UNK     1      28.381  -8.229  38.812  1.00  0.00     0.049 C 
HETATM   28  C21 UNK     1      29.802  -4.671  39.252  1.00  0.00     0.288 A 
HETATM   29  O2  UNK     1      29.424  -3.598  39.710  1.00  0.00    -0.260 OA
ENDBRANCH  16  18
ENDBRANCH   2  16
TORSDOF 4
ENDMDL
MODEL 8
REMARK VINA RESULT:      -8.9      9.544     11.381
REMARK  4 active torsions:
REMARK  status: ('A' for Active; 'I' for Inactive)
REMARK    1  A    between atoms: C5_12  and  N1_5 
REMARK    2  A    between atoms: C6_13  and  N2_6 
REMARK    3  A    between atoms: C6_13  and  N3_7 
REMARK    4  A    between atoms: C9_16  and  N3_7 
ROOT
HETATM    1  S1  UNK     1      35.477  -5.853  36.328  1.00  0.00    -0.041 SA
HETATM    2  C6  UNK     1      33.800  -5.867  36.307  1.00  0.00     0.174 C 
ENDROOT
BRANCH   2   3
HETATM    3  N2  UNK     1      33.136  -5.855  35.126  1.00  0.00    -0.355 N 
HETATM    4  C3  UNK     1      33.008  -7.049  34.302  1.00  0.00     0.145 C 
HETATM    5  C1  UNK     1      31.548  -7.287  33.922  1.00  0.00     0.143 C 
HETATM    6  N1  UNK     1      30.956  -6.058  33.368  1.00  0.00    -0.376 N 
HETATM    7  C2  UNK     1      31.100  -4.848  34.191  1.00  0.00     0.143 C 
HETATM    8  C4  UNK     1      32.565  -4.638  34.574  1.00  0.00     0.145 C 
BRANCH   6   9
HETATM    9  C5  UNK     1      29.845  -6.194  32.527  1.00  0.00     0.052 A 
HETATM   10  C7  UNK     1      28.545  -6.479  33.012  1.00  0.00     0.060 A 
HETATM   11  C10 UNK     1      27.457  -6.608  32.147  1.00  0.00     0.026 A 
HETATM   12 Cl1  UNK     1      28.276  -6.672  34.707  1.00  0.00    -0.082 Cl
HETATM   13  C16 UNK     1      27.638  -6.457  30.772  1.00  0.00     0.002 A 
HETATM   14  C11 UNK     1      28.905  -6.178  30.262  1.00  0.00     0.002 A 
HETATM   15  C8  UNK     1      29.993  -6.047  31.126  1.00  0.00     0.031 A 
ENDBRANCH   6   9
ENDBRANCH   2   3
BRANCH   2  16
HETATM   16  N3  UNK     1      33.080  -5.947  37.487  1.00  0.00    -0.333 N 
HETATM   17  H10 UNK     1      33.544  -5.522  38.289  1.00  0.00     0.168 HD
BRANCH  16  18
HETATM   18  C9  UNK     1      31.827  -6.486  37.779  1.00  0.00     0.036 A 
HETATM   19  C12 UNK     1      30.721  -5.652  37.912  1.00  0.00     0.067 A 
HETATM   20  C14 UNK     1      29.477  -6.214  38.204  1.00  0.00     0.092 A 
HETATM   21  C13 UNK     1      29.298  -7.588  38.368  1.00  0.00     0.004 A 
HETATM   22  O1  UNK     1      28.396  -5.319  38.327  1.00  0.00    -0.275 OA
HETATM   23  C17 UNK     1      30.424  -8.411  38.228  1.00  0.00     0.017 A 
HETATM   24  C18 UNK     1      27.952  -8.091  38.673  1.00  0.00    -0.043 A 
HETATM   25  C15 UNK     1      31.679  -7.864  37.936  1.00  0.00     0.030 A 
HETATM   26  C19 UNK     1      26.942  -7.217  38.784  1.00  0.00     0.090 A 
HETATM   27  C20 UNK     1      27.728  -9.565  38.853  1.00  0.00     0.049 C 
HETATM   28  C21 UNK     1      27.115  -5.765  38.614  1.00  0.00     0.288 A 
HETATM   29  O2  UNK     1      26.167  -4.995  38.724  1.00  0.00    -0.260 OA
ENDBRANCH  16  18
ENDBRANCH   2  16
TORSDOF 4
ENDMDL
MODEL 9
REMARK VINA RESULT:      -8.9     10.172     12.831
REMARK  4 active torsions:
REMARK  status: ('A' for Active; 'I' for Inactive)
REMARK    1  A    between atoms: C5_12  and  N1_5 
REMARK    2  A    between atoms: C6_13  and  N2_6 
REMARK    3  A    between atoms: C6_13  and  N3_7 
REMARK    4  A    between atoms: C9_16  and  N3_7 
ROOT
HETATM    1  S1  UNK     1      33.391  -4.479  34.718  1.00  0.00    -0.041 SA
HETATM    2  C6  UNK     1      31.875  -5.195  34.665  1.00  0.00     0.174 C 
ENDROOT
BRANCH   2   3
HETATM    3  N2  UNK     1      31.455  -5.971  35.694  1.00  0.00    -0.355 N 
HETATM    4  C3  UNK     1      30.982  -5.401  36.946  1.00  0.00     0.145 C 
HETATM    5  C1  UNK     1      29.624  -5.987  37.327  1.00  0.00     0.143 C 
HETATM    6  N1  UNK     1      29.666  -7.458  37.266  1.00  0.00    -0.376 N 
HETATM    7  C2  UNK     1      30.162  -8.035  36.008  1.00  0.00     0.143 C 
HETATM    8  C4  UNK     1      31.512  -7.422  35.637  1.00  0.00     0.145 C 
BRANCH   6   9
HETATM    9  C5  UNK     1      28.734  -8.167  38.033  1.00  0.00     0.052 A 
HETATM   10  C7  UNK     1      29.051  -9.373  38.706  1.00  0.00     0.060 A 
HETATM   11  C10 UNK     1      28.099 -10.056  39.464  1.00  0.00     0.026 A 
HETATM   12 Cl1  UNK     1      30.646 -10.029  38.601  1.00  0.00    -0.082 Cl
HETATM   13  C16 UNK     1      26.802  -9.554  39.571  1.00  0.00     0.002 A 
HETATM   14  C11 UNK     1      26.457  -8.370  38.920  1.00  0.00     0.002 A 
HETATM   15  C8  UNK     1      27.409  -7.686  38.163  1.00  0.00     0.031 A 
ENDBRANCH   6   9
ENDBRANCH   2   3
BRANCH   2  16
HETATM   16  N3  UNK     1      31.018  -4.957  33.604  1.00  0.00    -0.333 N 
HETATM   17  H10 UNK     1      30.759  -3.979  33.488  1.00  0.00     0.168 HD
BRANCH  16  18
HETATM   18  C9  UNK     1      30.457  -5.808  32.652  1.00  0.00     0.036 A 
HETATM   19  C12 UNK     1      31.233  -6.293  31.604  1.00  0.00     0.067 A 
HETATM   20  C14 UNK     1      30.650  -7.143  30.663  1.00  0.00     0.092 A 
HETATM   21  C13 UNK     1      29.311  -7.529  30.733  1.00  0.00     0.004 A 
HETATM   22  O1  UNK     1      31.487  -7.602  29.626  1.00  0.00    -0.275 OA
HETATM   23  C17 UNK     1      28.546  -7.031  31.797  1.00  0.00     0.017 A 
HETATM   24  C18 UNK     1      28.782  -8.428  29.699  1.00  0.00    -0.043 A 
HETATM   25  C15 UNK     1      29.115  -6.177  32.748  1.00  0.00     0.030 A 
HETATM   26  C19 UNK     1      29.600  -8.849  28.724  1.00  0.00     0.090 A 
HETATM   27  C20 UNK     1      27.345  -8.862  29.748  1.00  0.00     0.049 C 
HETATM   28  C21 UNK     1      31.015  -8.451  28.636  1.00  0.00     0.288 A 
HETATM   29  O2  UNK     1      31.734  -8.856  27.729  1.00  0.00    -0.260 OA
ENDBRANCH  16  18
ENDBRANCH   2  16
TORSDOF 4
ENDMDL
MODEL 10
REMARK VINA RESULT:      -8.8      4.052      9.215
REMARK  4 active torsions:
REMARK  status: ('A' for Active; 'I' for Inactive)
REMARK    1  A    between atoms: C5_12  and  N1_5 
REMARK    2  A    between atoms: C6_13  and  N2_6 
REMARK    3  A    between atoms: C6_13  and  N3_7 
REMARK    4  A    between atoms: C9_16  and  N3_7 
ROOT
HETATM    1  S1  UNK     1      21.391  -2.181  35.699  1.00  0.00    -0.041 SA
HETATM    2  C6  UNK     1      19.836  -2.756  35.952  1.00  0.00     0.174 C 
ENDROOT
BRANCH   2   3
HETATM    3  N2  UNK     1      19.643  -3.917  36.624  1.00  0.00    -0.355 N 
HETATM    4  C3  UNK     1      18.435  -4.711  36.460  1.00  0.00     0.145 C 
HETATM    5  C1  UNK     1      18.782  -6.165  36.152  1.00  0.00     0.143 C 
HETATM    6  N1  UNK     1      19.759  -6.676  37.130  1.00  0.00    -0.376 N 
HETATM    7  C2  UNK     1      20.972  -5.866  37.309  1.00  0.00     0.143 C 
HETATM    8  C4  UNK     1      20.602  -4.411  37.598  1.00  0.00     0.145 C 
BRANCH   6   9
HETATM    9  C5  UNK     1      19.816  -8.061  37.327  1.00  0.00     0.052 A 
HETATM   10  C7  UNK     1      20.398  -8.947  36.387  1.00  0.00     0.060 A 
HETATM   11  C10 UNK     1      20.440 -10.324  36.614  1.00  0.00     0.026 A 
HETATM   12 Cl1  UNK     1      21.077  -8.333  34.923  1.00  0.00    -0.082 Cl
HETATM   13  C16 UNK     1      19.902 -10.854  37.786  1.00  0.00     0.002 A 
HETATM   14  C11 UNK     1      19.321 -10.009  38.732  1.00  0.00     0.002 A 
HETATM   15  C8  UNK     1      19.279  -8.633  38.506  1.00  0.00     0.031 A 
ENDBRANCH   6   9
ENDBRANCH   2   3
BRANCH   2  16
HETATM   16  N3  UNK     1      18.737  -2.027  35.530  1.00  0.00    -0.333 N 
HETATM   17  H10 UNK     1      17.842  -2.417  35.820  1.00  0.00     0.168 HD
BRANCH  16  18
HETATM   18  C9  UNK     1      18.629  -0.846  34.796  1.00  0.00     0.036 A 
HETATM   19  C12 UNK     1      18.753  -0.872  33.410  1.00  0.00     0.067 A 
HETATM   20  C14 UNK     1      18.642   0.322  32.695  1.00  0.00     0.092 A 
HETATM   21  C13 UNK     1      18.410   1.548  33.320  1.00  0.00     0.004 A 
HETATM   22  O1  UNK     1      18.775   0.232  31.295  1.00  0.00    -0.275 OA
HETATM   23  C17 UNK     1      18.288   1.552  34.716  1.00  0.00     0.017 A 
HETATM   24  C18 UNK     1      18.306   2.754  32.488  1.00  0.00    -0.043 A 
HETATM   25  C15 UNK     1      18.397   0.364  35.448  1.00  0.00     0.030 A 
HETATM   26  C19 UNK     1      18.437   2.638  31.159  1.00  0.00     0.090 A 
HETATM   27  C20 UNK     1      18.056   4.087  33.131  1.00  0.00     0.049 C 
HETATM   28  C21 UNK     1      18.682   1.353  30.484  1.00  0.00     0.288 A 
HETATM   29  O2  UNK     1      18.797   1.286  29.265  1.00  0.00    -0.260 OA
ENDBRANCH  16  18
ENDBRANCH   2  16
TORSDOF 4
ENDMDL
