MODEL 1
REMARK VINA RESULT:      -8.2      0.000      0.000
REMARK  15 active torsions:
REMARK  status: ('A' for Active; 'I' for Inactive)
REMARK    1  A    between atoms: C1_16  and  O2_2 
REMARK    2  A    between atoms: C8_23  and  O2_2 
REMARK    3  A    between atoms: C2_17  and  O3_3 
REMARK    4  A    between atoms: C9_24  and  O3_3 
REMARK    5  A    between atoms: C10_25  and  O4_4 
REMARK    6  A    between atoms: C3_18  and  O4_4 
REMARK    7  A    between atoms: C5_20  and  O5_5 
REMARK    8  A    between atoms: C7_22  and  O5_5 
REMARK    9  A    between atoms: C15_30  and  O6_6 
REMARK   10  A    between atoms: C6_21  and  O6_6 
REMARK   11  A    between atoms: C18_33  and  O11_11 
REMARK   12  A    between atoms: C25_40  and  O11_11 
REMARK   13  A    between atoms: C31_46  and  O15_15 
REMARK   14  A    between atoms: C4_19  and  C6_21 
REMARK   15  A    between atoms: C22_37  and  C24_39 
ROOT
HETATM    1  O5  UNK     1      20.879  -6.252  12.338  1.00  0.00    -0.318 OA
ENDROOT
BRANCH   1   2
HETATM    2  C5  UNK     1      19.970  -6.081  13.422  1.00  0.00     0.299 C 
HETATM    3  C3  UNK     1      18.885  -5.047  13.097  1.00  0.00     0.219 C 
HETATM    4  C1  UNK     1      19.409  -3.608  13.191  1.00  0.00     0.198 C 
HETATM    5  C2  UNK     1      20.230  -3.382  14.465  1.00  0.00     0.195 C 
HETATM    6  C4  UNK     1      21.268  -4.496  14.666  1.00  0.00     0.181 C 
HETATM    7  O1  UNK     1      20.638  -5.780  14.651  1.00  0.00    -0.348 OA
BRANCH   3   8
HETATM    8  O4  UNK     1      17.818  -5.226  14.026  1.00  0.00    -0.308 OA
BRANCH   8   9
HETATM    9  C10 UNK     1      17.144  -6.409  13.932  1.00  0.00     0.255 C 
HETATM   10  O9  UNK     1      16.767  -6.946  12.899  1.00  0.00    -0.266 OA
HETATM   11  C16 UNK     1      16.925  -6.977  15.301  1.00  0.00     0.126 C 
ENDBRANCH   8   9
ENDBRANCH   3   8
BRANCH   4  12
HETATM   12  O2  UNK     1      20.242  -3.330  12.067  1.00  0.00    -0.311 OA
BRANCH  12  13
HETATM   13  C8  UNK     1      19.960  -2.177  11.393  1.00  0.00     0.255 C 
HETATM   14  C13 UNK     1      21.200  -1.344  11.273  1.00  0.00     0.126 C 
HETATM   15  O7  UNK     1      18.870  -1.850  10.944  1.00  0.00    -0.266 OA
ENDBRANCH  12  13
ENDBRANCH   4  12
BRANCH   5  16
HETATM   16  O3  UNK     1      19.353  -3.310  15.587  1.00  0.00    -0.311 OA
BRANCH  16  17
HETATM   17  C9  UNK     1      18.667  -2.138  15.727  1.00  0.00     0.255 C 
HETATM   18  C14 UNK     1      17.262  -2.422  16.166  1.00  0.00     0.126 C 
HETATM   19  O8  UNK     1      19.108  -1.014  15.530  1.00  0.00    -0.266 OA
ENDBRANCH  16  17
ENDBRANCH   5  16
BRANCH   6  20
HETATM   20  C6  UNK     1      22.003  -4.368  15.996  1.00  0.00     0.213 C 
BRANCH  20  21
HETATM   21  O6  UNK     1      23.209  -3.659  15.780  1.00  0.00    -0.319 OA
BRANCH  21  22
HETATM   22  C15 UNK     1      24.231  -3.933  16.650  1.00  0.00     0.254 C 
HETATM   23  O12 UNK     1      25.010  -4.873  16.567  1.00  0.00    -0.266 OA
HETATM   24  C20 UNK     1      24.269  -2.905  17.740  1.00  0.00     0.126 C 
ENDBRANCH  21  22
ENDBRANCH  20  21
ENDBRANCH   6  20
ENDBRANCH   1   2
BRANCH   1  25
HETATM   25  C7  UNK     1      21.349  -7.520  12.125  1.00  0.00     0.077 A 
HETATM   26  C11 UNK     1      20.712  -8.609  12.721  1.00  0.00     0.075 A 
HETATM   27  C17 UNK     1      21.191  -9.900  12.500  1.00  0.00     0.094 A 
HETATM   28  O10 UNK     1      20.525 -10.930  13.112  1.00  0.00    -0.321 OA
HETATM   29  C19 UNK     1      22.305 -10.101  11.685  1.00  0.00     0.083 A 
HETATM   30  C23 UNK     1      20.979 -12.206  12.886  1.00  0.00     0.159 A 
HETATM   31  C22 UNK     1      22.032 -12.565  12.135  1.00  0.00     0.048 A 
HETATM   32  C21 UNK     1      22.796 -11.475  11.468  1.00  0.00     0.200 A 
HETATM   33  O13 UNK     1      23.788 -11.693  10.784  1.00  0.00    -0.286 OA
HETATM   34  C18 UNK     1      22.946  -9.013  11.088  1.00  0.00     0.098 A 
HETATM   35  C12 UNK     1      22.464  -7.722  11.310  1.00  0.00     0.075 A 
BRANCH  31  36
HETATM   36  C24 UNK     1      22.392 -13.982  11.970  1.00  0.00    -0.020 A 
HETATM   37  C26 UNK     1      23.654 -14.431  12.360  1.00  0.00     0.015 A 
HETATM   38  C29 UNK     1      23.996 -15.774  12.203  1.00  0.00     0.037 A 
HETATM   39  C31 UNK     1      23.075 -16.669  11.657  1.00  0.00     0.068 A 
HETATM   40  C30 UNK     1      21.813 -16.220  11.267  1.00  0.00     0.037 A 
HETATM   41  C27 UNK     1      21.472 -14.877  11.424  1.00  0.00     0.015 A 
BRANCH  39  42
HETATM   42  O15 UNK     1      23.409 -17.980  11.504  1.00  0.00    -0.356 OA
HETATM   43  C32 UNK     1      22.375 -18.941  11.711  1.00  0.00     0.210 C 
ENDBRANCH  39  42
ENDBRANCH  31  36
BRANCH  34  44
HETATM   44  O11 UNK     1      24.038  -9.153  10.285  1.00  0.00    -0.278 OA
BRANCH  44  45
HETATM   45  C25 UNK     1      25.217  -8.614  10.823  1.00  0.00     0.260 C 
HETATM   46  O14 UNK     1      25.630  -8.789  11.962  1.00  0.00    -0.265 OA
HETATM   47  C28 UNK     1      25.915  -7.776   9.793  1.00  0.00     0.126 C 
ENDBRANCH  44  45
ENDBRANCH  34  44
ENDBRANCH   1  25
TORSDOF 15
ENDMDL
MODEL 2
REMARK VINA RESULT:      -8.0      3.573      5.779
REMARK  15 active torsions:
REMARK  status: ('A' for Active; 'I' for Inactive)
REMARK    1  A    between atoms: C1_16  and  O2_2 
REMARK    2  A    between atoms: C8_23  and  O2_2 
REMARK    3  A    between atoms: C2_17  and  O3_3 
REMARK    4  A    between atoms: C9_24  and  O3_3 
REMARK    5  A    between atoms: C10_25  and  O4_4 
REMARK    6  A    between atoms: C3_18  and  O4_4 
REMARK    7  A    between atoms: C5_20  and  O5_5 
REMARK    8  A    between atoms: C7_22  and  O5_5 
REMARK    9  A    between atoms: C15_30  and  O6_6 
REMARK   10  A    between atoms: C6_21  and  O6_6 
REMARK   11  A    between atoms: C18_33  and  O11_11 
REMARK   12  A    between atoms: C25_40  and  O11_11 
REMARK   13  A    between atoms: C31_46  and  O15_15 
REMARK   14  A    between atoms: C4_19  and  C6_21 
REMARK   15  A    between atoms: C22_37  and  C24_39 
ROOT
HETATM    1  O5  UNK     1      19.314  -7.589  12.967  1.00  0.00    -0.318 OA
ENDROOT
BRANCH   1   2
HETATM    2  C5  UNK     1      18.549  -6.409  12.734  1.00  0.00     0.299 C 
HETATM    3  C3  UNK     1      19.397  -5.141  12.895  1.00  0.00     0.219 C 
HETATM    4  C1  UNK     1      19.651  -4.796  14.368  1.00  0.00     0.198 C 
HETATM    5  C2  UNK     1      18.371  -4.890  15.205  1.00  0.00     0.195 C 
HETATM    6  C4  UNK     1      17.623  -6.205  14.936  1.00  0.00     0.181 C 
HETATM    7  O1  UNK     1      17.366  -6.361  13.537  1.00  0.00    -0.348 OA
BRANCH   3   8
HETATM    8  O4  UNK     1      18.699  -4.066  12.268  1.00  0.00    -0.308 OA
BRANCH   8   9
HETATM    9  C10 UNK     1      18.971  -3.877  10.944  1.00  0.00     0.255 C 
HETATM   10  O9  UNK     1      18.169  -3.956  10.023  1.00  0.00    -0.266 OA
HETATM   11  C16 UNK     1      20.422  -3.549  10.767  1.00  0.00     0.126 C 
ENDBRANCH   8   9
ENDBRANCH   3   8
BRANCH   4  12
HETATM   12  O2  UNK     1      20.609  -5.703  14.911  1.00  0.00    -0.311 OA
BRANCH  12  13
HETATM   13  C8  UNK     1      21.691  -5.129  15.515  1.00  0.00     0.255 C 
HETATM   14  C13 UNK     1      21.632  -3.640  15.351  1.00  0.00     0.126 C 
HETATM   15  O7  UNK     1      22.585  -5.718  16.107  1.00  0.00    -0.266 OA
ENDBRANCH  12  13
ENDBRANCH   4  12
BRANCH   5  16
HETATM   16  O3  UNK     1      17.533  -3.773  14.917  1.00  0.00    -0.311 OA
BRANCH  16  17
HETATM   17  C9  UNK     1      17.665  -2.704  15.757  1.00  0.00     0.255 C 
HETATM   18  C14 UNK     1      18.670  -1.742  15.198  1.00  0.00     0.126 C 
HETATM   19  O8  UNK     1      17.067  -2.535  16.810  1.00  0.00    -0.266 OA
ENDBRANCH  16  17
ENDBRANCH   5  16
BRANCH   6  20
HETATM   20  C6  UNK     1      16.278  -6.262  15.653  1.00  0.00     0.213 C 
BRANCH  20  21
HETATM   21  O6  UNK     1      16.391  -7.140  16.757  1.00  0.00    -0.319 OA
BRANCH  21  22
HETATM   22  C15 UNK     1      15.952  -6.652  17.960  1.00  0.00     0.254 C 
HETATM   23  O12 UNK     1      16.037  -7.223  19.039  1.00  0.00    -0.266 OA
HETATM   24  C20 UNK     1      15.339  -5.297  17.773  1.00  0.00     0.126 C 
ENDBRANCH  21  22
ENDBRANCH  20  21
ENDBRANCH   6  20
ENDBRANCH   1   2
BRANCH   1  25
HETATM   25  C7  UNK     1      20.357  -7.822  12.111  1.00  0.00     0.077 A 
HETATM   26  C11 UNK     1      21.595  -8.223  12.615  1.00  0.00     0.075 A 
HETATM   27  C17 UNK     1      22.655  -8.463  11.740  1.00  0.00     0.094 A 
HETATM   28  O10 UNK     1      23.847  -8.854  12.292  1.00  0.00    -0.321 OA
HETATM   29  C19 UNK     1      22.477  -8.303  10.366  1.00  0.00     0.083 A 
HETATM   30  C23 UNK     1      24.892  -9.109  11.438  1.00  0.00     0.159 A 
HETATM   31  C22 UNK     1      24.884  -9.000  10.101  1.00  0.00     0.048 A 
HETATM   32  C21 UNK     1      23.614  -8.558   9.461  1.00  0.00     0.200 A 
HETATM   33  O13 UNK     1      23.508  -8.400   8.252  1.00  0.00    -0.286 OA
HETATM   34  C18 UNK     1      21.239  -7.900   9.860  1.00  0.00     0.098 A 
HETATM   35  C12 UNK     1      20.180  -7.662  10.736  1.00  0.00     0.075 A 
BRANCH  31  36
HETATM   36  C24 UNK     1      26.081  -9.326   9.310  1.00  0.00    -0.020 A 
HETATM   37  C26 UNK     1      26.909  -8.303   8.844  1.00  0.00     0.015 A 
HETATM   38  C29 UNK     1      28.044  -8.611   8.094  1.00  0.00     0.037 A 
HETATM   39  C31 UNK     1      28.352  -9.942   7.811  1.00  0.00     0.068 A 
HETATM   40  C30 UNK     1      27.525 -10.964   8.277  1.00  0.00     0.037 A 
HETATM   41  C27 UNK     1      26.390 -10.656   9.026  1.00  0.00     0.015 A 
BRANCH  39  42
HETATM   42  O15 UNK     1      29.460 -10.243   7.079  1.00  0.00    -0.356 OA
HETATM   43  C32 UNK     1      29.894  -9.270   6.130  1.00  0.00     0.210 C 
ENDBRANCH  39  42
ENDBRANCH  31  36
BRANCH  34  44
HETATM   44  O11 UNK     1      21.012  -7.726   8.527  1.00  0.00    -0.278 OA
BRANCH  44  45
HETATM   45  C25 UNK     1      20.763  -6.394   8.158  1.00  0.00     0.260 C 
HETATM   46  O14 UNK     1      21.555  -5.465   8.253  1.00  0.00    -0.265 OA
HETATM   47  C28 UNK     1      19.368  -6.262   7.624  1.00  0.00     0.126 C 
ENDBRANCH  44  45
ENDBRANCH  34  44
ENDBRANCH   1  25
TORSDOF 15
ENDMDL
MODEL 3
REMARK VINA RESULT:      -7.8     20.186     25.109
REMARK  15 active torsions:
REMARK  status: ('A' for Active; 'I' for Inactive)
REMARK    1  A    between atoms: C1_16  and  O2_2 
REMARK    2  A    between atoms: C8_23  and  O2_2 
REMARK    3  A    between atoms: C2_17  and  O3_3 
REMARK    4  A    between atoms: C9_24  and  O3_3 
REMARK    5  A    between atoms: C10_25  and  O4_4 
REMARK    6  A    between atoms: C3_18  and  O4_4 
REMARK    7  A    between atoms: C5_20  and  O5_5 
REMARK    8  A    between atoms: C7_22  and  O5_5 
REMARK    9  A    between atoms: C15_30  and  O6_6 
REMARK   10  A    between atoms: C6_21  and  O6_6 
REMARK   11  A    between atoms: C18_33  and  O11_11 
REMARK   12  A    between atoms: C25_40  and  O11_11 
REMARK   13  A    between atoms: C31_46  and  O15_15 
REMARK   14  A    between atoms: C4_19  and  C6_21 
REMARK   15  A    between atoms: C22_37  and  C24_39 
ROOT
HETATM    1  O5  UNK     1      19.226  -3.997  37.095  1.00  0.00    -0.318 OA
ENDROOT
BRANCH   1   2
HETATM    2  C5  UNK     1      20.267  -4.928  36.813  1.00  0.00     0.299 C 
HETATM    3  C3  UNK     1      19.831  -5.973  35.779  1.00  0.00     0.219 C 
HETATM    4  C1  UNK     1      18.914  -7.043  36.387  1.00  0.00     0.198 C 
HETATM    5  C2  UNK     1      19.455  -7.566  37.722  1.00  0.00     0.195 C 
HETATM    6  C4  UNK     1      19.858  -6.411  38.651  1.00  0.00     0.181 C 
HETATM    7  O1  UNK     1      20.786  -5.540  37.998  1.00  0.00    -0.348 OA
BRANCH   3   8
HETATM    8  O4  UNK     1      21.007  -6.593  35.261  1.00  0.00    -0.308 OA
BRANCH   8   9
HETATM    9  C10 UNK     1      20.815  -7.431  34.200  1.00  0.00     0.255 C 
HETATM   10  O9  UNK     1      20.304  -7.134  33.128  1.00  0.00    -0.266 OA
HETATM   11  C16 UNK     1      21.332  -8.797  34.534  1.00  0.00     0.126 C 
ENDBRANCH   8   9
ENDBRANCH   3   8
BRANCH   4  12
HETATM   12  O2  UNK     1      17.620  -6.487  36.614  1.00  0.00    -0.311 OA
BRANCH  12  13
HETATM   13  C8  UNK     1      16.638  -6.911  35.765  1.00  0.00     0.255 C 
HETATM   14  C13 UNK     1      17.105  -8.119  35.012  1.00  0.00     0.126 C 
HETATM   15  O7  UNK     1      15.535  -6.400  35.625  1.00  0.00    -0.266 OA
ENDBRANCH  12  13
ENDBRANCH   4  12
BRANCH   5  16
HETATM   16  O3  UNK     1      20.568  -8.422  37.479  1.00  0.00    -0.311 OA
BRANCH  16  17
HETATM   17  C9  UNK     1      20.360  -9.748  37.735  1.00  0.00     0.255 C 
HETATM   18  C14 UNK     1      19.020  -9.935  38.381  1.00  0.00     0.126 C 
HETATM   19  O8  UNK     1      21.134 -10.662  37.487  1.00  0.00    -0.266 OA
ENDBRANCH  16  17
ENDBRANCH   5  16
BRANCH   6  20
HETATM   20  C6  UNK     1      20.526  -6.906  39.930  1.00  0.00     0.213 C 
BRANCH  20  21
HETATM   21  O6  UNK     1      21.925  -6.728  39.808  1.00  0.00    -0.319 OA
BRANCH  21  22
HETATM   22  C15 UNK     1      22.681  -7.869  39.835  1.00  0.00     0.254 C 
HETATM   23  O12 UNK     1      22.450  -8.867  40.506  1.00  0.00    -0.266 OA
HETATM   24  C20 UNK     1      23.856  -7.732  38.914  1.00  0.00     0.126 C 
ENDBRANCH  21  22
ENDBRANCH  20  21
ENDBRANCH   6  20
ENDBRANCH   1   2
BRANCH   1  25
HETATM   25  C7  UNK     1      19.136  -2.908  36.269  1.00  0.00     0.077 A 
HETATM   26  C11 UNK     1      18.664  -1.693  36.766  1.00  0.00     0.075 A 
HETATM   27  C17 UNK     1      18.577  -0.585  35.923  1.00  0.00     0.094 A 
HETATM   28  O10 UNK     1      18.106   0.581  36.467  1.00  0.00    -0.321 OA
HETATM   29  C19 UNK     1      18.961  -0.693  34.586  1.00  0.00     0.083 A 
HETATM   30  C23 UNK     1      18.032   1.682  35.648  1.00  0.00     0.159 A 
HETATM   31  C22 UNK     1      18.358   1.742  34.348  1.00  0.00     0.048 A 
HETATM   32  C21 UNK     1      18.856   0.491  33.712  1.00  0.00     0.200 A 
HETATM   33  O13 UNK     1      19.154   0.431  32.527  1.00  0.00    -0.286 OA
HETATM   34  C18 UNK     1      19.432  -1.909  34.086  1.00  0.00     0.098 A 
HETATM   35  C12 UNK     1      19.520  -3.016  34.931  1.00  0.00     0.075 A 
BRANCH  31  36
HETATM   36  C24 UNK     1      18.243   3.003  33.599  1.00  0.00    -0.020 A 
HETATM   37  C26 UNK     1      18.068   2.979  32.215  1.00  0.00     0.015 A 
HETATM   38  C29 UNK     1      17.959   4.174  31.505  1.00  0.00     0.037 A 
HETATM   39  C31 UNK     1      18.024   5.394  32.178  1.00  0.00     0.068 A 
HETATM   40  C30 UNK     1      18.199   5.418  33.562  1.00  0.00     0.037 A 
HETATM   41  C27 UNK     1      18.308   4.223  34.272  1.00  0.00     0.015 A 
BRANCH  39  42
HETATM   42  O15 UNK     1      17.918   6.561  31.485  1.00  0.00    -0.356 OA
HETATM   43  C32 UNK     1      17.048   7.557  32.021  1.00  0.00     0.210 C 
ENDBRANCH  39  42
ENDBRANCH  31  36
BRANCH  34  44
HETATM   44  O11 UNK     1      19.819  -2.070  32.788  1.00  0.00    -0.278 OA
BRANCH  44  45
HETATM   45  C25 UNK     1      21.150  -2.489  32.635  1.00  0.00     0.260 C 
HETATM   46  O14 UNK     1      22.113  -2.056  33.254  1.00  0.00    -0.265 OA
HETATM   47  C28 UNK     1      21.233  -3.559  31.587  1.00  0.00     0.126 C 
ENDBRANCH  44  45
ENDBRANCH  34  44
ENDBRANCH   1  25
TORSDOF 15
ENDMDL
MODEL 4
REMARK VINA RESULT:      -7.7     20.620     25.019
REMARK  15 active torsions:
REMARK  status: ('A' for Active; 'I' for Inactive)
REMARK    1  A    between atoms: C1_16  and  O2_2 
REMARK    2  A    between atoms: C8_23  and  O2_2 
REMARK    3  A    between atoms: C2_17  and  O3_3 
REMARK    4  A    between atoms: C9_24  and  O3_3 
REMARK    5  A    between atoms: C10_25  and  O4_4 
REMARK    6  A    between atoms: C3_18  and  O4_4 
REMARK    7  A    between atoms: C5_20  and  O5_5 
REMARK    8  A    between atoms: C7_22  and  O5_5 
REMARK    9  A    between atoms: C15_30  and  O6_6 
REMARK   10  A    between atoms: C6_21  and  O6_6 
REMARK   11  A    between atoms: C18_33  and  O11_11 
REMARK   12  A    between atoms: C25_40  and  O11_11 
REMARK   13  A    between atoms: C31_46  and  O15_15 
REMARK   14  A    between atoms: C4_19  and  C6_21 
REMARK   15  A    between atoms: C22_37  and  C24_39 
ROOT
HETATM    1  O5  UNK     1      31.411  -8.983  35.384  1.00  0.00    -0.318 OA
ENDROOT
BRANCH   1   2
HETATM    2  C5  UNK     1      31.983  -8.079  34.441  1.00  0.00     0.299 C 
HETATM    3  C3  UNK     1      31.138  -7.977  33.166  1.00  0.00     0.219 C 
HETATM    4  C1  UNK     1      31.322  -9.193  32.249  1.00  0.00     0.198 C 
HETATM    5  C2  UNK     1      32.799  -9.560  32.079  1.00  0.00     0.195 C 
HETATM    6  C4  UNK     1      33.520  -9.618  33.434  1.00  0.00     0.181 C 
HETATM    7  O1  UNK     1      33.349  -8.390  34.148  1.00  0.00    -0.348 OA
BRANCH   3   8
HETATM    8  O4  UNK     1      31.532  -6.794  32.473  1.00  0.00    -0.308 OA
BRANCH   8   9
HETATM    9  C10 UNK     1      30.551  -6.173  31.756  1.00  0.00     0.255 C 
HETATM   10  O9  UNK     1      30.579  -5.924  30.558  1.00  0.00    -0.266 OA
HETATM   11  C16 UNK     1      29.404  -5.832  32.657  1.00  0.00     0.126 C 
ENDBRANCH   8   9
ENDBRANCH   3   8
BRANCH   4  12
HETATM   12  O2  UNK     1      30.642 -10.316  32.806  1.00  0.00    -0.311 OA
BRANCH  12  13
HETATM   13  C8  UNK     1      30.505 -11.394  31.979  1.00  0.00     0.255 C 
HETATM   14  C13 UNK     1      30.869 -12.647  32.716  1.00  0.00     0.126 C 
HETATM   15  O7  UNK     1      30.140 -11.368  30.811  1.00  0.00    -0.266 OA
ENDBRANCH  12  13
ENDBRANCH   4  12
BRANCH   5  16
HETATM   16  O3  UNK     1      33.427  -8.611  31.220  1.00  0.00    -0.311 OA
BRANCH  16  17
HETATM   17  C9  UNK     1      33.295  -8.847  29.882  1.00  0.00     0.255 C 
HETATM   18  C14 UNK     1      33.400  -7.555  29.128  1.00  0.00     0.126 C 
HETATM   19  O8  UNK     1      33.116  -9.935  29.353  1.00  0.00    -0.266 OA
ENDBRANCH  16  17
ENDBRANCH   5  16
BRANCH   6  20
HETATM   20  C6  UNK     1      35.020  -9.846  33.281  1.00  0.00     0.213 C 
BRANCH  20  21
HETATM   21  O6  UNK     1      35.707  -8.850  34.017  1.00  0.00    -0.319 OA
BRANCH  21  22
HETATM   22  C15 UNK     1      36.585  -8.076  33.306  1.00  0.00     0.254 C 
HETATM   23  O12 UNK     1      36.687  -8.043  32.087  1.00  0.00    -0.266 OA
HETATM   24  C20 UNK     1      37.423  -7.257  34.241  1.00  0.00     0.126 C 
ENDBRANCH  21  22
ENDBRANCH  20  21
ENDBRANCH   6  20
ENDBRANCH   1   2
BRANCH   1  25
HETATM   25  C7  UNK     1      30.189  -8.642  35.897  1.00  0.00     0.077 A 
HETATM   26  C11 UNK     1      29.142  -9.564  35.874  1.00  0.00     0.075 A 
HETATM   27  C17 UNK     1      27.898  -9.215  36.400  1.00  0.00     0.094 A 
HETATM   28  O10 UNK     1      26.908 -10.162  36.350  1.00  0.00    -0.321 OA
HETATM   29  C19 UNK     1      27.702  -7.947  36.947  1.00  0.00     0.083 A 
HETATM   30  C23 UNK     1      25.684  -9.833  36.881  1.00  0.00     0.159 A 
HETATM   31  C22 UNK     1      25.336  -8.663  37.437  1.00  0.00     0.048 A 
HETATM   32  C21 UNK     1      26.377  -7.599  37.494  1.00  0.00     0.200 A 
HETATM   33  O13 UNK     1      26.154  -6.488  37.956  1.00  0.00    -0.286 OA
HETATM   34  C18 UNK     1      28.748  -7.022  36.970  1.00  0.00     0.098 A 
HETATM   35  C12 UNK     1      29.992  -7.374  36.444  1.00  0.00     0.075 A 
BRANCH  31  36
HETATM   36  C24 UNK     1      23.985  -8.460  37.983  1.00  0.00    -0.020 A 
HETATM   37  C26 UNK     1      23.823  -8.005  39.292  1.00  0.00     0.015 A 
HETATM   38  C29 UNK     1      22.542  -7.813  39.811  1.00  0.00     0.037 A 
HETATM   39  C31 UNK     1      21.423  -8.075  39.019  1.00  0.00     0.068 A 
HETATM   40  C30 UNK     1      21.585  -8.530  37.710  1.00  0.00     0.037 A 
HETATM   41  C27 UNK     1      22.866  -8.722  37.193  1.00  0.00     0.015 A 
BRANCH  39  42
HETATM   42  O15 UNK     1      20.173  -7.888  39.525  1.00  0.00    -0.356 OA
HETATM   43  C32 UNK     1      19.077  -8.083  38.634  1.00  0.00     0.210 C 
ENDBRANCH  39  42
ENDBRANCH  31  36
BRANCH  34  44
HETATM   44  O11 UNK     1      28.610  -5.769  37.490  1.00  0.00    -0.278 OA
BRANCH  44  45
HETATM   45  C25 UNK     1      29.133  -5.627  38.785  1.00  0.00     0.260 C 
HETATM   46  O14 UNK     1      28.692  -6.155  39.798  1.00  0.00    -0.265 OA
HETATM   47  C28 UNK     1      30.328  -4.720  38.759  1.00  0.00     0.126 C 
ENDBRANCH  44  45
ENDBRANCH  34  44
ENDBRANCH   1  25
TORSDOF 15
ENDMDL
MODEL 5
REMARK VINA RESULT:      -7.7      3.565     10.323
REMARK  15 active torsions:
REMARK  status: ('A' for Active; 'I' for Inactive)
REMARK    1  A    between atoms: C1_16  and  O2_2 
REMARK    2  A    between atoms: C8_23  and  O2_2 
REMARK    3  A    between atoms: C2_17  and  O3_3 
REMARK    4  A    between atoms: C9_24  and  O3_3 
REMARK    5  A    between atoms: C10_25  and  O4_4 
REMARK    6  A    between atoms: C3_18  and  O4_4 
REMARK    7  A    between atoms: C5_20  and  O5_5 
REMARK    8  A    between atoms: C7_22  and  O5_5 
REMARK    9  A    between atoms: C15_30  and  O6_6 
REMARK   10  A    between atoms: C6_21  and  O6_6 
REMARK   11  A    between atoms: C18_33  and  O11_11 
REMARK   12  A    between atoms: C25_40  and  O11_11 
REMARK   13  A    between atoms: C31_46  and  O15_15 
REMARK   14  A    between atoms: C4_19  and  C6_21 
REMARK   15  A    between atoms: C22_37  and  C24_39 
ROOT
HETATM    1  O5  UNK     1      18.924  -6.766  12.944  1.00  0.00    -0.318 OA
ENDROOT
BRANCH   1   2
HETATM    2  C5  UNK     1      18.267  -6.436  11.723  1.00  0.00     0.299 C 
HETATM    3  C3  UNK     1      18.559  -7.464  10.624  1.00  0.00     0.219 C 
HETATM    4  C1  UNK     1      19.960  -7.289  10.023  1.00  0.00     0.198 C 
HETATM    5  C2  UNK     1      20.266  -5.822   9.705  1.00  0.00     0.195 C 
HETATM    6  C4  UNK     1      19.917  -4.909  10.891  1.00  0.00     0.181 C 
HETATM    7  O1  UNK     1      18.558  -5.103  11.293  1.00  0.00    -0.348 OA
BRANCH   3   8
HETATM    8  O4  UNK     1      17.579  -7.300   9.600  1.00  0.00    -0.308 OA
BRANCH   8   9
HETATM    9  C10 UNK     1      16.323  -7.736   9.909  1.00  0.00     0.255 C 
HETATM   10  O9  UNK     1      16.043  -8.659  10.662  1.00  0.00    -0.266 OA
HETATM   11  C16 UNK     1      15.308  -6.908   9.183  1.00  0.00     0.126 C 
ENDBRANCH   8   9
ENDBRANCH   3   8
BRANCH   4  12
HETATM   12  O2  UNK     1      20.937  -7.759  10.950  1.00  0.00    -0.311 OA
BRANCH  12  13
HETATM   13  C8  UNK     1      21.140  -9.110  10.962  1.00  0.00     0.255 C 
HETATM   14  C13 UNK     1      21.258  -9.592  12.376  1.00  0.00     0.126 C 
HETATM   15  O7  UNK     1      21.217  -9.838   9.981  1.00  0.00    -0.266 OA
ENDBRANCH  12  13
ENDBRANCH   4  12
BRANCH   5  16
HETATM   16  O3  UNK     1      19.539  -5.429   8.543  1.00  0.00    -0.311 OA
BRANCH  16  17
HETATM   17  C9  UNK     1      20.188  -5.602   7.354  1.00  0.00     0.255 C 
HETATM   18  C14 UNK     1      21.006  -4.386   7.042  1.00  0.00     0.126 C 
HETATM   19  O8  UNK     1      20.125  -6.589   6.634  1.00  0.00    -0.266 OA
ENDBRANCH  16  17
ENDBRANCH   5  16
BRANCH   6  20
HETATM   20  C6  UNK     1      20.082  -3.432  10.550  1.00  0.00     0.213 C 
BRANCH  20  21
HETATM   21  O6  UNK     1      20.158  -2.696  11.757  1.00  0.00    -0.319 OA
BRANCH  21  22
HETATM   22  C15 UNK     1      19.366  -1.581  11.832  1.00  0.00     0.254 C 
HETATM   23  O12 UNK     1      18.706  -1.108  10.916  1.00  0.00    -0.266 OA
HETATM   24  C20 UNK     1      19.415  -1.006  13.215  1.00  0.00     0.126 C 
ENDBRANCH  21  22
ENDBRANCH  20  21
ENDBRANCH   6  20
ENDBRANCH   1   2
BRANCH   1  25
HETATM   25  C7  UNK     1      19.190  -5.730  13.798  1.00  0.00     0.077 A 
HETATM   26  C11 UNK     1      18.157  -4.894  14.222  1.00  0.00     0.075 A 
HETATM   27  C17 UNK     1      18.430  -3.840  15.094  1.00  0.00     0.094 A 
HETATM   28  O10 UNK     1      17.375  -3.052  15.476  1.00  0.00    -0.321 OA
HETATM   29  C19 UNK     1      19.733  -3.624  15.542  1.00  0.00     0.083 A 
HETATM   30  C23 UNK     1      17.632  -2.022  16.348  1.00  0.00     0.159 A 
HETATM   31  C22 UNK     1      18.822  -1.683  16.865  1.00  0.00     0.048 A 
HETATM   32  C21 UNK     1      19.999  -2.501  16.461  1.00  0.00     0.200 A 
HETATM   33  O13 UNK     1      21.133  -2.259  16.853  1.00  0.00    -0.286 OA
HETATM   34  C18 UNK     1      20.769  -4.458  15.118  1.00  0.00     0.098 A 
HETATM   35  C12 UNK     1      20.494  -5.513  14.246  1.00  0.00     0.075 A 
BRANCH  31  36
HETATM   36  C24 UNK     1      18.942  -0.559  17.807  1.00  0.00    -0.020 A 
HETATM   37  C26 UNK     1      18.947   0.753  17.331  1.00  0.00     0.015 A 
HETATM   38  C29 UNK     1      19.061   1.819  18.223  1.00  0.00     0.037 A 
HETATM   39  C31 UNK     1      19.170   1.573  19.592  1.00  0.00     0.068 A 
HETATM   40  C30 UNK     1      19.166   0.262  20.068  1.00  0.00     0.037 A 
HETATM   41  C27 UNK     1      19.052  -0.804  19.175  1.00  0.00     0.015 A 
BRANCH  39  42
HETATM   42  O15 UNK     1      19.282   2.614  20.463  1.00  0.00    -0.356 OA
HETATM   43  C32 UNK     1      19.790   2.319  21.764  1.00  0.00     0.210 C 
ENDBRANCH  39  42
ENDBRANCH  31  36
BRANCH  34  44
HETATM   44  O11 UNK     1      22.060  -4.291  15.522  1.00  0.00    -0.278 OA
BRANCH  44  45
HETATM   45  C25 UNK     1      22.564  -5.356  16.286  1.00  0.00     0.260 C 
HETATM   46  O14 UNK     1      22.338  -6.544  16.095  1.00  0.00    -0.265 OA
HETATM   47  C28 UNK     1      23.429  -4.829  17.392  1.00  0.00     0.126 C 
ENDBRANCH  44  45
ENDBRANCH  34  44
ENDBRANCH   1  25
TORSDOF 15
ENDMDL
MODEL 6
REMARK VINA RESULT:      -7.6     19.544     23.301
REMARK  15 active torsions:
REMARK  status: ('A' for Active; 'I' for Inactive)
REMARK    1  A    between atoms: C1_16  and  O2_2 
REMARK    2  A    between atoms: C8_23  and  O2_2 
REMARK    3  A    between atoms: C2_17  and  O3_3 
REMARK    4  A    between atoms: C9_24  and  O3_3 
REMARK    5  A    between atoms: C10_25  and  O4_4 
REMARK    6  A    between atoms: C3_18  and  O4_4 
REMARK    7  A    between atoms: C5_20  and  O5_5 
REMARK    8  A    between atoms: C7_22  and  O5_5 
REMARK    9  A    between atoms: C15_30  and  O6_6 
REMARK   10  A    between atoms: C6_21  and  O6_6 
REMARK   11  A    between atoms: C18_33  and  O11_11 
REMARK   12  A    between atoms: C25_40  and  O11_11 
REMARK   13  A    between atoms: C31_46  and  O15_15 
REMARK   14  A    between atoms: C4_19  and  C6_21 
REMARK   15  A    between atoms: C22_37  and  C24_39 
ROOT
HETATM    1  O5  UNK     1      30.490  -9.457  35.642  1.00  0.00    -0.318 OA
ENDROOT
BRANCH   1   2
HETATM    2  C5  UNK     1      29.802  -8.230  35.412  1.00  0.00     0.299 C 
HETATM    3  C3  UNK     1      30.774  -7.059  35.222  1.00  0.00     0.219 C 
HETATM    4  C1  UNK     1      31.372  -6.580  36.552  1.00  0.00     0.198 C 
HETATM    5  C2  UNK     1      30.302  -6.429  37.637  1.00  0.00     0.195 C 
HETATM    6  C4  UNK     1      29.399  -7.670  37.708  1.00  0.00     0.181 C 
HETATM    7  O1  UNK     1      28.830  -7.953  36.425  1.00  0.00    -0.348 OA
BRANCH   3   8
HETATM    8  O4  UNK     1      30.056  -5.989  34.611  1.00  0.00    -0.308 OA
BRANCH   8   9
HETATM    9  C10 UNK     1      29.896  -6.080  33.259  1.00  0.00     0.255 C 
HETATM   10  O9  UNK     1      30.781  -6.284  32.438  1.00  0.00    -0.266 OA
HETATM   11  C16 UNK     1      28.452  -5.895  32.906  1.00  0.00     0.126 C 
ENDBRANCH   8   9
ENDBRANCH   3   8
BRANCH   4  12
HETATM   12  O2  UNK     1      32.340  -7.525  37.005  1.00  0.00    -0.311 OA
BRANCH  12  13
HETATM   13  C8  UNK     1      33.584  -7.408  36.455  1.00  0.00     0.255 C 
HETATM   14  C13 UNK     1      34.389  -6.409  37.228  1.00  0.00     0.126 C 
HETATM   15  O7  UNK     1      34.003  -8.017  35.479  1.00  0.00    -0.266 OA
ENDBRANCH  12  13
ENDBRANCH   4  12
BRANCH   5  16
HETATM   16  O3  UNK     1      29.526  -5.262  37.377  1.00  0.00    -0.311 OA
BRANCH  16  17
HETATM   17  C9  UNK     1      30.001  -4.103  37.921  1.00  0.00     0.255 C 
HETATM   18  C14 UNK     1      29.595  -4.016  39.361  1.00  0.00     0.126 C 
HETATM   19  O8  UNK     1      30.658  -3.249  37.342  1.00  0.00    -0.266 OA
ENDBRANCH  16  17
ENDBRANCH   5  16
BRANCH   6  20
HETATM   20  C6  UNK     1      28.242  -7.487  38.684  1.00  0.00     0.213 C 
BRANCH  20  21
HETATM   21  O6  UNK     1      27.039  -7.378  37.946  1.00  0.00    -0.319 OA
BRANCH  21  22
HETATM   22  C15 UNK     1      26.015  -8.199  38.340  1.00  0.00     0.254 C 
HETATM   23  O12 UNK     1      24.887  -8.216  37.866  1.00  0.00    -0.266 OA
HETATM   24  C20 UNK     1      26.471  -9.091  39.455  1.00  0.00     0.126 C 
ENDBRANCH  21  22
ENDBRANCH  20  21
ENDBRANCH   6  20
ENDBRANCH   1   2
BRANCH   1  25
HETATM   25  C7  UNK     1      30.646 -10.284  34.562  1.00  0.00     0.077 A 
HETATM   26  C11 UNK     1      31.404 -11.448  34.680  1.00  0.00     0.075 A 
HETATM   27  C17 UNK     1      31.559 -12.291  33.579  1.00  0.00     0.094 A 
HETATM   28  O10 UNK     1      32.315 -13.421  33.755  1.00  0.00    -0.321 OA
HETATM   29  C19 UNK     1      30.957 -11.968  32.363  1.00  0.00     0.083 A 
HETATM   30  C23 UNK     1      32.459 -14.265  32.680  1.00  0.00     0.159 A 
HETATM   31  C22 UNK     1      31.950 -14.097  31.451  1.00  0.00     0.048 A 
HETATM   32  C21 UNK     1      31.138 -12.872  31.211  1.00  0.00     0.200 A 
HETATM   33  O13 UNK     1      30.651 -12.611  30.118  1.00  0.00    -0.286 OA
HETATM   34  C18 UNK     1      30.199 -10.802  32.241  1.00  0.00     0.098 A 
HETATM   35  C12 UNK     1      30.044  -9.961  33.344  1.00  0.00     0.075 A 
BRANCH  31  36
HETATM   36  C24 UNK     1      32.174 -15.101  30.398  1.00  0.00    -0.020 A 
HETATM   37  C26 UNK     1      31.168 -16.013  30.079  1.00  0.00     0.015 A 
HETATM   38  C29 UNK     1      31.381 -16.965  29.082  1.00  0.00     0.037 A 
HETATM   39  C31 UNK     1      32.599 -17.004  28.403  1.00  0.00     0.068 A 
HETATM   40  C30 UNK     1      33.605 -16.091  28.722  1.00  0.00     0.037 A 
HETATM   41  C27 UNK     1      33.392 -15.140  29.720  1.00  0.00     0.015 A 
BRANCH  39  42
HETATM   42  O15 UNK     1      32.807 -17.933  27.430  1.00  0.00    -0.356 OA
HETATM   43  C32 UNK     1      32.441 -19.279  27.729  1.00  0.00     0.210 C 
ENDBRANCH  39  42
ENDBRANCH  31  36
BRANCH  34  44
HETATM   44  O11 UNK     1      29.591 -10.438  31.076  1.00  0.00    -0.278 OA
BRANCH  44  45
HETATM   45  C25 UNK     1      30.100  -9.259  30.508  1.00  0.00     0.260 C 
HETATM   46  O14 UNK     1      31.285  -8.998  30.343  1.00  0.00    -0.265 OA
HETATM   47  C28 UNK     1      28.974  -8.345  30.128  1.00  0.00     0.126 C 
ENDBRANCH  44  45
ENDBRANCH  34  44
ENDBRANCH   1  25
TORSDOF 15
ENDMDL
MODEL 7
REMARK VINA RESULT:      -7.6     19.568     23.164
REMARK  15 active torsions:
REMARK  status: ('A' for Active; 'I' for Inactive)
REMARK    1  A    between atoms: C1_16  and  O2_2 
REMARK    2  A    between atoms: C8_23  and  O2_2 
REMARK    3  A    between atoms: C2_17  and  O3_3 
REMARK    4  A    between atoms: C9_24  and  O3_3 
REMARK    5  A    between atoms: C10_25  and  O4_4 
REMARK    6  A    between atoms: C3_18  and  O4_4 
REMARK    7  A    between atoms: C5_20  and  O5_5 
REMARK    8  A    between atoms: C7_22  and  O5_5 
REMARK    9  A    between atoms: C15_30  and  O6_6 
REMARK   10  A    between atoms: C6_21  and  O6_6 
REMARK   11  A    between atoms: C18_33  and  O11_11 
REMARK   12  A    between atoms: C25_40  and  O11_11 
REMARK   13  A    between atoms: C31_46  and  O15_15 
REMARK   14  A    between atoms: C4_19  and  C6_21 
REMARK   15  A    between atoms: C22_37  and  C24_39 
ROOT
HETATM    1  O5  UNK     1      31.675  -8.691  34.016  1.00  0.00    -0.318 OA
ENDROOT
BRANCH   1   2
HETATM    2  C5  UNK     1      30.506  -7.952  34.361  1.00  0.00     0.299 C 
HETATM    3  C3  UNK     1      30.679  -6.453  34.088  1.00  0.00     0.219 C 
HETATM    4  C1  UNK     1      31.540  -5.765  35.155  1.00  0.00     0.198 C 
HETATM    5  C2  UNK     1      31.125  -6.172  36.573  1.00  0.00     0.195 C 
HETATM    6  C4  UNK     1      30.982  -7.697  36.697  1.00  0.00     0.181 C 
HETATM    7  O1  UNK     1      30.082  -8.201  35.705  1.00  0.00    -0.348 OA
BRANCH   3   8
HETATM    8  O4  UNK     1      29.382  -5.859  34.067  1.00  0.00    -0.308 OA
BRANCH   8   9
HETATM    9  C10 UNK     1      28.745  -5.872  32.860  1.00  0.00     0.255 C 
HETATM   10  O9  UNK     1      27.699  -6.452  32.601  1.00  0.00    -0.266 OA
HETATM   11  C16 UNK     1      29.520  -5.057  31.871  1.00  0.00     0.126 C 
ENDBRANCH   8   9
ENDBRANCH   3   8
BRANCH   4  12
HETATM   12  O2  UNK     1      32.908  -6.124  34.968  1.00  0.00    -0.311 OA
BRANCH  12  13
HETATM   13  C8  UNK     1      33.817  -5.366  35.649  1.00  0.00     0.255 C 
HETATM   14  C13 UNK     1      33.769  -3.952  35.155  1.00  0.00     0.126 C 
HETATM   15  O7  UNK     1      34.568  -5.758  36.532  1.00  0.00    -0.266 OA
ENDBRANCH  12  13
ENDBRANCH   4  12
BRANCH   5  16
HETATM   16  O3  UNK     1      29.899  -5.528  36.911  1.00  0.00    -0.311 OA
BRANCH  16  17
HETATM   17  C9  UNK     1      30.012  -4.416  37.695  1.00  0.00     0.255 C 
HETATM   18  C14 UNK     1      29.379  -4.671  39.029  1.00  0.00     0.126 C 
HETATM   19  O8  UNK     1      30.543  -3.360  37.379  1.00  0.00    -0.266 OA
ENDBRANCH  16  17
ENDBRANCH   5  16
BRANCH   6  20
HETATM   20  C6  UNK     1      30.438  -8.117  38.057  1.00  0.00     0.213 C 
BRANCH  20  21
HETATM   21  O6  UNK     1      29.523  -9.182  37.869  1.00  0.00    -0.319 OA
BRANCH  21  22
HETATM   22  C15 UNK     1      28.605  -9.369  38.868  1.00  0.00     0.254 C 
HETATM   23  O12 UNK     1      28.385 -10.422  39.452  1.00  0.00    -0.266 OA
HETATM   24  C20 UNK     1      27.890  -8.083  39.158  1.00  0.00     0.126 C 
ENDBRANCH  21  22
ENDBRANCH  20  21
ENDBRANCH   6  20
ENDBRANCH   1   2
BRANCH   1  25
HETATM   25  C7  UNK     1      31.478  -9.901  33.406  1.00  0.00     0.077 A 
HETATM   26  C11 UNK     1      31.931 -11.071  34.016  1.00  0.00     0.075 A 
HETATM   27  C17 UNK     1      31.726 -12.303  33.394  1.00  0.00     0.094 A 
HETATM   28  O10 UNK     1      32.193 -13.417  34.041  1.00  0.00    -0.321 OA
HETATM   29  C19 UNK     1      31.070 -12.363  32.164  1.00  0.00     0.083 A 
HETATM   30  C23 UNK     1      31.981 -14.636  33.443  1.00  0.00     0.159 A 
HETATM   31  C22 UNK     1      31.373 -14.862  32.269  1.00  0.00     0.048 A 
HETATM   32  C21 UNK     1      30.869 -13.676  31.523  1.00  0.00     0.200 A 
HETATM   33  O13 UNK     1      30.324 -13.770  30.431  1.00  0.00    -0.286 OA
HETATM   34  C18 UNK     1      30.617 -11.193  31.551  1.00  0.00     0.098 A 
HETATM   35  C12 UNK     1      30.822  -9.962  32.176  1.00  0.00     0.075 A 
BRANCH  31  36
HETATM   36  C24 UNK     1      31.202 -16.232  31.760  1.00  0.00    -0.020 A 
HETATM   37  C26 UNK     1      30.647 -17.216  32.579  1.00  0.00     0.015 A 
HETATM   38  C29 UNK     1      30.485 -18.515  32.098  1.00  0.00     0.037 A 
HETATM   39  C31 UNK     1      30.877 -18.830  30.797  1.00  0.00     0.068 A 
HETATM   40  C30 UNK     1      31.432 -17.847  29.977  1.00  0.00     0.037 A 
HETATM   41  C27 UNK     1      31.594 -16.548  30.459  1.00  0.00     0.015 A 
BRANCH  39  42
HETATM   42  O15 UNK     1      30.718 -20.098  30.327  1.00  0.00    -0.356 OA
HETATM   43  C32 UNK     1      29.398 -20.640  30.355  1.00  0.00     0.210 C 
ENDBRANCH  39  42
ENDBRANCH  31  36
BRANCH  34  44
HETATM   44  O11 UNK     1      29.973 -11.195  30.350  1.00  0.00    -0.278 OA
BRANCH  44  45
HETATM   45  C25 UNK     1      30.722 -10.645  29.297  1.00  0.00     0.260 C 
HETATM   46  O14 UNK     1      31.882 -10.922  29.022  1.00  0.00    -0.265 OA
HETATM   47  C28 UNK     1      29.891  -9.649  28.543  1.00  0.00     0.126 C 
ENDBRANCH  44  45
ENDBRANCH  34  44
ENDBRANCH   1  25
TORSDOF 15
ENDMDL
MODEL 8
REMARK VINA RESULT:      -7.6     19.710     23.184
REMARK  15 active torsions:
REMARK  status: ('A' for Active; 'I' for Inactive)
REMARK    1  A    between atoms: C1_16  and  O2_2 
REMARK    2  A    between atoms: C8_23  and  O2_2 
REMARK    3  A    between atoms: C2_17  and  O3_3 
REMARK    4  A    between atoms: C9_24  and  O3_3 
REMARK    5  A    between atoms: C10_25  and  O4_4 
REMARK    6  A    between atoms: C3_18  and  O4_4 
REMARK    7  A    between atoms: C5_20  and  O5_5 
REMARK    8  A    between atoms: C7_22  and  O5_5 
REMARK    9  A    between atoms: C15_30  and  O6_6 
REMARK   10  A    between atoms: C6_21  and  O6_6 
REMARK   11  A    between atoms: C18_33  and  O11_11 
REMARK   12  A    between atoms: C25_40  and  O11_11 
REMARK   13  A    between atoms: C31_46  and  O15_15 
REMARK   14  A    between atoms: C4_19  and  C6_21 
REMARK   15  A    between atoms: C22_37  and  C24_39 
ROOT
HETATM    1  O5  UNK     1      31.312  -8.926  34.615  1.00  0.00    -0.318 OA
ENDROOT
BRANCH   1   2
HETATM    2  C5  UNK     1      30.862  -9.040  35.962  1.00  0.00     0.299 C 
HETATM    3  C3  UNK     1      29.425  -8.529  36.126  1.00  0.00     0.219 C 
HETATM    4  C1  UNK     1      29.352  -6.997  36.135  1.00  0.00     0.198 C 
HETATM    5  C2  UNK     1      30.420  -6.379  37.043  1.00  0.00     0.195 C 
HETATM    6  C4  UNK     1      31.803  -6.990  36.774  1.00  0.00     0.181 C 
HETATM    7  O1  UNK     1      31.755  -8.416  36.889  1.00  0.00    -0.348 OA
BRANCH   3   8
HETATM    8  O4  UNK     1      28.919  -9.036  37.359  1.00  0.00    -0.308 OA
BRANCH   8   9
HETATM    9  C10 UNK     1      27.559  -9.096  37.461  1.00  0.00     0.255 C 
HETATM   10  O9  UNK     1      26.876  -8.591  38.343  1.00  0.00    -0.266 OA
HETATM   11  C16 UNK     1      27.000  -9.883  36.315  1.00  0.00     0.126 C 
ENDBRANCH   8   9
ENDBRANCH   3   8
BRANCH   4  12
HETATM   12  O2  UNK     1      29.550  -6.503  34.811  1.00  0.00    -0.311 OA
BRANCH  12  13
HETATM   13  C8  UNK     1      28.448  -6.512  34.005  1.00  0.00     0.255 C 
HETATM   14  C13 UNK     1      28.870  -6.576  32.569  1.00  0.00     0.126 C 
HETATM   15  O7  UNK     1      27.282  -6.474  34.375  1.00  0.00    -0.266 OA
ENDBRANCH  12  13
ENDBRANCH   4  12
BRANCH   5  16
HETATM   16  O3  UNK     1      30.048  -6.569  38.407  1.00  0.00    -0.311 OA
BRANCH  16  17
HETATM   17  C9  UNK     1      29.258  -5.594  38.945  1.00  0.00     0.255 C 
HETATM   18  C14 UNK     1      29.903  -4.255  38.751  1.00  0.00     0.126 C 
HETATM   19  O8  UNK     1      28.185  -5.761  39.507  1.00  0.00    -0.266 OA
ENDBRANCH  16  17
ENDBRANCH   5  16
BRANCH   6  20
HETATM   20  C6  UNK     1      32.856  -6.493  37.759  1.00  0.00     0.213 C 
BRANCH  20  21
HETATM   21  O6  UNK     1      33.427  -5.303  37.246  1.00  0.00    -0.319 OA
BRANCH  21  22
HETATM   22  C15 UNK     1      34.379  -5.463  36.275  1.00  0.00     0.254 C 
HETATM   23  O12 UNK     1      35.252  -6.321  36.261  1.00  0.00    -0.266 OA
HETATM   24  C20 UNK     1      34.205  -4.426  35.207  1.00  0.00     0.126 C 
ENDBRANCH  21  22
ENDBRANCH  20  21
ENDBRANCH   6  20
ENDBRANCH   1   2
BRANCH   1  25
HETATM   25  C7  UNK     1      31.172 -10.036  33.825  1.00  0.00     0.077 A 
HETATM   26  C11 UNK     1      31.631 -11.274  34.275  1.00  0.00     0.075 A 
HETATM   27  C17 UNK     1      31.484 -12.404  33.470  1.00  0.00     0.094 A 
HETATM   28  O10 UNK     1      31.953 -13.592  33.964  1.00  0.00    -0.321 OA
HETATM   29  C19 UNK     1      30.879 -12.295  32.217  1.00  0.00     0.083 A 
HETATM   30  C23 UNK     1      31.798 -14.713  33.185  1.00  0.00     0.159 A 
HETATM   31  C22 UNK     1      31.243 -14.775  31.965  1.00  0.00     0.048 A 
HETATM   32  C21 UNK     1      30.738 -13.502  31.382  1.00  0.00     0.200 A 
HETATM   33  O13 UNK     1      30.240 -13.444  30.265  1.00  0.00    -0.286 OA
HETATM   34  C18 UNK     1      30.420 -11.056  31.764  1.00  0.00     0.098 A 
HETATM   35  C12 UNK     1      30.567  -9.927  32.572  1.00  0.00     0.075 A 
BRANCH  31  36
HETATM   36  C24 UNK     1      31.128 -16.057  31.253  1.00  0.00    -0.020 A 
HETATM   37  C26 UNK     1      31.241 -16.096  29.863  1.00  0.00     0.015 A 
HETATM   38  C29 UNK     1      31.131 -17.311  29.187  1.00  0.00     0.037 A 
HETATM   39  C31 UNK     1      30.910 -18.489  29.902  1.00  0.00     0.068 A 
HETATM   40  C30 UNK     1      30.798 -18.450  31.292  1.00  0.00     0.037 A 
HETATM   41  C27 UNK     1      30.907 -17.234  31.967  1.00  0.00     0.015 A 
BRANCH  39  42
HETATM   42  O15 UNK     1      30.804 -19.675  29.243  1.00  0.00    -0.356 OA
HETATM   43  C32 UNK     1      30.298 -20.785  29.983  1.00  0.00     0.210 C 
ENDBRANCH  39  42
ENDBRANCH  31  36
BRANCH  34  44
HETATM   44  O11 UNK     1      29.824 -10.892  30.549  1.00  0.00    -0.278 OA
BRANCH  44  45
HETATM   45  C25 UNK     1      30.619 -10.220  29.607  1.00  0.00     0.260 C 
HETATM   46  O14 UNK     1      31.727 -10.572  29.223  1.00  0.00    -0.265 OA
HETATM   47  C28 UNK     1      29.913  -8.987  29.127  1.00  0.00     0.126 C 
ENDBRANCH  44  45
ENDBRANCH  34  44
ENDBRANCH   1  25
TORSDOF 15
ENDMDL
MODEL 9
REMARK VINA RESULT:      -7.6     20.384     25.304
REMARK  15 active torsions:
REMARK  status: ('A' for Active; 'I' for Inactive)
REMARK    1  A    between atoms: C1_16  and  O2_2 
REMARK    2  A    between atoms: C8_23  and  O2_2 
REMARK    3  A    between atoms: C2_17  and  O3_3 
REMARK    4  A    between atoms: C9_24  and  O3_3 
REMARK    5  A    between atoms: C10_25  and  O4_4 
REMARK    6  A    between atoms: C3_18  and  O4_4 
REMARK    7  A    between atoms: C5_20  and  O5_5 
REMARK    8  A    between atoms: C7_22  and  O5_5 
REMARK    9  A    between atoms: C15_30  and  O6_6 
REMARK   10  A    between atoms: C6_21  and  O6_6 
REMARK   11  A    between atoms: C18_33  and  O11_11 
REMARK   12  A    between atoms: C25_40  and  O11_11 
REMARK   13  A    between atoms: C31_46  and  O15_15 
REMARK   14  A    between atoms: C4_19  and  C6_21 
REMARK   15  A    between atoms: C22_37  and  C24_39 
ROOT
HETATM    1  O5  UNK     1      31.402  -9.459  34.613  1.00  0.00    -0.318 OA
ENDROOT
BRANCH   1   2
HETATM    2  C5  UNK     1      31.767  -8.761  33.425  1.00  0.00     0.299 C 
HETATM    3  C3  UNK     1      32.085  -9.723  32.275  1.00  0.00     0.219 C 
HETATM    4  C1  UNK     1      33.467 -10.373  32.427  1.00  0.00     0.198 C 
HETATM    5  C2  UNK     1      34.542  -9.346  32.794  1.00  0.00     0.195 C 
HETATM    6  C4  UNK     1      34.085  -8.448  33.953  1.00  0.00     0.181 C 
HETATM    7  O1  UNK     1      32.831  -7.830  33.647  1.00  0.00    -0.348 OA
BRANCH   3   8
HETATM    8  O4  UNK     1      32.040  -8.980  31.058  1.00  0.00    -0.308 OA
BRANCH   8   9
HETATM    9  C10 UNK     1      32.030  -9.722  29.912  1.00  0.00     0.255 C 
HETATM   10  O9  UNK     1      32.847  -9.657  29.002  1.00  0.00    -0.266 OA
HETATM   11  C16 UNK     1      30.856 -10.652  29.920  1.00  0.00     0.126 C 
ENDBRANCH   8   9
ENDBRANCH   3   8
BRANCH   4  12
HETATM   12  O2  UNK     1      33.418 -11.359  33.456  1.00  0.00    -0.311 OA
BRANCH  12  13
HETATM   13  C8  UNK     1      32.758 -12.512  33.140  1.00  0.00     0.255 C 
HETATM   14  C13 UNK     1      31.816 -12.876  34.246  1.00  0.00     0.126 C 
HETATM   15  O7  UNK     1      32.898 -13.167  32.115  1.00  0.00    -0.266 OA
ENDBRANCH  12  13
ENDBRANCH   4  12
BRANCH   5  16
HETATM   16  O3  UNK     1      34.857  -8.559  31.648  1.00  0.00    -0.311 OA
BRANCH  16  17
HETATM   17  C9  UNK     1      35.924  -8.987  30.911  1.00  0.00     0.255 C 
HETATM   18  C14 UNK     1      36.936  -9.628  31.812  1.00  0.00     0.126 C 
HETATM   19  O8  UNK     1      36.058  -8.875  29.701  1.00  0.00    -0.266 OA
ENDBRANCH  16  17
ENDBRANCH   5  16
BRANCH   6  20
HETATM   20  C6  UNK     1      35.080  -7.331  34.246  1.00  0.00     0.213 C 
BRANCH  20  21
HETATM   21  O6  UNK     1      34.435  -6.086  34.046  1.00  0.00    -0.319 OA
BRANCH  21  22
HETATM   22  C15 UNK     1      34.704  -5.114  34.973  1.00  0.00     0.254 C 
HETATM   23  O12 UNK     1      34.735  -3.909  34.761  1.00  0.00    -0.266 OA
HETATM   24  C20 UNK     1      34.963  -5.737  36.312  1.00  0.00     0.126 C 
ENDBRANCH  21  22
ENDBRANCH  20  21
ENDBRANCH   6  20
ENDBRANCH   1   2
BRANCH   1  25
HETATM   25  C7  UNK     1      30.246  -9.059  35.229  1.00  0.00     0.077 A 
HETATM   26  C11 UNK     1      29.157  -9.928  35.298  1.00  0.00     0.075 A 
HETATM   27  C17 UNK     1      27.982  -9.520  35.929  1.00  0.00     0.094 A 
HETATM   28  O10 UNK     1      26.945 -10.416  35.965  1.00  0.00    -0.321 OA
HETATM   29  C19 UNK     1      27.897  -8.245  36.489  1.00  0.00     0.083 A 
HETATM   30  C23 UNK     1      25.790 -10.028  36.599  1.00  0.00     0.159 A 
HETATM   31  C22 UNK     1      25.549  -8.844  37.182  1.00  0.00     0.048 A 
HETATM   32  C21 UNK     1      26.642  -7.833  37.147  1.00  0.00     0.200 A 
HETATM   33  O13 UNK     1      26.516  -6.713  37.624  1.00  0.00    -0.286 OA
HETATM   34  C18 UNK     1      28.985  -7.372  36.419  1.00  0.00     0.098 A 
HETATM   35  C12 UNK     1      30.160  -7.784  35.789  1.00  0.00     0.075 A 
BRANCH  31  36
HETATM   36  C24 UNK     1      24.262  -8.576  37.841  1.00  0.00    -0.020 A 
HETATM   37  C26 UNK     1      24.237  -8.056  39.136  1.00  0.00     0.015 A 
HETATM   38  C29 UNK     1      23.017  -7.802  39.762  1.00  0.00     0.037 A 
HETATM   39  C31 UNK     1      21.821  -8.067  39.094  1.00  0.00     0.068 A 
HETATM   40  C30 UNK     1      21.846  -8.587  37.799  1.00  0.00     0.037 A 
HETATM   41  C27 UNK     1      23.067  -8.841  37.173  1.00  0.00     0.015 A 
BRANCH  39  42
HETATM   42  O15 UNK     1      20.630  -7.819  39.705  1.00  0.00    -0.356 OA
HETATM   43  C32 UNK     1      19.920  -6.652  39.293  1.00  0.00     0.210 C 
ENDBRANCH  39  42
ENDBRANCH  31  36
BRANCH  34  44
HETATM   44  O11 UNK     1      28.955  -6.116  36.948  1.00  0.00    -0.278 OA
BRANCH  44  45
HETATM   45  C25 UNK     1      29.738  -5.962  38.103  1.00  0.00     0.260 C 
HETATM   46  O14 UNK     1      29.863  -6.788  38.999  1.00  0.00    -0.265 OA
HETATM   47  C28 UNK     1      30.409  -4.622  38.093  1.00  0.00     0.126 C 
ENDBRANCH  44  45
ENDBRANCH  34  44
ENDBRANCH   1  25
TORSDOF 15
ENDMDL
MODEL 10
REMARK VINA RESULT:      -7.6     20.922     25.513
REMARK  15 active torsions:
REMARK  status: ('A' for Active; 'I' for Inactive)
REMARK    1  A    between atoms: C1_16  and  O2_2 
REMARK    2  A    between atoms: C8_23  and  O2_2 
REMARK    3  A    between atoms: C2_17  and  O3_3 
REMARK    4  A    between atoms: C9_24  and  O3_3 
REMARK    5  A    between atoms: C10_25  and  O4_4 
REMARK    6  A    between atoms: C3_18  and  O4_4 
REMARK    7  A    between atoms: C5_20  and  O5_5 
REMARK    8  A    between atoms: C7_22  and  O5_5 
REMARK    9  A    between atoms: C15_30  and  O6_6 
REMARK   10  A    between atoms: C6_21  and  O6_6 
REMARK   11  A    between atoms: C18_33  and  O11_11 
REMARK   12  A    between atoms: C25_40  and  O11_11 
REMARK   13  A    between atoms: C31_46  and  O15_15 
REMARK   14  A    between atoms: C4_19  and  C6_21 
REMARK   15  A    between atoms: C22_37  and  C24_39 
ROOT
HETATM    1  O5  UNK     1      31.866  -8.807  35.826  1.00  0.00    -0.318 OA
ENDROOT
BRANCH   1   2
HETATM    2  C5  UNK     1      32.031  -9.138  34.449  1.00  0.00     0.299 C 
HETATM    3  C3  UNK     1      33.500  -9.407  34.100  1.00  0.00     0.219 C 
HETATM    4  C1  UNK     1      34.314  -8.113  33.981  1.00  0.00     0.198 C 
HETATM    5  C2  UNK     1      33.583  -7.053  33.150  1.00  0.00     0.195 C 
HETATM    6  C4  UNK     1      32.124  -6.896  33.604  1.00  0.00     0.181 C 
HETATM    7  O1  UNK     1      31.451  -8.159  33.581  1.00  0.00    -0.348 OA
BRANCH   3   8
HETATM    8  O4  UNK     1      33.532 -10.107  32.858  1.00  0.00    -0.308 OA
BRANCH   8   9
HETATM    9  C10 UNK     1      34.011 -11.384  32.910  1.00  0.00     0.255 C 
HETATM   10  O9  UNK     1      33.345 -12.401  33.055  1.00  0.00    -0.266 OA
HETATM   11  C16 UNK     1      35.502 -11.372  32.760  1.00  0.00     0.126 C 
ENDBRANCH   8   9
ENDBRANCH   3   8
BRANCH   4  12
HETATM   12  O2  UNK     1      34.551  -7.578  35.281  1.00  0.00    -0.311 OA
BRANCH  12  13
HETATM   13  C8  UNK     1      35.600  -6.709  35.382  1.00  0.00     0.255 C 
HETATM   14  C13 UNK     1      35.192  -5.514  36.190  1.00  0.00     0.126 C 
HETATM   15  O7  UNK     1      36.713  -6.860  34.896  1.00  0.00    -0.266 OA
ENDBRANCH  12  13
ENDBRANCH   4  12
BRANCH   5  16
HETATM   16  O3  UNK     1      33.640  -7.411  31.771  1.00  0.00    -0.311 OA
BRANCH  16  17
HETATM   17  C9  UNK     1      34.866  -7.297  31.181  1.00  0.00     0.255 C 
HETATM   18  C14 UNK     1      35.076  -8.433  30.226  1.00  0.00     0.126 C 
HETATM   19  O8  UNK     1      35.687  -6.413  31.384  1.00  0.00    -0.266 OA
ENDBRANCH  16  17
ENDBRANCH   5  16
BRANCH   6  20
HETATM   20  C6  UNK     1      31.338  -5.948  32.705  1.00  0.00     0.213 C 
BRANCH  20  21
HETATM   21  O6  UNK     1      30.334  -6.689  32.035  1.00  0.00    -0.319 OA
BRANCH  21  22
HETATM   22  C15 UNK     1      29.115  -6.077  31.917  1.00  0.00     0.254 C 
HETATM   23  O12 UNK     1      28.688  -5.516  30.916  1.00  0.00    -0.266 OA
HETATM   24  C20 UNK     1      28.356  -6.188  33.205  1.00  0.00     0.126 C 
ENDBRANCH  21  22
ENDBRANCH  20  21
ENDBRANCH   6  20
ENDBRANCH   1   2
BRANCH   1  25
HETATM   25  C7  UNK     1      30.596  -8.503  36.236  1.00  0.00     0.077 A 
HETATM   26  C11 UNK     1      29.602  -9.481  36.208  1.00  0.00     0.075 A 
HETATM   27  C17 UNK     1      28.309  -9.169  36.630  1.00  0.00     0.094 A 
HETATM   28  O10 UNK     1      27.374 -10.170  36.579  1.00  0.00    -0.321 OA
HETATM   29  C19 UNK     1      28.012  -7.882  37.079  1.00  0.00     0.083 A 
HETATM   30  C23 UNK     1      26.102  -9.877  37.008  1.00  0.00     0.159 A 
HETATM   31  C22 UNK     1      25.659  -8.696  37.463  1.00  0.00     0.048 A 
HETATM   32  C21 UNK     1      26.638  -7.575  37.517  1.00  0.00     0.200 A 
HETATM   33  O13 UNK     1      26.329  -6.450  37.890  1.00  0.00    -0.286 OA
HETATM   34  C18 UNK     1      29.006  -6.901  37.107  1.00  0.00     0.098 A 
HETATM   35  C12 UNK     1      30.299  -7.216  36.686  1.00  0.00     0.075 A 
BRANCH  31  36
HETATM   36  C24 UNK     1      24.265  -8.534  37.908  1.00  0.00    -0.020 A 
HETATM   37  C26 UNK     1      23.993  -8.011  39.173  1.00  0.00     0.015 A 
HETATM   38  C29 UNK     1      22.673  -7.858  39.595  1.00  0.00     0.037 A 
HETATM   39  C31 UNK     1      21.624  -8.227  38.752  1.00  0.00     0.068 A 
HETATM   40  C30 UNK     1      21.896  -8.750  37.487  1.00  0.00     0.037 A 
HETATM   41  C27 UNK     1      23.217  -8.903  37.066  1.00  0.00     0.015 A 
BRANCH  39  42
HETATM   42  O15 UNK     1      20.335  -8.078  39.163  1.00  0.00    -0.356 OA
HETATM   43  C32 UNK     1      19.312  -8.466  38.247  1.00  0.00     0.210 C 
ENDBRANCH  39  42
ENDBRANCH  31  36
BRANCH  34  44
HETATM   44  O11 UNK     1      28.770  -5.628  37.535  1.00  0.00    -0.278 OA
BRANCH  44  45
HETATM   45  C25 UNK     1      29.258  -5.358  38.823  1.00  0.00     0.260 C 
HETATM   46  O14 UNK     1      28.778  -5.769  39.872  1.00  0.00    -0.265 OA
HETATM   47  C28 UNK     1      30.469  -4.476  38.738  1.00  0.00     0.126 C 
ENDBRANCH  44  45
ENDBRANCH  34  44
ENDBRANCH   1  25
TORSDOF 15
ENDMDL
