MODEL 1
REMARK VINA RESULT:      -8.9      0.000      0.000
REMARK  5 active torsions:
REMARK  status: ('A' for Active; 'I' for Inactive)
REMARK    1  A    between atoms: C15_25  and  O4_5 
REMARK       I    between atoms: C6_16  and  N1_9 
REMARK    2  A    between atoms: C7_17  and  N1_9 
REMARK    3  A    between atoms: C9_19  and  N2_10 
REMARK    4  A    between atoms: C3_13  and  C6_16 
REMARK    5  A    between atoms: C12_22  and  C15_25 
ROOT
HETATM    1  O1  UNK     1      19.301   0.854  14.989  1.00  0.00    -0.274 OA
HETATM    2  O3  UNK     1      19.340  -0.683  13.299  1.00  0.00    -0.259 OA
HETATM    3  C1  UNK     1      18.938   0.114  17.276  1.00  0.00     0.001 A 
HETATM    4  C2  UNK     1      19.164   1.138  16.363  1.00  0.00     0.089 A 
HETATM    5  C3  UNK     1      18.977  -1.518  15.486  1.00  0.00     0.108 A 
HETATM    6  C4  UNK     1      18.845  -1.255  16.792  1.00  0.00     0.037 A 
HETATM    7  C5  UNK     1      18.807   0.435  18.630  1.00  0.00     0.050 A 
HETATM    8  C8  UNK     1      19.263   2.470  16.761  1.00  0.00     0.041 A 
HETATM    9  C9  UNK     1      18.903   1.766  19.045  1.00  0.00     0.103 A 
HETATM   10  C10 UNK     1      19.217  -0.445  14.496  1.00  0.00     0.304 A 
HETATM   11  C11 UNK     1      19.131   2.781  18.113  1.00  0.00     0.039 A 
ENDROOT
BRANCH   5  12
HETATM   12  C6  UNK     1      18.869  -2.929  15.096  1.00  0.00     0.262 C 
HETATM   13  O2  UNK     1      17.847  -3.559  15.359  1.00  0.00    -0.267 OA
HETATM   14  N1  UNK     1      20.010  -3.378  14.444  1.00  0.00    -0.321 N 
HETATM   15  H4  UNK     1      20.767  -2.720  14.284  1.00  0.00     0.169 HD
BRANCH  14  16
HETATM   16  C7  UNK     1      20.246  -4.663  13.939  1.00  0.00     0.058 A 
HETATM   17  C12 UNK     1      20.061  -4.989  12.626  1.00  0.00     0.106 A 
HETATM   18  S1  UNK     1      20.437  -6.634  12.333  1.00  0.00    -0.094 SA
HETATM   19  C14 UNK     1      20.846  -6.889  13.975  1.00  0.00     0.053 A 
HETATM   20  C13 UNK     1      20.698  -5.746  14.729  1.00  0.00     0.038 A 
BRANCH  17  21
HETATM   21  C15 UNK     1      19.623  -4.184  11.529  1.00  0.00     0.302 C 
HETATM   22  O7  UNK     1      18.646  -3.409  11.527  1.00  0.00    -0.259 OA
BRANCH  21  23
HETATM   23  O4  UNK     1      20.418  -4.346  10.413  1.00  0.00    -0.322 OA
HETATM   24  C16 UNK     1      20.949  -3.162   9.806  1.00  0.00     0.213 C 
ENDBRANCH  21  23
ENDBRANCH  17  21
ENDBRANCH  14  16
ENDBRANCH   5  12
BRANCH   9  25
HETATM   25  N2  UNK     1      18.771   2.088  20.422  1.00  0.00    -0.116 N 
HETATM   26  O5  UNK     1      17.643   1.991  20.963  1.00  0.00    -0.532 OA
HETATM   27  O6  UNK     1      19.785   2.462  21.059  1.00  0.00    -0.532 OA
ENDBRANCH   9  25
TORSDOF 5
ENDMDL
MODEL 2
REMARK VINA RESULT:      -8.9      1.536      2.448
REMARK  5 active torsions:
REMARK  status: ('A' for Active; 'I' for Inactive)
REMARK    1  A    between atoms: C15_25  and  O4_5 
REMARK       I    between atoms: C6_16  and  N1_9 
REMARK    2  A    between atoms: C7_17  and  N1_9 
REMARK    3  A    between atoms: C9_19  and  N2_10 
REMARK    4  A    between atoms: C3_13  and  C6_16 
REMARK    5  A    between atoms: C12_22  and  C15_25 
ROOT
HETATM    1  O1  UNK     1      19.284   0.791  15.000  1.00  0.00    -0.274 OA
HETATM    2  O3  UNK     1      19.235  -0.766  13.329  1.00  0.00    -0.259 OA
HETATM    3  C1  UNK     1      18.891   0.099  17.297  1.00  0.00     0.001 A 
HETATM    4  C2  UNK     1      19.168   1.099  16.371  1.00  0.00     0.089 A 
HETATM    5  C3  UNK     1      18.836  -1.554  15.527  1.00  0.00     0.108 A 
HETATM    6  C4  UNK     1      18.724  -1.268  16.830  1.00  0.00     0.037 A 
HETATM    7  C5  UNK     1      18.783   0.443  18.647  1.00  0.00     0.050 A 
HETATM    8  C8  UNK     1      19.339   2.428  16.752  1.00  0.00     0.041 A 
HETATM    9  C9  UNK     1      18.952   1.772  19.046  1.00  0.00     0.103 A 
HETATM   10  C10 UNK     1      19.129  -0.507  14.523  1.00  0.00     0.304 A 
HETATM   11  C11 UNK     1      19.229   2.763  18.100  1.00  0.00     0.039 A 
ENDROOT
BRANCH   5  12
HETATM   12  C6  UNK     1      18.652  -2.961  15.155  1.00  0.00     0.262 C 
HETATM   13  O2  UNK     1      17.712  -3.600  15.625  1.00  0.00    -0.267 OA
HETATM   14  N1  UNK     1      19.628  -3.398  14.269  1.00  0.00    -0.321 N 
HETATM   15  H4  UNK     1      20.330  -2.735  13.956  1.00  0.00     0.169 HD
BRANCH  14  16
HETATM   16  C7  UNK     1      19.754  -4.677  13.712  1.00  0.00     0.058 A 
HETATM   17  C12 UNK     1      20.649  -5.601  14.171  1.00  0.00     0.106 A 
HETATM   18  S1  UNK     1      20.552  -7.060  13.281  1.00  0.00    -0.094 SA
HETATM   19  C14 UNK     1      19.307  -6.434  12.287  1.00  0.00     0.053 A 
HETATM   20  C13 UNK     1      18.974  -5.141  12.628  1.00  0.00     0.038 A 
BRANCH  17  21
HETATM   21  C15 UNK     1      21.598  -5.515  15.237  1.00  0.00     0.302 C 
HETATM   22  O7  UNK     1      22.022  -6.463  15.927  1.00  0.00    -0.259 OA
BRANCH  21  23
HETATM   23  O4  UNK     1      22.027  -4.220  15.449  1.00  0.00    -0.322 OA
HETATM   24  C16 UNK     1      21.989  -3.726  16.793  1.00  0.00     0.213 C 
ENDBRANCH  21  23
ENDBRANCH  17  21
ENDBRANCH  14  16
ENDBRANCH   5  12
BRANCH   9  25
HETATM   25  N2  UNK     1      18.842   2.118  20.419  1.00  0.00    -0.116 N 
HETATM   26  O5  UNK     1      17.719   2.051  20.975  1.00  0.00    -0.532 OA
HETATM   27  O6  UNK     1      19.871   2.481  21.038  1.00  0.00    -0.532 OA
ENDBRANCH   9  25
TORSDOF 5
ENDMDL
MODEL 3
REMARK VINA RESULT:      -8.5     18.952     22.502
REMARK  5 active torsions:
REMARK  status: ('A' for Active; 'I' for Inactive)
REMARK    1  A    between atoms: C15_25  and  O4_5 
REMARK       I    between atoms: C6_16  and  N1_9 
REMARK    2  A    between atoms: C7_17  and  N1_9 
REMARK    3  A    between atoms: C9_19  and  N2_10 
REMARK    4  A    between atoms: C3_13  and  C6_16 
REMARK    5  A    between atoms: C12_22  and  C15_25 
ROOT
HETATM    1  O1  UNK     1      18.680  -8.122  36.897  1.00  0.00    -0.274 OA
HETATM    2  O3  UNK     1      17.538  -6.182  37.286  1.00  0.00    -0.259 OA
HETATM    3  C1  UNK     1      21.094  -8.060  36.617  1.00  0.00     0.001 A 
HETATM    4  C2  UNK     1      19.905  -8.780  36.665  1.00  0.00     0.089 A 
HETATM    5  C3  UNK     1      19.886  -6.000  37.028  1.00  0.00     0.108 A 
HETATM    6  C4  UNK     1      21.053  -6.618  36.809  1.00  0.00     0.037 A 
HETATM    7  C5  UNK     1      22.289  -8.747  36.385  1.00  0.00     0.050 A 
HETATM    8  C8  UNK     1      19.875 -10.162  36.490  1.00  0.00     0.041 A 
HETATM    9  C9  UNK     1      22.275 -10.133  36.207  1.00  0.00     0.103 A 
HETATM   10  C10 UNK     1      18.609  -6.745  37.083  1.00  0.00     0.304 A 
HETATM   11  C11 UNK     1      21.071 -10.839  36.259  1.00  0.00     0.039 A 
ENDROOT
BRANCH   5  12
HETATM   12  C6  UNK     1      19.948  -4.545  37.211  1.00  0.00     0.262 C 
HETATM   13  O2  UNK     1      20.855  -4.052  37.879  1.00  0.00    -0.267 OA
HETATM   14  N1  UNK     1      18.908  -3.894  36.562  1.00  0.00    -0.321 N 
HETATM   15  H4  UNK     1      18.247  -4.449  36.028  1.00  0.00     0.169 HD
BRANCH  14  16
HETATM   16  C7  UNK     1      18.664  -2.515  36.528  1.00  0.00     0.058 A 
HETATM   17  C12 UNK     1      19.077  -1.714  35.501  1.00  0.00     0.106 A 
HETATM   18  S1  UNK     1      18.621  -0.084  35.760  1.00  0.00    -0.094 SA
HETATM   19  C14 UNK     1      17.872  -0.473  37.249  1.00  0.00     0.053 A 
HETATM   20  C13 UNK     1      17.969  -1.816  37.542  1.00  0.00     0.038 A 
BRANCH  17  21
HETATM   21  C15 UNK     1      19.795  -2.040  34.309  1.00  0.00     0.302 C 
HETATM   22  O7  UNK     1      20.641  -2.947  34.182  1.00  0.00    -0.259 OA
BRANCH  21  23
HETATM   23  O4  UNK     1      19.452  -1.220  33.253  1.00  0.00    -0.322 OA
HETATM   24  C16 UNK     1      19.812  -1.659  31.937  1.00  0.00     0.213 C 
ENDBRANCH  21  23
ENDBRANCH  17  21
ENDBRANCH  14  16
ENDBRANCH   5  12
BRANCH   9  25
HETATM   25  N2  UNK     1      23.491 -10.828  35.972  1.00  0.00    -0.116 N 
HETATM   26  O5  UNK     1      24.565 -10.334  36.396  1.00  0.00    -0.532 OA
HETATM   27  O6  UNK     1      23.459 -11.916  35.349  1.00  0.00    -0.532 OA
ENDBRANCH   9  25
TORSDOF 5
ENDMDL
MODEL 4
REMARK VINA RESULT:      -8.5     17.415     19.289
REMARK  5 active torsions:
REMARK  status: ('A' for Active; 'I' for Inactive)
REMARK    1  A    between atoms: C15_25  and  O4_5 
REMARK       I    between atoms: C6_16  and  N1_9 
REMARK    2  A    between atoms: C7_17  and  N1_9 
REMARK    3  A    between atoms: C9_19  and  N2_10 
REMARK    4  A    between atoms: C3_13  and  C6_16 
REMARK    5  A    between atoms: C12_22  and  C15_25 
ROOT
HETATM    1  O1  UNK     1      18.833   2.912  31.166  1.00  0.00    -0.274 OA
HETATM    2  O3  UNK     1      18.664   0.656  31.485  1.00  0.00    -0.259 OA
HETATM    3  C1  UNK     1      18.258   4.428  32.978  1.00  0.00     0.001 A 
HETATM    4  C2  UNK     1      18.696   4.220  31.674  1.00  0.00     0.089 A 
HETATM    5  C3  UNK     1      18.075   2.036  33.319  1.00  0.00     0.108 A 
HETATM    6  C4  UNK     1      17.942   3.275  33.808  1.00  0.00     0.037 A 
HETATM    7  C5  UNK     1      18.134   5.739  33.446  1.00  0.00     0.050 A 
HETATM    8  C8  UNK     1      19.014   5.280  30.828  1.00  0.00     0.041 A 
HETATM    9  C9  UNK     1      18.449   6.812  32.609  1.00  0.00     0.103 A 
HETATM   10  C10 UNK     1      18.539   1.790  31.935  1.00  0.00     0.304 A 
HETATM   11  C11 UNK     1      18.888   6.583  31.302  1.00  0.00     0.039 A 
ENDROOT
BRANCH   5  12
HETATM   12  C6  UNK     1      17.734   0.940  34.233  1.00  0.00     0.262 C 
HETATM   13  O2  UNK     1      16.579   0.520  34.279  1.00  0.00    -0.267 OA
HETATM   14  N1  UNK     1      18.834   0.506  34.960  1.00  0.00    -0.321 N 
HETATM   15  H4  UNK     1      19.733   0.946  34.788  1.00  0.00     0.169 HD
BRANCH  14  16
HETATM   16  C7  UNK     1      18.867  -0.517  35.917  1.00  0.00     0.058 A 
HETATM   17  C12 UNK     1      19.675  -1.612  35.804  1.00  0.00     0.106 A 
HETATM   18  S1  UNK     1      19.479  -2.671  37.136  1.00  0.00    -0.094 SA
HETATM   19  C14 UNK     1      18.310  -1.644  37.850  1.00  0.00     0.053 A 
HETATM   20  C13 UNK     1      18.075  -0.520  37.089  1.00  0.00     0.038 A 
BRANCH  17  21
HETATM   21  C15 UNK     1      20.609  -1.967  34.782  1.00  0.00     0.302 C 
HETATM   22  O7  UNK     1      21.831  -2.162  34.935  1.00  0.00    -0.259 OA
BRANCH  21  23
HETATM   23  O4  UNK     1      20.009  -2.081  33.545  1.00  0.00    -0.322 OA
HETATM   24  C16 UNK     1      20.857  -2.373  32.428  1.00  0.00     0.213 C 
ENDBRANCH  21  23
ENDBRANCH  17  21
ENDBRANCH  14  16
ENDBRANCH   5  12
BRANCH   9  25
HETATM   25  N2  UNK     1      18.323   8.143  33.088  1.00  0.00    -0.116 N 
HETATM   26  O5  UNK     1      17.367   8.848  32.682  1.00  0.00    -0.532 OA
HETATM   27  O6  UNK     1      19.171   8.578  33.905  1.00  0.00    -0.532 OA
ENDBRANCH   9  25
TORSDOF 5
ENDMDL
MODEL 5
REMARK VINA RESULT:      -8.4      1.558      1.682
REMARK  5 active torsions:
REMARK  status: ('A' for Active; 'I' for Inactive)
REMARK    1  A    between atoms: C15_25  and  O4_5 
REMARK       I    between atoms: C6_16  and  N1_9 
REMARK    2  A    between atoms: C7_17  and  N1_9 
REMARK    3  A    between atoms: C9_19  and  N2_10 
REMARK    4  A    between atoms: C3_13  and  C6_16 
REMARK    5  A    between atoms: C12_22  and  C15_25 
ROOT
HETATM    1  O1  UNK     1      19.204   0.631  15.158  1.00  0.00    -0.274 OA
HETATM    2  O3  UNK     1      19.301  -1.017  13.580  1.00  0.00    -0.259 OA
HETATM    3  C1  UNK     1      19.154   0.036  17.515  1.00  0.00     0.001 A 
HETATM    4  C2  UNK     1      19.153   1.004  16.517  1.00  0.00     0.089 A 
HETATM    5  C3  UNK     1      19.255  -1.715  15.843  1.00  0.00     0.108 A 
HETATM    6  C4  UNK     1      19.207  -1.368  17.135  1.00  0.00     0.037 A 
HETATM    7  C5  UNK     1      19.103   0.444  18.850  1.00  0.00     0.050 A 
HETATM    8  C8  UNK     1      19.103   2.365  16.813  1.00  0.00     0.041 A 
HETATM    9  C9  UNK     1      19.052   1.805  19.163  1.00  0.00     0.103 A 
HETATM   10  C10 UNK     1      19.255  -0.702  14.764  1.00  0.00     0.304 A 
HETATM   11  C11 UNK     1      19.052   2.763  18.147  1.00  0.00     0.039 A 
ENDROOT
BRANCH   5  12
HETATM   12  C6  UNK     1      19.308  -3.154  15.561  1.00  0.00     0.262 C 
HETATM   13  O2  UNK     1      20.288  -3.810  15.912  1.00  0.00    -0.267 OA
HETATM   14  N1  UNK     1      18.172  -3.597  14.897  1.00  0.00    -0.321 N 
HETATM   15  H4  UNK     1      17.436  -2.928  14.697  1.00  0.00     0.169 HD
BRANCH  14  16
HETATM   16  C7  UNK     1      17.894  -4.905  14.477  1.00  0.00     0.058 A 
HETATM   17  C12 UNK     1      18.423  -5.448  13.341  1.00  0.00     0.106 A 
HETATM   18  S1  UNK     1      17.889  -7.058  13.112  1.00  0.00    -0.094 SA
HETATM   19  C14 UNK     1      16.951  -7.008  14.543  1.00  0.00     0.053 A 
HETATM   20  C13 UNK     1      17.044  -5.790  15.180  1.00  0.00     0.038 A 
BRANCH  17  21
HETATM   21  C15 UNK     1      19.315  -4.881  12.378  1.00  0.00     0.302 C 
HETATM   22  O7  UNK     1      20.557  -4.818  12.469  1.00  0.00    -0.259 OA
BRANCH  21  23
HETATM   23  O4  UNK     1      18.646  -4.382  11.279  1.00  0.00    -0.322 OA
HETATM   24  C16 UNK     1      19.125  -3.152  10.721  1.00  0.00     0.213 C 
ENDBRANCH  21  23
ENDBRANCH  17  21
ENDBRANCH  14  16
ENDBRANCH   5  12
BRANCH   9  25
HETATM   25  N2  UNK     1      19.001   2.217  20.522  1.00  0.00    -0.116 N 
HETATM   26  O5  UNK     1      17.886   2.290  21.093  1.00  0.00    -0.532 OA
HETATM   27  O6  UNK     1      20.072   2.496  21.113  1.00  0.00    -0.532 OA
ENDBRANCH   9  25
TORSDOF 5
ENDMDL
MODEL 6
REMARK VINA RESULT:      -8.4     15.105     18.591
REMARK  5 active torsions:
REMARK  status: ('A' for Active; 'I' for Inactive)
REMARK    1  A    between atoms: C15_25  and  O4_5 
REMARK       I    between atoms: C6_16  and  N1_9 
REMARK    2  A    between atoms: C7_17  and  N1_9 
REMARK    3  A    between atoms: C9_19  and  N2_10 
REMARK    4  A    between atoms: C3_13  and  C6_16 
REMARK    5  A    between atoms: C12_22  and  C15_25 
ROOT
HETATM    1  O1  UNK     1      20.861  -2.796  30.601  1.00  0.00    -0.274 OA
HETATM    2  O3  UNK     1      21.506  -4.339  32.158  1.00  0.00    -0.259 OA
HETATM    3  C1  UNK     1      19.762  -0.751  31.322  1.00  0.00     0.001 A 
HETATM    4  C2  UNK     1      20.260  -1.556  30.304  1.00  0.00     0.089 A 
HETATM    5  C3  UNK     1      20.443  -2.386  32.975  1.00  0.00     0.108 A 
HETATM    6  C4  UNK     1      19.871  -1.208  32.699  1.00  0.00     0.037 A 
HETATM    7  C5  UNK     1      19.174   0.472  30.987  1.00  0.00     0.050 A 
HETATM    8  C8  UNK     1      20.187  -1.177  28.964  1.00  0.00     0.041 A 
HETATM    9  C9  UNK     1      19.092   0.865  29.649  1.00  0.00     0.103 A 
HETATM   10  C10 UNK     1      20.979  -3.260  31.908  1.00  0.00     0.304 A 
HETATM   11  C11 UNK     1      19.598   0.043  28.640  1.00  0.00     0.039 A 
ENDROOT
BRANCH   5  12
HETATM   12  C6  UNK     1      20.507  -2.758  34.393  1.00  0.00     0.262 C 
HETATM   13  O2  UNK     1      20.837  -1.920  35.230  1.00  0.00    -0.267 OA
HETATM   14  N1  UNK     1      20.164  -4.088  34.599  1.00  0.00    -0.321 N 
HETATM   15  H4  UNK     1      19.891  -4.647  33.797  1.00  0.00     0.169 HD
BRANCH  14  16
HETATM   16  C7  UNK     1      20.119  -4.771  35.821  1.00  0.00     0.058 A 
HETATM   17  C12 UNK     1      20.152  -6.133  35.911  1.00  0.00     0.106 A 
HETATM   18  S1  UNK     1      20.084  -6.653  37.541  1.00  0.00    -0.094 SA
HETATM   19  C14 UNK     1      20.010  -5.039  38.109  1.00  0.00     0.053 A 
HETATM   20  C13 UNK     1      20.037  -4.126  37.077  1.00  0.00     0.038 A 
BRANCH  17  21
HETATM   21  C15 UNK     1      20.235  -7.123  34.883  1.00  0.00     0.302 C 
HETATM   22  O7  UNK     1      20.263  -6.910  33.655  1.00  0.00    -0.259 OA
BRANCH  21  23
HETATM   23  O4  UNK     1      20.286  -8.404  35.395  1.00  0.00    -0.322 OA
HETATM   24  C16 UNK     1      21.448  -9.185  35.096  1.00  0.00     0.213 C 
ENDBRANCH  21  23
ENDBRANCH  17  21
ENDBRANCH  14  16
ENDBRANCH   5  12
BRANCH   9  25
HETATM   25  N2  UNK     1      18.494   2.109  29.312  1.00  0.00    -0.116 N 
HETATM   26  O5  UNK     1      17.963   2.242  28.183  1.00  0.00    -0.532 OA
HETATM   27  O6  UNK     1      18.513   3.040  30.153  1.00  0.00    -0.532 OA
ENDBRANCH   9  25
TORSDOF 5
ENDMDL
MODEL 7
REMARK VINA RESULT:      -8.2     18.244     21.137
REMARK  5 active torsions:
REMARK  status: ('A' for Active; 'I' for Inactive)
REMARK    1  A    between atoms: C15_25  and  O4_5 
REMARK       I    between atoms: C6_16  and  N1_9 
REMARK    2  A    between atoms: C7_17  and  N1_9 
REMARK    3  A    between atoms: C9_19  and  N2_10 
REMARK    4  A    between atoms: C3_13  and  C6_16 
REMARK    5  A    between atoms: C12_22  and  C15_25 
ROOT
HETATM    1  O1  UNK     1      17.901   1.927  32.531  1.00  0.00    -0.274 OA
HETATM    2  O3  UNK     1      18.163   3.562  30.957  1.00  0.00    -0.259 OA
HETATM    3  C1  UNK     1      18.249   2.452  34.879  1.00  0.00     0.001 A 
HETATM    4  C2  UNK     1      17.928   1.534  33.884  1.00  0.00     0.089 A 
HETATM    5  C3  UNK     1      18.530   4.188  33.213  1.00  0.00     0.108 A 
HETATM    6  C4  UNK     1      18.557   3.822  34.500  1.00  0.00     0.037 A 
HETATM    7  C5  UNK     1      18.265   2.026  36.209  1.00  0.00     0.050 A 
HETATM    8  C8  UNK     1      17.622   0.207  34.180  1.00  0.00     0.041 A 
HETATM    9  C9  UNK     1      17.962   0.698  36.522  1.00  0.00     0.103 A 
HETATM   10  C10 UNK     1      18.191   3.229  32.137  1.00  0.00     0.304 A 
HETATM   11  C11 UNK     1      17.641  -0.210  35.509  1.00  0.00     0.039 A 
ENDROOT
BRANCH   5  12
HETATM   12  C6  UNK     1      18.854   5.592  32.932  1.00  0.00     0.262 C 
HETATM   13  O2  UNK     1      19.360   5.897  31.853  1.00  0.00    -0.267 OA
HETATM   14  N1  UNK     1      18.523   6.426  33.991  1.00  0.00    -0.321 N 
HETATM   15  H4  UNK     1      18.088   6.016  34.812  1.00  0.00     0.169 HD
BRANCH  14  16
HETATM   16  C7  UNK     1      18.695   7.814  34.061  1.00  0.00     0.058 A 
HETATM   17  C12 UNK     1      17.727   8.702  33.685  1.00  0.00     0.106 A 
HETATM   18  S1  UNK     1      18.249  10.319  33.894  1.00  0.00    -0.094 SA
HETATM   19  C14 UNK     1      19.771   9.809  34.489  1.00  0.00     0.053 A 
HETATM   20  C13 UNK     1      19.878   8.435  34.526  1.00  0.00     0.038 A 
BRANCH  17  21
HETATM   21  C15 UNK     1      16.413   8.469  33.173  1.00  0.00     0.302 C 
HETATM   22  O7  UNK     1      15.935   8.945  32.125  1.00  0.00    -0.259 OA
BRANCH  21  23
HETATM   23  O4  UNK     1      15.680   7.627  33.984  1.00  0.00    -0.322 OA
HETATM   24  C16 UNK     1      14.280   7.503  33.707  1.00  0.00     0.213 C 
ENDBRANCH  21  23
ENDBRANCH  17  21
ENDBRANCH  14  16
ENDBRANCH   5  12
BRANCH   9  25
HETATM   25  N2  UNK     1      17.978   0.268  37.875  1.00  0.00    -0.116 N 
HETATM   26  O5  UNK     1      17.903   1.127  38.787  1.00  0.00    -0.532 OA
HETATM   27  O6  UNK     1      18.068  -0.959  38.122  1.00  0.00    -0.532 OA
ENDBRANCH   9  25
TORSDOF 5
ENDMDL
MODEL 8
REMARK VINA RESULT:      -8.2     17.326     20.765
REMARK  5 active torsions:
REMARK  status: ('A' for Active; 'I' for Inactive)
REMARK    1  A    between atoms: C15_25  and  O4_5 
REMARK       I    between atoms: C6_16  and  N1_9 
REMARK    2  A    between atoms: C7_17  and  N1_9 
REMARK    3  A    between atoms: C9_19  and  N2_10 
REMARK    4  A    between atoms: C3_13  and  C6_16 
REMARK    5  A    between atoms: C12_22  and  C15_25 
ROOT
HETATM    1  O1  UNK     1      18.559  -0.685  36.533  1.00  0.00    -0.274 OA
HETATM    2  O3  UNK     1      18.873  -2.030  38.352  1.00  0.00    -0.259 OA
HETATM    3  C1  UNK     1      19.312  -1.429  34.344  1.00  0.00     0.001 A 
HETATM    4  C2  UNK     1      18.706  -0.469  35.147  1.00  0.00     0.089 A 
HETATM    5  C3  UNK     1      19.648  -2.857  36.272  1.00  0.00     0.108 A 
HETATM    6  C4  UNK     1      19.791  -2.659  34.956  1.00  0.00     0.037 A 
HETATM    7  C5  UNK     1      19.440  -1.179  32.975  1.00  0.00     0.050 A 
HETATM    8  C8  UNK     1      18.226   0.730  34.624  1.00  0.00     0.041 A 
HETATM    9  C9  UNK     1      18.963   0.019  32.436  1.00  0.00     0.103 A 
HETATM   10  C10 UNK     1      19.007  -1.850  37.146  1.00  0.00     0.304 A 
HETATM   11  C11 UNK     1      18.358   0.971  33.258  1.00  0.00     0.039 A 
ENDROOT
BRANCH   5  12
HETATM   12  C6  UNK     1      20.162  -4.129  36.795  1.00  0.00     0.262 C 
HETATM   13  O2  UNK     1      21.376  -4.300  36.900  1.00  0.00    -0.267 OA
HETATM   14  N1  UNK     1      19.140  -5.012  37.115  1.00  0.00    -0.321 N 
HETATM   15  H4  UNK     1      18.180  -4.708  36.988  1.00  0.00     0.169 HD
BRANCH  14  16
HETATM   16  C7  UNK     1      19.272  -6.306  37.634  1.00  0.00     0.058 A 
HETATM   17  C12 UNK     1      18.891  -7.424  36.947  1.00  0.00     0.106 A 
HETATM   18  S1  UNK     1      19.186  -8.845  37.855  1.00  0.00    -0.094 SA
HETATM   19  C14 UNK     1      19.823  -7.943  39.163  1.00  0.00     0.053 A 
HETATM   20  C13 UNK     1      19.811  -6.588  38.911  1.00  0.00     0.038 A 
BRANCH  17  21
HETATM   21  C15 UNK     1      18.316  -7.553  35.645  1.00  0.00     0.302 C 
HETATM   22  O7  UNK     1      17.223  -8.088  35.371  1.00  0.00    -0.259 OA
BRANCH  21  23
HETATM   23  O4  UNK     1      19.117  -7.005  34.665  1.00  0.00    -0.322 OA
HETATM   24  C16 UNK     1      20.480  -7.444  34.608  1.00  0.00     0.213 C 
ENDBRANCH  21  23
ENDBRANCH  17  21
ENDBRANCH  14  16
ENDBRANCH   5  12
BRANCH   9  25
HETATM   25  N2  UNK     1      19.094   0.269  31.044  1.00  0.00    -0.116 N 
HETATM   26  O5  UNK     1      18.352   1.128  30.508  1.00  0.00    -0.532 OA
HETATM   27  O6  UNK     1      19.948  -0.375  30.388  1.00  0.00    -0.532 OA
ENDBRANCH   9  25
TORSDOF 5
ENDMDL
MODEL 9
REMARK VINA RESULT:      -8.0     18.657     21.289
REMARK  5 active torsions:
REMARK  status: ('A' for Active; 'I' for Inactive)
REMARK    1  A    between atoms: C15_25  and  O4_5 
REMARK       I    between atoms: C6_16  and  N1_9 
REMARK    2  A    between atoms: C7_17  and  N1_9 
REMARK    3  A    between atoms: C9_19  and  N2_10 
REMARK    4  A    between atoms: C3_13  and  C6_16 
REMARK    5  A    between atoms: C12_22  and  C15_25 
ROOT
HETATM    1  O1  UNK     1      18.646  -0.314  37.295  1.00  0.00    -0.274 OA
HETATM    2  O3  UNK     1      19.156  -2.324  38.253  1.00  0.00    -0.259 OA
HETATM    3  C1  UNK     1      18.664  -0.099  34.873  1.00  0.00     0.001 A 
HETATM    4  C2  UNK     1      18.474   0.463  36.131  1.00  0.00     0.089 A 
HETATM    5  C3  UNK     1      19.207  -2.232  35.886  1.00  0.00     0.108 A 
HETATM    6  C4  UNK     1      19.045  -1.500  34.777  1.00  0.00     0.037 A 
HETATM    7  C5  UNK     1      18.483   0.703  33.743  1.00  0.00     0.050 A 
HETATM    8  C8  UNK     1      18.109   1.798  36.292  1.00  0.00     0.041 A 
HETATM    9  C9  UNK     1      18.118   2.044  33.888  1.00  0.00     0.103 A 
HETATM   10  C10 UNK     1      19.010  -1.656  37.235  1.00  0.00     0.304 A 
HETATM   11  C11 UNK     1      17.931   2.590  35.160  1.00  0.00     0.039 A 
ENDROOT
BRANCH   5  12
HETATM   12  C6  UNK     1      19.590  -3.634  35.685  1.00  0.00     0.262 C 
HETATM   13  O2  UNK     1      20.401  -3.926  34.808  1.00  0.00    -0.267 OA
HETATM   14  N1  UNK     1      18.940  -4.484  36.570  1.00  0.00    -0.321 N 
HETATM   15  H4  UNK     1      18.310  -4.079  37.256  1.00  0.00     0.169 HD
BRANCH  14  16
HETATM   16  C7  UNK     1      19.070  -5.876  36.657  1.00  0.00     0.058 A 
HETATM   17  C12 UNK     1      20.109  -6.485  37.303  1.00  0.00     0.106 A 
HETATM   18  S1  UNK     1      19.974  -8.190  37.229  1.00  0.00    -0.094 SA
HETATM   19  C14 UNK     1      18.520  -8.091  36.331  1.00  0.00     0.053 A 
HETATM   20  C13 UNK     1      18.147  -6.786  36.092  1.00  0.00     0.038 A 
BRANCH  17  21
HETATM   21  C15 UNK     1      21.225  -5.918  37.992  1.00  0.00     0.302 C 
HETATM   22  O7  UNK     1      21.942  -4.981  37.591  1.00  0.00    -0.259 OA
BRANCH  21  23
HETATM   23  O4  UNK     1      21.452  -6.531  39.208  1.00  0.00    -0.322 OA
HETATM   24  C16 UNK     1      22.801  -6.903  39.514  1.00  0.00     0.213 C 
ENDBRANCH  21  23
ENDBRANCH  17  21
ENDBRANCH  14  16
ENDBRANCH   5  12
BRANCH   9  25
HETATM   25  N2  UNK     1      17.934   2.856  32.737  1.00  0.00    -0.116 N 
HETATM   26  O5  UNK     1      17.902   4.103  32.872  1.00  0.00    -0.532 OA
HETATM   27  O6  UNK     1      17.809   2.304  31.618  1.00  0.00    -0.532 OA
ENDBRANCH   9  25
TORSDOF 5
ENDMDL
MODEL 10
REMARK VINA RESULT:      -7.9     17.218     20.306
REMARK  5 active torsions:
REMARK  status: ('A' for Active; 'I' for Inactive)
REMARK    1  A    between atoms: C15_25  and  O4_5 
REMARK       I    between atoms: C6_16  and  N1_9 
REMARK    2  A    between atoms: C7_17  and  N1_9 
REMARK    3  A    between atoms: C9_19  and  N2_10 
REMARK    4  A    between atoms: C3_13  and  C6_16 
REMARK    5  A    between atoms: C12_22  and  C15_25 
ROOT
HETATM    1  O1  UNK     1      18.666   0.473  32.072  1.00  0.00    -0.274 OA
HETATM    2  O3  UNK     1      18.654   1.917  30.302  1.00  0.00    -0.259 OA
HETATM    3  C1  UNK     1      18.288   1.323  34.318  1.00  0.00     0.001 A 
HETATM    4  C2  UNK     1      18.541   0.258  33.459  1.00  0.00     0.089 A 
HETATM    5  C3  UNK     1      18.277   2.857  32.443  1.00  0.00     0.108 A 
HETATM    6  C4  UNK     1      18.156   2.661  33.762  1.00  0.00     0.037 A 
HETATM    7  C5  UNK     1      18.170   1.070  35.687  1.00  0.00     0.050 A 
HETATM    8  C8  UNK     1      18.678  -1.047  33.928  1.00  0.00     0.041 A 
HETATM    9  C9  UNK     1      18.306  -0.233  36.172  1.00  0.00     0.103 A 
HETATM   10  C10 UNK     1      18.546   1.740  31.511  1.00  0.00     0.304 A 
HETATM   11  C11 UNK     1      18.559  -1.290  35.294  1.00  0.00     0.039 A 
ENDROOT
BRANCH   5  12
HETATM   12  C6  UNK     1      18.126   4.241  31.979  1.00  0.00     0.262 C 
HETATM   13  O2  UNK     1      18.558   4.565  30.873  1.00  0.00    -0.267 OA
HETATM   14  N1  UNK     1      17.478   5.037  32.914  1.00  0.00    -0.321 N 
HETATM   15  H4  UNK     1      17.162   4.609  33.778  1.00  0.00     0.169 HD
BRANCH  14  16
HETATM   16  C7  UNK     1      17.171   6.399  32.798  1.00  0.00     0.058 A 
HETATM   17  C12 UNK     1      17.886   7.377  33.430  1.00  0.00     0.106 A 
HETATM   18  S1  UNK     1      17.258   8.932  33.083  1.00  0.00    -0.094 SA
HETATM   19  C14 UNK     1      16.032   8.273  32.086  1.00  0.00     0.053 A 
HETATM   20  C13 UNK     1      16.101   6.899  32.020  1.00  0.00     0.038 A 
BRANCH  17  21
HETATM   21  C15 UNK     1      19.023   7.277  34.289  1.00  0.00     0.302 C 
HETATM   22  O7  UNK     1      19.264   7.993  35.281  1.00  0.00    -0.259 OA
BRANCH  21  23
HETATM   23  O4  UNK     1      19.879   6.264  33.906  1.00  0.00    -0.322 OA
HETATM   24  C16 UNK     1      20.842   6.568  32.889  1.00  0.00     0.213 C 
ENDBRANCH  21  23
ENDBRANCH  17  21
ENDBRANCH  14  16
ENDBRANCH   5  12
BRANCH   9  25
HETATM   25  N2  UNK     1      18.185  -0.486  37.565  1.00  0.00    -0.116 N 
HETATM   26  O5  UNK     1      17.964   0.476  38.340  1.00  0.00    -0.532 OA
HETATM   27  O6  UNK     1      18.300  -1.664  37.981  1.00  0.00    -0.532 OA
ENDBRANCH   9  25
TORSDOF 5
ENDMDL
