MODEL 1
REMARK VINA RESULT:      -7.5      0.000      0.000
REMARK  7 active torsions:
REMARK  status: ('A' for Active; 'I' for Inactive)
REMARK    1  A    between atoms: C1_5  and  N1_4 
REMARK    2  A    between atoms: C2_6  and  N1_4 
REMARK       I    between atoms: C7_11  and  N1_4 
REMARK    3  A    between atoms: C1_5  and  C3_7 
REMARK    4  A    between atoms: C2_6  and  C4_8 
REMARK    5  A    between atoms: C3_7  and  C5_9 
REMARK    6  A    between atoms: C4_8  and  C6_10 
REMARK    7  A    between atoms: C7_11  and  C8_12 
ROOT
HETATM    1  O1  UNK     1      18.997   1.152  31.612  1.00  0.00    -0.274 OA
HETATM    2  O3  UNK     1      17.785   1.919  33.390  1.00  0.00    -0.259 OA
HETATM    3  C8  UNK     1      18.184  -0.415  33.306  1.00  0.00     0.108 A 
HETATM    4  C11 UNK     1      18.739  -1.446  32.658  1.00  0.00     0.037 A 
HETATM    5  C12 UNK     1      19.471  -1.226  31.419  1.00  0.00    -0.001 A 
HETATM    6  C13 UNK     1      18.292   0.973  32.798  1.00  0.00     0.304 A 
HETATM    7  C14 UNK     1      19.583   0.070  30.925  1.00  0.00     0.089 A 
HETATM    8  C15 UNK     1      20.065  -2.272  30.710  1.00  0.00     0.014 A 
HETATM    9  C16 UNK     1      20.270   0.348  29.746  1.00  0.00     0.038 A 
HETATM   10  C17 UNK     1      20.758  -2.008  29.525  1.00  0.00     0.001 A 
HETATM   11  C18 UNK     1      20.861  -0.701  29.044  1.00  0.00     0.003 A 
ENDROOT
BRANCH   3  12
HETATM   12  C7  UNK     1      17.468  -0.737  34.545  1.00  0.00     0.259 C 
HETATM   13  O2  UNK     1      16.239  -0.609  34.561  1.00  0.00    -0.267 OA
HETATM   14  N1  UNK     1      18.224  -1.185  35.633  1.00  0.00    -0.348 N 
BRANCH  14  15
HETATM   15  C1  UNK     1      17.613  -1.547  36.906  1.00  0.00     0.126 C 
BRANCH  15  16
HETATM   16  C3  UNK     1      17.879  -0.512  37.994  1.00  0.00     0.020 C 
BRANCH  16  17
HETATM   17  C5  UNK     1      17.168   0.817  37.728  1.00  0.00    -0.003 C 
HETATM   18  C9  UNK     1      18.105   1.830  37.089  1.00  0.00     0.005 C 
ENDBRANCH  16  17
ENDBRANCH  15  16
ENDBRANCH  14  15
BRANCH  14  19
HETATM   19  C2  UNK     1      19.676  -1.321  35.568  1.00  0.00     0.126 C 
BRANCH  19  20
HETATM   20  C4  UNK     1      20.130  -2.773  35.665  1.00  0.00     0.020 C 
BRANCH  20  21
HETATM   21  C6  UNK     1      20.581  -3.156  37.077  1.00  0.00    -0.003 C 
HETATM   22  C10 UNK     1      20.500  -4.657  37.298  1.00  0.00     0.005 C 
ENDBRANCH  20  21
ENDBRANCH  19  20
ENDBRANCH  14  19
ENDBRANCH   3  12
TORSDOF 7
ENDMDL
MODEL 2
REMARK VINA RESULT:      -7.4     15.936     18.358
REMARK  7 active torsions:
REMARK  status: ('A' for Active; 'I' for Inactive)
REMARK    1  A    between atoms: C1_5  and  N1_4 
REMARK    2  A    between atoms: C2_6  and  N1_4 
REMARK       I    between atoms: C7_11  and  N1_4 
REMARK    3  A    between atoms: C1_5  and  C3_7 
REMARK    4  A    between atoms: C2_6  and  C4_8 
REMARK    5  A    between atoms: C3_7  and  C5_9 
REMARK    6  A    between atoms: C4_8  and  C6_10 
REMARK    7  A    between atoms: C7_11  and  C8_12 
ROOT
HETATM    1  O1  UNK     1      19.299   0.881  15.281  1.00  0.00    -0.274 OA
HETATM    2  O3  UNK     1      19.272  -0.606  13.547  1.00  0.00    -0.259 OA
HETATM    3  C8  UNK     1      18.836  -1.483  15.705  1.00  0.00     0.108 A 
HETATM    4  C11 UNK     1      18.702  -1.249  17.017  1.00  0.00     0.037 A 
HETATM    5  C12 UNK     1      18.866   0.098  17.542  1.00  0.00    -0.001 A 
HETATM    6  C13 UNK     1      19.149  -0.396  14.749  1.00  0.00     0.304 A 
HETATM    7  C14 UNK     1      19.160   1.133  16.660  1.00  0.00     0.089 A 
HETATM    8  C15 UNK     1      18.736   0.387  18.902  1.00  0.00     0.014 A 
HETATM    9  C16 UNK     1      19.328   2.445  17.099  1.00  0.00     0.038 A 
HETATM   10  C17 UNK     1      18.902   1.699  19.357  1.00  0.00     0.001 A 
HETATM   11  C18 UNK     1      19.197   2.725  18.457  1.00  0.00     0.003 A 
ENDROOT
BRANCH   3  12
HETATM   12  C7  UNK     1      18.653  -2.873  15.272  1.00  0.00     0.259 C 
HETATM   13  O2  UNK     1      17.501  -3.281  15.085  1.00  0.00    -0.267 OA
HETATM   14  N1  UNK     1      19.801  -3.648  15.084  1.00  0.00    -0.348 N 
BRANCH  14  15
HETATM   15  C1  UNK     1      19.736  -5.036  14.641  1.00  0.00     0.126 C 
BRANCH  15  16
HETATM   16  C3  UNK     1      19.236  -5.973  15.735  1.00  0.00     0.020 C 
BRANCH  16  17
HETATM   17  C5  UNK     1      17.906  -6.641  15.376  1.00  0.00    -0.003 C 
HETATM   18  C9  UNK     1      16.864  -6.422  16.461  1.00  0.00     0.005 C 
ENDBRANCH  16  17
ENDBRANCH  15  16
ENDBRANCH  14  15
BRANCH  14  19
HETATM   19  C2  UNK     1      21.143  -3.122  15.317  1.00  0.00     0.126 C 
BRANCH  19  20
HETATM   20  C4  UNK     1      21.788  -3.709  16.569  1.00  0.00     0.020 C 
BRANCH  20  21
HETATM   21  C6  UNK     1      23.317  -3.715  16.495  1.00  0.00    -0.003 C 
HETATM   22  C10 UNK     1      23.934  -3.032  17.705  1.00  0.00     0.005 C 
ENDBRANCH  20  21
ENDBRANCH  19  20
ENDBRANCH  14  19
ENDBRANCH   3  12
TORSDOF 7
ENDMDL
MODEL 3
REMARK VINA RESULT:      -7.4      5.692      8.636
REMARK  7 active torsions:
REMARK  status: ('A' for Active; 'I' for Inactive)
REMARK    1  A    between atoms: C1_5  and  N1_4 
REMARK    2  A    between atoms: C2_6  and  N1_4 
REMARK       I    between atoms: C7_11  and  N1_4 
REMARK    3  A    between atoms: C1_5  and  C3_7 
REMARK    4  A    between atoms: C2_6  and  C4_8 
REMARK    5  A    between atoms: C3_7  and  C5_9 
REMARK    6  A    between atoms: C4_8  and  C6_10 
REMARK    7  A    between atoms: C7_11  and  C8_12 
ROOT
HETATM    1  O1  UNK     1      19.057   7.903  33.500  1.00  0.00    -0.274 OA
HETATM    2  O3  UNK     1      20.654   6.393  32.877  1.00  0.00    -0.259 OA
HETATM    3  C8  UNK     1      18.642   6.388  31.625  1.00  0.00     0.108 A 
HETATM    4  C11 UNK     1      17.426   6.914  31.433  1.00  0.00     0.037 A 
HETATM    5  C12 UNK     1      16.950   7.991  32.288  1.00  0.00    -0.001 A 
HETATM    6  C13 UNK     1      19.540   6.873  32.699  1.00  0.00     0.304 A 
HETATM    7  C14 UNK     1      17.778   8.461  33.302  1.00  0.00     0.089 A 
HETATM    8  C15 UNK     1      15.689   8.569  32.124  1.00  0.00     0.014 A 
HETATM    9  C16 UNK     1      17.382   9.490  34.155  1.00  0.00     0.038 A 
HETATM   10  C17 UNK     1      15.278   9.602  32.972  1.00  0.00     0.001 A 
HETATM   11  C18 UNK     1      16.123  10.061  33.984  1.00  0.00     0.003 A 
ENDROOT
BRANCH   3  12
HETATM   12  C7  UNK     1      19.033   5.307  30.712  1.00  0.00     0.259 C 
HETATM   13  O2  UNK     1      19.607   5.608  29.661  1.00  0.00    -0.267 OA
HETATM   14  N1  UNK     1      18.740   3.996  31.100  1.00  0.00    -0.348 N 
BRANCH  14  15
HETATM   15  C1  UNK     1      19.096   2.846  30.277  1.00  0.00     0.126 C 
BRANCH  15  16
HETATM   16  C3  UNK     1      18.055   2.556  29.202  1.00  0.00     0.020 C 
BRANCH  16  17
HETATM   17  C5  UNK     1      18.228   1.169  28.575  1.00  0.00    -0.003 C 
HETATM   18  C9  UNK     1      19.489   0.485  29.079  1.00  0.00     0.005 C 
ENDBRANCH  16  17
ENDBRANCH  15  16
ENDBRANCH  14  15
BRANCH  14  19
HETATM   19  C2  UNK     1      18.059   3.688  32.354  1.00  0.00     0.126 C 
BRANCH  19  20
HETATM   20  C4  UNK     1      18.277   2.244  32.795  1.00  0.00     0.020 C 
BRANCH  20  21
HETATM   21  C6  UNK     1      18.186   2.073  34.313  1.00  0.00    -0.003 C 
HETATM   22  C10 UNK     1      17.313   0.887  34.688  1.00  0.00     0.005 C 
ENDBRANCH  20  21
ENDBRANCH  19  20
ENDBRANCH  14  19
ENDBRANCH   3  12
TORSDOF 7
ENDMDL
MODEL 4
REMARK VINA RESULT:      -7.1      3.430      6.522
REMARK  7 active torsions:
REMARK  status: ('A' for Active; 'I' for Inactive)
REMARK    1  A    between atoms: C1_5  and  N1_4 
REMARK    2  A    between atoms: C2_6  and  N1_4 
REMARK       I    between atoms: C7_11  and  N1_4 
REMARK    3  A    between atoms: C1_5  and  C3_7 
REMARK    4  A    between atoms: C2_6  and  C4_8 
REMARK    5  A    between atoms: C3_7  and  C5_9 
REMARK    6  A    between atoms: C4_8  and  C6_10 
REMARK    7  A    between atoms: C7_11  and  C8_12 
ROOT
HETATM    1  O1  UNK     1      19.258  -1.761  34.647  1.00  0.00    -0.274 OA
HETATM    2  O3  UNK     1      20.603  -3.572  34.287  1.00  0.00    -0.259 OA
HETATM    3  C8  UNK     1      19.904  -3.196  36.520  1.00  0.00     0.108 A 
HETATM    4  C11 UNK     1      19.204  -2.440  37.376  1.00  0.00     0.037 A 
HETATM    5  C12 UNK     1      18.477  -1.274  36.898  1.00  0.00    -0.001 A 
HETATM    6  C13 UNK     1      19.964  -2.882  35.074  1.00  0.00     0.304 A 
HETATM    7  C14 UNK     1      18.521  -0.961  35.543  1.00  0.00     0.089 A 
HETATM    8  C15 UNK     1      17.736  -0.457  37.756  1.00  0.00     0.014 A 
HETATM    9  C16 UNK     1      17.847   0.141  35.023  1.00  0.00     0.038 A 
HETATM   10  C17 UNK     1      17.054   0.653  37.247  1.00  0.00     0.001 A 
HETATM   11  C18 UNK     1      17.109   0.950  35.884  1.00  0.00     0.003 A 
ENDROOT
BRANCH   3  12
HETATM   12  C7  UNK     1      20.603  -4.351  37.096  1.00  0.00     0.259 C 
HETATM   13  O2  UNK     1      21.717  -4.169  37.599  1.00  0.00    -0.267 OA
HETATM   14  N1  UNK     1      19.955  -5.588  37.051  1.00  0.00    -0.348 N 
BRANCH  14  15
HETATM   15  C1  UNK     1      20.551  -6.798  37.606  1.00  0.00     0.126 C 
BRANCH  15  16
HETATM   16  C3  UNK     1      20.103  -7.061  39.039  1.00  0.00     0.020 C 
BRANCH  16  17
HETATM   17  C5  UNK     1      20.017  -8.555  39.363  1.00  0.00    -0.003 C 
HETATM   18  C9  UNK     1      19.123  -9.287  38.375  1.00  0.00     0.005 C 
ENDBRANCH  16  17
ENDBRANCH  15  16
ENDBRANCH  14  15
BRANCH  14  19
HETATM   19  C2  UNK     1      18.636  -5.755  36.445  1.00  0.00     0.126 C 
BRANCH  19  20
HETATM   20  C4  UNK     1      18.626  -6.825  35.358  1.00  0.00     0.020 C 
BRANCH  20  21
HETATM   21  C6  UNK     1      17.481  -7.825  35.527  1.00  0.00    -0.003 C 
HETATM   22  C10 UNK     1      16.169  -7.261  35.004  1.00  0.00     0.005 C 
ENDBRANCH  20  21
ENDBRANCH  19  20
ENDBRANCH  14  19
ENDBRANCH   3  12
TORSDOF 7
ENDMDL
MODEL 5
REMARK VINA RESULT:      -7.1     25.092     27.451
REMARK  7 active torsions:
REMARK  status: ('A' for Active; 'I' for Inactive)
REMARK    1  A    between atoms: C1_5  and  N1_4 
REMARK    2  A    between atoms: C2_6  and  N1_4 
REMARK       I    between atoms: C7_11  and  N1_4 
REMARK    3  A    between atoms: C1_5  and  C3_7 
REMARK    4  A    between atoms: C2_6  and  C4_8 
REMARK    5  A    between atoms: C3_7  and  C5_9 
REMARK    6  A    between atoms: C4_8  and  C6_10 
REMARK    7  A    between atoms: C7_11  and  C8_12 
ROOT
HETATM    1  O1  UNK     1      14.792   9.441  11.083  1.00  0.00    -0.274 OA
HETATM    2  O3  UNK     1      13.011   8.052  11.426  1.00  0.00    -0.259 OA
HETATM    3  C8  UNK     1      13.441   8.693   9.186  1.00  0.00     0.108 A 
HETATM    4  C11 UNK     1      14.204   9.388   8.333  1.00  0.00     0.037 A 
HETATM    5  C12 UNK     1      15.331  10.167   8.825  1.00  0.00    -0.001 A 
HETATM    6  C13 UNK     1      13.708   8.687  10.642  1.00  0.00     0.304 A 
HETATM    7  C14 UNK     1      15.599  10.174  10.190  1.00  0.00     0.089 A 
HETATM    8  C15 UNK     1      16.152  10.907   7.972  1.00  0.00     0.014 A 
HETATM    9  C16 UNK     1      16.662  10.899  10.725  1.00  0.00     0.038 A 
HETATM   10  C17 UNK     1      17.223  11.639   8.495  1.00  0.00     0.001 A 
HETATM   11  C18 UNK     1      17.478  11.634   9.867  1.00  0.00     0.003 A 
ENDROOT
BRANCH   3  12
HETATM   12  C7  UNK     1      12.329   7.940   8.594  1.00  0.00     0.259 C 
HETATM   13  O2  UNK     1      11.208   8.461   8.586  1.00  0.00    -0.267 OA
HETATM   14  N1  UNK     1      12.612   6.678   8.063  1.00  0.00    -0.348 N 
BRANCH  14  15
HETATM   15  C1  UNK     1      11.586   5.850   7.439  1.00  0.00     0.126 C 
BRANCH  15  16
HETATM   16  C3  UNK     1      11.321   6.247   5.992  1.00  0.00     0.020 C 
BRANCH  16  17
HETATM   17  C5  UNK     1       9.833   6.465   5.705  1.00  0.00    -0.003 C 
HETATM   18  C9  UNK     1       8.979   6.126   6.916  1.00  0.00     0.005 C 
ENDBRANCH  16  17
ENDBRANCH  15  16
ENDBRANCH  14  15
BRANCH  14  19
HETATM   19  C2  UNK     1      13.954   6.103   8.097  1.00  0.00     0.126 C 
BRANCH  19  20
HETATM   20  C4  UNK     1      14.084   4.988   9.129  1.00  0.00     0.020 C 
BRANCH  20  21
HETATM   21  C6  UNK     1      15.097   5.318  10.227  1.00  0.00    -0.003 C 
HETATM   22  C10 UNK     1      16.226   6.188   9.698  1.00  0.00     0.005 C 
ENDBRANCH  20  21
ENDBRANCH  19  20
ENDBRANCH  14  19
ENDBRANCH   3  12
TORSDOF 7
ENDMDL
MODEL 6
REMARK VINA RESULT:      -7.0     25.354     27.440
REMARK  7 active torsions:
REMARK  status: ('A' for Active; 'I' for Inactive)
REMARK    1  A    between atoms: C1_5  and  N1_4 
REMARK    2  A    between atoms: C2_6  and  N1_4 
REMARK       I    between atoms: C7_11  and  N1_4 
REMARK    3  A    between atoms: C1_5  and  C3_7 
REMARK    4  A    between atoms: C2_6  and  C4_8 
REMARK    5  A    between atoms: C3_7  and  C5_9 
REMARK    6  A    between atoms: C4_8  and  C6_10 
REMARK    7  A    between atoms: C7_11  and  C8_12 
ROOT
HETATM    1  O1  UNK     1      10.879   8.121   9.517  1.00  0.00    -0.274 OA
HETATM    2  O3  UNK     1      12.396   9.289  10.763  1.00  0.00    -0.259 OA
HETATM    3  C8  UNK     1      13.132   8.512   8.648  1.00  0.00     0.108 A 
HETATM    4  C11 UNK     1      12.842   7.850   7.521  1.00  0.00     0.037 A 
HETATM    5  C12 UNK     1      11.520   7.273   7.329  1.00  0.00    -0.001 A 
HETATM    6  C13 UNK     1      12.134   8.683   9.729  1.00  0.00     0.304 A 
HETATM    7  C14 UNK     1      10.568   7.423   8.333  1.00  0.00     0.089 A 
HETATM    8  C15 UNK     1      11.175   6.575   6.170  1.00  0.00     0.014 A 
HETATM    9  C16 UNK     1       9.285   6.895   8.211  1.00  0.00     0.038 A 
HETATM   10  C17 UNK     1       9.890   6.039   6.034  1.00  0.00     0.001 A 
HETATM   11  C18 UNK     1       8.948   6.200   7.051  1.00  0.00     0.003 A 
ENDROOT
BRANCH   3  12
HETATM   12  C7  UNK     1      14.491   9.058   8.749  1.00  0.00     0.259 C 
HETATM   13  O2  UNK     1      14.760  10.080   8.109  1.00  0.00    -0.267 OA
HETATM   14  N1  UNK     1      15.396   8.390   9.579  1.00  0.00    -0.348 N 
BRANCH  14  15
HETATM   15  C1  UNK     1      16.767   8.853   9.764  1.00  0.00     0.126 C 
BRANCH  15  16
HETATM   16  C3  UNK     1      16.832  10.219  10.437  1.00  0.00     0.020 C 
BRANCH  16  17
HETATM   17  C5  UNK     1      18.043  11.040   9.985  1.00  0.00    -0.003 C 
HETATM   18  C9  UNK     1      18.078  11.188   8.472  1.00  0.00     0.005 C 
ENDBRANCH  16  17
ENDBRANCH  15  16
ENDBRANCH  14  15
BRANCH  14  19
HETATM   19  C2  UNK     1      15.032   7.184  10.317  1.00  0.00     0.126 C 
BRANCH  19  20
HETATM   20  C4  UNK     1      15.949   6.007   9.999  1.00  0.00     0.020 C 
BRANCH  20  21
HETATM   21  C6  UNK     1      15.181   4.698   9.807  1.00  0.00    -0.003 C 
HETATM   22  C10 UNK     1      13.823   4.939   9.168  1.00  0.00     0.005 C 
ENDBRANCH  20  21
ENDBRANCH  19  20
ENDBRANCH  14  19
ENDBRANCH   3  12
TORSDOF 7
ENDMDL
MODEL 7
REMARK VINA RESULT:      -6.8     26.106     27.835
REMARK  7 active torsions:
REMARK  status: ('A' for Active; 'I' for Inactive)
REMARK    1  A    between atoms: C1_5  and  N1_4 
REMARK    2  A    between atoms: C2_6  and  N1_4 
REMARK       I    between atoms: C7_11  and  N1_4 
REMARK    3  A    between atoms: C1_5  and  C3_7 
REMARK    4  A    between atoms: C2_6  and  C4_8 
REMARK    5  A    between atoms: C3_7  and  C5_9 
REMARK    6  A    between atoms: C4_8  and  C6_10 
REMARK    7  A    between atoms: C7_11  and  C8_12 
ROOT
HETATM    1  O1  UNK     1      11.475   7.704   9.779  1.00  0.00    -0.274 OA
HETATM    2  O3  UNK     1      12.995   8.410  11.332  1.00  0.00    -0.259 OA
HETATM    3  C8  UNK     1      13.860   7.717   9.237  1.00  0.00     0.108 A 
HETATM    4  C11 UNK     1      13.611   7.244   8.010  1.00  0.00     0.037 A 
HETATM    5  C12 UNK     1      12.244   6.968   7.593  1.00  0.00    -0.001 A 
HETATM    6  C13 UNK     1      12.771   7.977  10.207  1.00  0.00     0.304 A 
HETATM    7  C14 UNK     1      11.207   7.206   8.489  1.00  0.00     0.089 A 
HETATM    8  C15 UNK     1      11.939   6.474   6.323  1.00  0.00     0.014 A 
HETATM    9  C16 UNK     1       9.877   6.964   8.152  1.00  0.00     0.038 A 
HETATM   10  C17 UNK     1      10.609   6.226   5.971  1.00  0.00     0.001 A 
HETATM   11  C18 UNK     1       9.581   6.471   6.883  1.00  0.00     0.003 A 
ENDROOT
BRANCH   3  12
HETATM   12  C7  UNK     1      15.269   7.963   9.565  1.00  0.00     0.259 C 
HETATM   13  O2  UNK     1      15.949   7.016   9.973  1.00  0.00    -0.267 OA
HETATM   14  N1  UNK     1      15.759   9.259   9.380  1.00  0.00    -0.348 N 
BRANCH  14  15
HETATM   15  C1  UNK     1      17.147   9.611   9.659  1.00  0.00     0.126 C 
BRANCH  15  16
HETATM   16  C3  UNK     1      17.266  10.863  10.520  1.00  0.00     0.020 C 
BRANCH  16  17
HETATM   17  C5  UNK     1      18.401  11.785  10.064  1.00  0.00    -0.003 C 
HETATM   18  C9  UNK     1      18.822  11.480   8.635  1.00  0.00     0.005 C 
ENDBRANCH  16  17
ENDBRANCH  15  16
ENDBRANCH  14  15
BRANCH  14  19
HETATM   19  C2  UNK     1      14.917  10.348   8.894  1.00  0.00     0.126 C 
BRANCH  19  20
HETATM   20  C4  UNK     1      15.334  10.834   7.509  1.00  0.00     0.020 C 
BRANCH  20  21
HETATM   21  C6  UNK     1      15.480  12.355   7.438  1.00  0.00    -0.003 C 
HETATM   22  C10 UNK     1      14.930  13.025   8.687  1.00  0.00     0.005 C 
ENDBRANCH  20  21
ENDBRANCH  19  20
ENDBRANCH  14  19
ENDBRANCH   3  12
TORSDOF 7
ENDMDL
MODEL 8
REMARK VINA RESULT:      -6.8      7.947     10.716
REMARK  7 active torsions:
REMARK  status: ('A' for Active; 'I' for Inactive)
REMARK    1  A    between atoms: C1_5  and  N1_4 
REMARK    2  A    between atoms: C2_6  and  N1_4 
REMARK       I    between atoms: C7_11  and  N1_4 
REMARK    3  A    between atoms: C1_5  and  C3_7 
REMARK    4  A    between atoms: C2_6  and  C4_8 
REMARK    5  A    between atoms: C3_7  and  C5_9 
REMARK    6  A    between atoms: C4_8  and  C6_10 
REMARK    7  A    between atoms: C7_11  and  C8_12 
ROOT
HETATM    1  O1  UNK     1      25.463  -5.731  38.652  1.00  0.00    -0.274 OA
HETATM    2  O3  UNK     1      23.200  -5.444  38.777  1.00  0.00    -0.259 OA
HETATM    3  C8  UNK     1      24.002  -7.663  38.986  1.00  0.00     0.108 A 
HETATM    4  C11 UNK     1      25.055  -8.489  39.012  1.00  0.00     0.037 A 
HETATM    5  C12 UNK     1      26.403  -7.964  38.853  1.00  0.00    -0.001 A 
HETATM    6  C13 UNK     1      24.162  -6.203  38.800  1.00  0.00     0.304 A 
HETATM    7  C14 UNK     1      26.575  -6.595  38.677  1.00  0.00     0.089 A 
HETATM    8  C15 UNK     1      27.530  -8.789  38.872  1.00  0.00     0.014 A 
HETATM    9  C16 UNK     1      27.839  -6.029  38.520  1.00  0.00     0.038 A 
HETATM   10  C17 UNK     1      28.804  -8.236  38.716  1.00  0.00     0.001 A 
HETATM   11  C18 UNK     1      28.958  -6.859  38.541  1.00  0.00     0.003 A 
ENDROOT
BRANCH   3  12
HETATM   12  C7  UNK     1      22.684  -8.287  39.155  1.00  0.00     0.259 C 
HETATM   13  O2  UNK     1      22.156  -8.247  40.271  1.00  0.00    -0.267 OA
HETATM   14  N1  UNK     1      22.099  -8.878  38.031  1.00  0.00    -0.348 N 
BRANCH  14  15
HETATM   15  C1  UNK     1      20.788  -9.513  38.081  1.00  0.00     0.126 C 
BRANCH  15  16
HETATM   16  C3  UNK     1      19.710  -8.675  37.401  1.00  0.00     0.020 C 
BRANCH  16  17
HETATM   17  C5  UNK     1      19.224  -7.518  38.278  1.00  0.00    -0.003 C 
HETATM   18  C9  UNK     1      19.780  -6.187  37.798  1.00  0.00     0.005 C 
ENDBRANCH  16  17
ENDBRANCH  15  16
ENDBRANCH  14  15
BRANCH  14  19
HETATM   19  C2  UNK     1      22.762  -8.901  36.730  1.00  0.00     0.126 C 
BRANCH  19  20
HETATM   20  C4  UNK     1      22.878 -10.311  36.160  1.00  0.00     0.020 C 
BRANCH  20  21
HETATM   21  C6  UNK     1      24.315 -10.837  36.180  1.00  0.00    -0.003 C 
HETATM   22  C10 UNK     1      24.371 -12.315  35.828  1.00  0.00     0.005 C 
ENDBRANCH  20  21
ENDBRANCH  19  20
ENDBRANCH  14  19
ENDBRANCH   3  12
TORSDOF 7
ENDMDL
MODEL 9
REMARK VINA RESULT:      -6.8     25.198     27.487
REMARK  7 active torsions:
REMARK  status: ('A' for Active; 'I' for Inactive)
REMARK    1  A    between atoms: C1_5  and  N1_4 
REMARK    2  A    between atoms: C2_6  and  N1_4 
REMARK       I    between atoms: C7_11  and  N1_4 
REMARK    3  A    between atoms: C1_5  and  C3_7 
REMARK    4  A    between atoms: C2_6  and  C4_8 
REMARK    5  A    between atoms: C3_7  and  C5_9 
REMARK    6  A    between atoms: C4_8  and  C6_10 
REMARK    7  A    between atoms: C7_11  and  C8_12 
ROOT
HETATM    1  O1  UNK     1      11.814   6.724   6.300  1.00  0.00    -0.274 OA
HETATM    2  O3  UNK     1      14.088   6.937   6.348  1.00  0.00    -0.259 OA
HETATM    3  C8  UNK     1      13.044   6.245   8.360  1.00  0.00     0.108 A 
HETATM    4  C11 UNK     1      11.908   5.944   9.000  1.00  0.00     0.037 A 
HETATM    5  C12 UNK     1      10.632   6.020   8.305  1.00  0.00    -0.001 A 
HETATM    6  C13 UNK     1      13.050   6.660   6.938  1.00  0.00     0.304 A 
HETATM    7  C14 UNK     1      10.615   6.408   6.969  1.00  0.00     0.089 A 
HETATM    8  C15 UNK     1       9.422   5.716   8.935  1.00  0.00     0.014 A 
HETATM    9  C16 UNK     1       9.427   6.501   6.247  1.00  0.00     0.038 A 
HETATM   10  C17 UNK     1       8.222   5.804   8.222  1.00  0.00     0.001 A 
HETATM   11  C18 UNK     1       8.225   6.195   6.882  1.00  0.00     0.003 A 
ENDROOT
BRANCH   3  12
HETATM   12  C7  UNK     1      14.279   6.138   9.145  1.00  0.00     0.259 C 
HETATM   13  O2  UNK     1      14.890   5.063   9.131  1.00  0.00    -0.267 OA
HETATM   14  N1  UNK     1      14.697   7.269   9.852  1.00  0.00    -0.348 N 
BRANCH  14  15
HETATM   15  C1  UNK     1      15.916   7.279  10.651  1.00  0.00     0.126 C 
BRANCH  15  16
HETATM   16  C3  UNK     1      17.091   7.908   9.912  1.00  0.00     0.020 C 
BRANCH  16  17
HETATM   17  C5  UNK     1      17.273   9.390  10.250  1.00  0.00    -0.003 C 
HETATM   18  C9  UNK     1      17.177  10.259   9.006  1.00  0.00     0.005 C 
ENDBRANCH  16  17
ENDBRANCH  15  16
ENDBRANCH  14  15
BRANCH  14  19
HETATM   19  C2  UNK     1      13.941   8.519   9.837  1.00  0.00     0.126 C 
BRANCH  19  20
HETATM   20  C4  UNK     1      13.494   8.944  11.232  1.00  0.00     0.020 C 
BRANCH  20  21
HETATM   21  C6  UNK     1      12.119   9.617  11.229  1.00  0.00    -0.003 C 
HETATM   22  C10 UNK     1      11.431   9.469   9.882  1.00  0.00     0.005 C 
ENDBRANCH  20  21
ENDBRANCH  19  20
ENDBRANCH  14  19
ENDBRANCH   3  12
TORSDOF 7
ENDMDL
MODEL 10
REMARK VINA RESULT:      -6.8     12.309     14.794
REMARK  7 active torsions:
REMARK  status: ('A' for Active; 'I' for Inactive)
REMARK    1  A    between atoms: C1_5  and  N1_4 
REMARK    2  A    between atoms: C2_6  and  N1_4 
REMARK       I    between atoms: C7_11  and  N1_4 
REMARK    3  A    between atoms: C1_5  and  C3_7 
REMARK    4  A    between atoms: C2_6  and  C4_8 
REMARK    5  A    between atoms: C3_7  and  C5_9 
REMARK    6  A    between atoms: C4_8  and  C6_10 
REMARK    7  A    between atoms: C7_11  and  C8_12 
ROOT
HETATM    1  O1  UNK     1      30.583  -9.370  38.226  1.00  0.00    -0.274 OA
HETATM    2  O3  UNK     1      32.461  -8.795  37.060  1.00  0.00    -0.259 OA
HETATM    3  C8  UNK     1      30.483  -7.598  36.542  1.00  0.00     0.108 A 
HETATM    4  C11 UNK     1      29.180  -7.407  36.781  1.00  0.00     0.037 A 
HETATM    5  C12 UNK     1      28.492  -8.210  37.781  1.00  0.00    -0.001 A 
HETATM    6  C13 UNK     1      31.268  -8.618  37.276  1.00  0.00     0.304 A 
HETATM    7  C14 UNK     1      29.211  -9.174  38.481  1.00  0.00     0.089 A 
HETATM    8  C15 UNK     1      27.134  -8.045  38.061  1.00  0.00     0.014 A 
HETATM    9  C16 UNK     1      28.612  -9.975  39.451  1.00  0.00     0.038 A 
HETATM   10  C17 UNK     1      26.519  -8.842  39.032  1.00  0.00     0.001 A 
HETATM   11  C18 UNK     1      27.257  -9.804  39.726  1.00  0.00     0.003 A 
ENDROOT
BRANCH   3  12
HETATM   12  C7  UNK     1      31.087  -6.740  35.516  1.00  0.00     0.259 C 
HETATM   13  O2  UNK     1      31.076  -7.133  34.344  1.00  0.00    -0.267 OA
HETATM   14  N1  UNK     1      31.629  -5.520  35.930  1.00  0.00    -0.348 N 
BRANCH  14  15
HETATM   15  C1  UNK     1      32.240  -4.584  34.993  1.00  0.00     0.126 C 
BRANCH  15  16
HETATM   16  C3  UNK     1      33.580  -4.054  35.491  1.00  0.00     0.020 C 
BRANCH  16  17
HETATM   17  C5  UNK     1      34.748  -4.975  35.129  1.00  0.00    -0.003 C 
HETATM   18  C9  UNK     1      35.259  -5.729  36.346  1.00  0.00     0.005 C 
ENDBRANCH  16  17
ENDBRANCH  15  16
ENDBRANCH  14  15
BRANCH  14  19
HETATM   19  C2  UNK     1      31.619  -5.097  37.328  1.00  0.00     0.126 C 
BRANCH  19  20
HETATM   20  C4  UNK     1      30.537  -4.063  37.616  1.00  0.00     0.020 C 
BRANCH  20  21
HETATM   21  C6  UNK     1      29.846  -4.292  38.962  1.00  0.00    -0.003 C 
HETATM   22  C10 UNK     1      28.354  -4.523  38.788  1.00  0.00     0.005 C 
ENDBRANCH  20  21
ENDBRANCH  19  20
ENDBRANCH  14  19
ENDBRANCH   3  12
TORSDOF 7
ENDMDL
