MODEL 1
REMARK VINA RESULT:      -8.7      0.000      0.000
REMARK  4 active torsions:
REMARK  status: ('A' for Active; 'I' for Inactive)
REMARK    1  A    between atoms: C11_18  and  O1_2 
REMARK    2  A    between atoms: C19_26  and  O1_2 
REMARK    3  A    between atoms: C17_24  and  C6_13 
REMARK    4  A    between atoms: C10_17  and  C19_26 
ROOT
HETATM    1  O2  UNK     1      27.709  -9.955  35.609  1.00  0.00    -0.293 OA
HETATM    2  N1  UNK     1      29.470  -6.380  38.167  1.00  0.00    -0.362 N 
HETATM    3  C1  UNK     1      26.290  -8.371  38.546  1.00  0.00    -0.036 C 
HETATM    4  C2  UNK     1      27.151  -7.091  38.555  1.00  0.00     0.067 C 
HETATM    5  C3  UNK     1      26.181  -8.896  37.108  1.00  0.00     0.092 C 
HETATM    6  C4  UNK     1      28.630  -8.118  36.795  1.00  0.00     0.024 C 
HETATM    7  C5  UNK     1      28.441  -7.218  37.783  1.00  0.00     0.021 C 
HETATM    8  C6  UNK     1      29.957  -8.200  36.043  1.00  0.00     0.104 C 
HETATM    9  C7  UNK     1      27.532  -9.072  36.446  1.00  0.00     0.159 C 
HETATM   10  C8  UNK     1      26.904  -9.447  39.467  1.00  0.00     0.015 C 
HETATM   11  C9  UNK     1      24.884  -8.037  39.073  1.00  0.00     0.015 C 
HETATM   12  C10 UNK     1      31.053  -7.358  36.703  1.00  0.00     0.052 C 
HETATM   13  C12 UNK     1      30.768  -6.477  37.690  1.00  0.00     0.018 C 
HETATM   14  C20 UNK     1      31.762  -5.565  38.358  1.00  0.00     0.069 C 
HETATM   15  H13 UNK     1      29.290  -5.718  38.912  1.00  0.00     0.165 HD
ENDROOT
BRANCH   8  16
HETATM   16  C17 UNK     1      29.778  -7.782  34.604  1.00  0.00     0.029 A 
HETATM   17  C21 UNK     1      30.103  -8.761  33.535  1.00  0.00     0.194 A 
HETATM   18  O5  UNK     1      30.508  -9.888  33.787  1.00  0.00    -0.287 OA
HETATM   19  C23 UNK     1      29.908  -8.302  32.148  1.00  0.00     0.050 A 
HETATM   20  C24 UNK     1      29.443  -7.006  31.921  1.00  0.00     0.089 A 
HETATM   21  C25 UNK     1      30.187  -9.149  31.071  1.00  0.00     0.042 A 
HETATM   22  O3  UNK     1      29.154  -6.133  32.938  1.00  0.00    -0.321 OA
HETATM   23  C26 UNK     1      29.252  -6.551  30.616  1.00  0.00     0.040 A 
HETATM   24  C22 UNK     1      29.339  -6.574  34.226  1.00  0.00     0.154 A 
HETATM   25  C28 UNK     1      29.529  -7.394  29.540  1.00  0.00     0.026 A 
HETATM   26  C27 UNK     1      29.995  -8.690  29.768  1.00  0.00     0.035 A 
HETATM   27 Cl1  UNK     1      30.334  -9.726  28.435  1.00  0.00    -0.084 Cl
ENDBRANCH   8  16
BRANCH  12  28
HETATM   28  C19 UNK     1      32.434  -7.596  36.252  1.00  0.00     0.292 C 
HETATM   29  O4  UNK     1      33.153  -8.456  36.726  1.00  0.00    -0.259 OA
BRANCH  28  30
HETATM   30  O1  UNK     1      32.718  -6.715  35.263  1.00  0.00    -0.312 OA
BRANCH  30  31
HETATM   31  C11 UNK     1      33.701  -7.151  34.331  1.00  0.00     0.132 C 
HETATM   32  C13 UNK     1      33.175  -6.969  32.908  1.00  0.00     0.032 C 
HETATM   33  C15 UNK     1      34.232  -7.330  31.869  1.00  0.00     0.002 C 
HETATM   34  C18 UNK     1      35.529  -6.558  32.094  1.00  0.00     0.000 C 
HETATM   35  C16 UNK     1      36.055  -6.737  33.516  1.00  0.00     0.002 C 
HETATM   36  C14 UNK     1      35.000  -6.376  34.555  1.00  0.00     0.032 C 
ENDBRANCH  30  31
ENDBRANCH  28  30
ENDBRANCH  12  28
TORSDOF 4
ENDMDL
MODEL 2
REMARK VINA RESULT:      -8.7      2.285      5.977
REMARK  4 active torsions:
REMARK  status: ('A' for Active; 'I' for Inactive)
REMARK    1  A    between atoms: C11_18  and  O1_2 
REMARK    2  A    between atoms: C19_26  and  O1_2 
REMARK    3  A    between atoms: C17_24  and  C6_13 
REMARK    4  A    between atoms: C10_17  and  C19_26 
ROOT
HETATM    1  O2  UNK     1      31.968  -5.385  33.763  1.00  0.00    -0.293 OA
HETATM    2  N1  UNK     1      32.757  -9.217  36.430  1.00  0.00    -0.362 N 
HETATM    3  C1  UNK     1      35.126  -6.640  35.029  1.00  0.00    -0.036 C 
HETATM    4  C2  UNK     1      34.670  -8.064  35.410  1.00  0.00     0.067 C 
HETATM    5  C3  UNK     1      34.239  -6.114  33.892  1.00  0.00     0.092 C 
HETATM    6  C4  UNK     1      32.282  -7.358  35.042  1.00  0.00     0.024 C 
HETATM    7  C5  UNK     1      33.180  -8.197  35.601  1.00  0.00     0.021 C 
HETATM    8  C6  UNK     1      30.782  -7.543  35.265  1.00  0.00     0.104 C 
HETATM    9  C7  UNK     1      32.762  -6.211  34.212  1.00  0.00     0.159 C 
HETATM   10  C8  UNK     1      35.052  -5.699  36.249  1.00  0.00     0.015 C 
HETATM   11  C9  UNK     1      36.588  -6.689  34.551  1.00  0.00     0.015 C 
HETATM   12  C10 UNK     1      30.479  -8.579  36.352  1.00  0.00     0.052 C 
HETATM   13  C12 UNK     1      31.447  -9.380  36.854  1.00  0.00     0.018 C 
HETATM   14  C20 UNK     1      31.239 -10.464  37.877  1.00  0.00     0.069 C 
HETATM   15  H13 UNK     1      33.461  -9.827  36.831  1.00  0.00     0.165 HD
ENDROOT
BRANCH   8  16
HETATM   16  C17 UNK     1      30.098  -7.928  33.977  1.00  0.00     0.029 A 
HETATM   17  C21 UNK     1      29.010  -7.057  33.464  1.00  0.00     0.194 A 
HETATM   18  O5  UNK     1      28.656  -6.043  34.052  1.00  0.00    -0.287 OA
HETATM   19  C23 UNK     1      28.376  -7.478  32.201  1.00  0.00     0.050 A 
HETATM   20  C24 UNK     1      28.821  -8.642  31.574  1.00  0.00     0.089 A 
HETATM   21  C25 UNK     1      27.342  -6.725  31.637  1.00  0.00     0.042 A 
HETATM   22  O3  UNK     1      29.831  -9.418  32.083  1.00  0.00    -0.321 OA
HETATM   23  C26 UNK     1      28.235  -9.059  30.379  1.00  0.00     0.040 A 
HETATM   24  C22 UNK     1      30.413  -9.014  33.259  1.00  0.00     0.154 A 
HETATM   25  C28 UNK     1      27.203  -8.310  29.813  1.00  0.00     0.026 A 
HETATM   26  C27 UNK     1      26.759  -7.145  30.442  1.00  0.00     0.035 A 
HETATM   27 Cl1  UNK     1      25.485  -6.224  29.738  1.00  0.00    -0.084 Cl
ENDBRANCH   8  16
BRANCH  12  28
HETATM   28  C19 UNK     1      29.099  -8.618  36.863  1.00  0.00     0.292 C 
HETATM   29  O4  UNK     1      28.179  -9.147  36.267  1.00  0.00    -0.259 OA
BRANCH  28  30
HETATM   30  O1  UNK     1      29.068  -7.982  38.059  1.00  0.00    -0.312 OA
BRANCH  30  31
HETATM   31  C11 UNK     1      29.175  -6.565  37.991  1.00  0.00     0.132 C 
HETATM   32  C13 UNK     1      28.031  -5.927  38.777  1.00  0.00     0.032 C 
HETATM   33  C15 UNK     1      28.157  -4.407  38.817  1.00  0.00     0.002 C 
HETATM   34  C18 UNK     1      29.519  -3.970  39.349  1.00  0.00     0.000 C 
HETATM   35  C16 UNK     1      30.664  -4.608  38.566  1.00  0.00     0.002 C 
HETATM   36  C14 UNK     1      30.538  -6.127  38.526  1.00  0.00     0.032 C 
ENDBRANCH  30  31
ENDBRANCH  28  30
ENDBRANCH  12  28
TORSDOF 4
ENDMDL
MODEL 3
REMARK VINA RESULT:      -8.6      3.388      5.972
REMARK  4 active torsions:
REMARK  status: ('A' for Active; 'I' for Inactive)
REMARK    1  A    between atoms: C11_18  and  O1_2 
REMARK    2  A    between atoms: C19_26  and  O1_2 
REMARK    3  A    between atoms: C17_24  and  C6_13 
REMARK    4  A    between atoms: C10_17  and  C19_26 
ROOT
HETATM    1  O2  UNK     1      33.744  -8.745  34.677  1.00  0.00    -0.293 OA
HETATM    2  N1  UNK     1      30.400  -5.595  33.524  1.00  0.00    -0.362 N 
HETATM    3  C1  UNK     1      32.210  -6.215  36.774  1.00  0.00    -0.036 C 
HETATM    4  C2  UNK     1      30.986  -5.896  35.891  1.00  0.00     0.067 C 
HETATM    5  C3  UNK     1      32.663  -7.657  36.508  1.00  0.00     0.092 C 
HETATM    6  C4  UNK     1      32.021  -7.246  34.035  1.00  0.00     0.024 C 
HETATM    7  C5  UNK     1      31.157  -6.294  34.446  1.00  0.00     0.021 C 
HETATM    8  C6  UNK     1      32.148  -7.613  32.557  1.00  0.00     0.104 C 
HETATM    9  C7  UNK     1      32.889  -7.936  35.037  1.00  0.00     0.159 C 
HETATM   10  C8  UNK     1      33.362  -5.228  36.486  1.00  0.00     0.015 C 
HETATM   11  C9  UNK     1      31.816  -6.070  38.254  1.00  0.00     0.015 C 
HETATM   12  C10 UNK     1      31.404  -6.631  31.647  1.00  0.00     0.052 C 
HETATM   13  C12 UNK     1      30.554  -5.706  32.151  1.00  0.00     0.018 C 
HETATM   14  C20 UNK     1      29.735  -4.741  31.339  1.00  0.00     0.069 C 
HETATM   15  H13 UNK     1      29.762  -4.889  33.872  1.00  0.00     0.165 HD
ENDROOT
BRANCH   8  16
HETATM   16  C17 UNK     1      31.656  -9.018  32.315  1.00  0.00     0.029 A 
HETATM   17  C21 UNK     1      32.554  -9.975  31.620  1.00  0.00     0.194 A 
HETATM   18  O5  UNK     1      33.675  -9.658  31.242  1.00  0.00    -0.287 OA
HETATM   19  C23 UNK     1      32.024 -11.335  31.411  1.00  0.00     0.050 A 
HETATM   20  C24 UNK     1      30.741 -11.640  31.864  1.00  0.00     0.089 A 
HETATM   21  C25 UNK     1      32.794 -12.308  30.766  1.00  0.00     0.042 A 
HETATM   22  O3  UNK     1      29.943 -10.725  32.503  1.00  0.00    -0.321 OA
HETATM   23  C26 UNK     1      30.219 -12.920  31.676  1.00  0.00     0.040 A 
HETATM   24  C22 UNK     1      30.449  -9.462  32.692  1.00  0.00     0.154 A 
HETATM   25  C28 UNK     1      30.985 -13.893  31.033  1.00  0.00     0.026 A 
HETATM   26  C27 UNK     1      32.269 -13.587  30.580  1.00  0.00     0.035 A 
HETATM   27 Cl1  UNK     1      33.208 -14.793  29.787  1.00  0.00    -0.084 Cl
ENDBRANCH   8  16
BRANCH  12  28
HETATM   28  C19 UNK     1      31.705  -6.703  30.208  1.00  0.00     0.292 C 
HETATM   29  O4  UNK     1      32.833  -6.639  29.756  1.00  0.00    -0.259 OA
BRANCH  28  30
HETATM   30  O1  UNK     1      30.539  -6.845  29.534  1.00  0.00    -0.312 OA
BRANCH  30  31
HETATM   31  C11 UNK     1      29.993  -8.159  29.544  1.00  0.00     0.132 C 
HETATM   32  C13 UNK     1      28.467  -8.081  29.528  1.00  0.00     0.032 C 
HETATM   33  C15 UNK     1      27.835  -9.466  29.439  1.00  0.00     0.002 C 
HETATM   34  C18 UNK     1      28.372 -10.253  28.246  1.00  0.00     0.000 C 
HETATM   35  C16 UNK     1      29.897 -10.331  28.260  1.00  0.00     0.002 C 
HETATM   36  C14 UNK     1      30.529  -8.947  28.349  1.00  0.00     0.032 C 
ENDBRANCH  30  31
ENDBRANCH  28  30
ENDBRANCH  12  28
TORSDOF 4
ENDMDL
MODEL 4
REMARK VINA RESULT:      -8.6      3.211      6.843
REMARK  4 active torsions:
REMARK  status: ('A' for Active; 'I' for Inactive)
REMARK    1  A    between atoms: C11_18  and  O1_2 
REMARK    2  A    between atoms: C19_26  and  O1_2 
REMARK    3  A    between atoms: C17_24  and  C6_13 
REMARK    4  A    between atoms: C10_17  and  C19_26 
ROOT
HETATM    1  O2  UNK     1      29.156 -10.689  33.086  1.00  0.00    -0.293 OA
HETATM    2  N1  UNK     1      33.715  -9.700  33.903  1.00  0.00    -0.362 N 
HETATM    3  C1  UNK     1      32.094 -12.441  31.883  1.00  0.00    -0.036 C 
HETATM    4  C2  UNK     1      33.132 -11.844  32.857  1.00  0.00     0.067 C 
HETATM    5  C3  UNK     1      30.710 -12.420  32.546  1.00  0.00     0.092 C 
HETATM    6  C4  UNK     1      31.412 -10.163  33.600  1.00  0.00     0.024 C 
HETATM    7  C5  UNK     1      32.702 -10.540  33.481  1.00  0.00     0.021 C 
HETATM    8  C6  UNK     1      31.033  -8.832  34.247  1.00  0.00     0.104 C 
HETATM    9  C7  UNK     1      30.332 -11.049  33.066  1.00  0.00     0.159 C 
HETATM   10  C8  UNK     1      32.069 -11.648  30.560  1.00  0.00     0.015 C 
HETATM   11  C9  UNK     1      32.482 -13.895  31.562  1.00  0.00     0.015 C 
HETATM   12  C10 UNK     1      32.251  -7.932  34.480  1.00  0.00     0.052 C 
HETATM   13  C12 UNK     1      33.513  -8.399  34.337  1.00  0.00     0.018 C 
HETATM   14  C20 UNK     1      34.768  -7.614  34.601  1.00  0.00     0.069 C 
HETATM   15  H13 UNK     1      34.671 -10.018  33.798  1.00  0.00     0.165 HD
ENDROOT
BRANCH   8  16
HETATM   16  C17 UNK     1      30.302  -9.062  35.546  1.00  0.00     0.029 A 
HETATM   17  C21 UNK     1      28.915  -8.548  35.679  1.00  0.00     0.194 A 
HETATM   18  O5  UNK     1      28.353  -7.949  34.772  1.00  0.00    -0.287 OA
HETATM   19  C23 UNK     1      28.245  -8.802  36.969  1.00  0.00     0.050 A 
HETATM   20  C24 UNK     1      28.934  -9.491  37.966  1.00  0.00     0.089 A 
HETATM   21  C25 UNK     1      26.939  -8.358  37.192  1.00  0.00     0.042 A 
HETATM   22  O3  UNK     1      30.216  -9.949  37.801  1.00  0.00    -0.321 OA
HETATM   23  C26 UNK     1      28.320  -9.741  39.194  1.00  0.00     0.040 A 
HETATM   24  C22 UNK     1      30.828  -9.707  36.595  1.00  0.00     0.154 A 
HETATM   25  C28 UNK     1      27.017  -9.299  39.420  1.00  0.00     0.026 A 
HETATM   26  C27 UNK     1      26.328  -8.610  38.421  1.00  0.00     0.035 A 
HETATM   27 Cl1  UNK     1      24.719  -8.068  38.707  1.00  0.00    -0.084 Cl
ENDBRANCH   8  16
BRANCH  12  28
HETATM   28  C19 UNK     1      31.979  -6.523  34.809  1.00  0.00     0.292 C 
HETATM   29  O4  UNK     1      31.695  -5.684  33.975  1.00  0.00    -0.259 OA
BRANCH  28  30
HETATM   30  O1  UNK     1      32.105  -6.365  36.149  1.00  0.00    -0.312 OA
BRANCH  30  31
HETATM   31  C11 UNK     1      31.003  -5.732  36.788  1.00  0.00     0.132 C 
HETATM   32  C13 UNK     1      30.717  -6.423  38.120  1.00  0.00     0.032 C 
HETATM   33  C15 UNK     1      29.604  -5.719  38.891  1.00  0.00     0.002 C 
HETATM   34  C18 UNK     1      29.904  -4.234  39.079  1.00  0.00     0.000 C 
HETATM   35  C16 UNK     1      30.193  -3.542  37.749  1.00  0.00     0.002 C 
HETATM   36  C14 UNK     1      31.304  -4.245  36.979  1.00  0.00     0.032 C 
ENDBRANCH  30  31
ENDBRANCH  28  30
ENDBRANCH  12  28
TORSDOF 4
ENDMDL
MODEL 5
REMARK VINA RESULT:      -8.6      2.656      6.761
REMARK  4 active torsions:
REMARK  status: ('A' for Active; 'I' for Inactive)
REMARK    1  A    between atoms: C11_18  and  O1_2 
REMARK    2  A    between atoms: C19_26  and  O1_2 
REMARK    3  A    between atoms: C17_24  and  C6_13 
REMARK    4  A    between atoms: C10_17  and  C19_26 
ROOT
HETATM    1  O2  UNK     1      29.889  -5.945  34.820  1.00  0.00    -0.293 OA
HETATM    2  N1  UNK     1      29.394  -8.621  38.696  1.00  0.00    -0.362 N 
HETATM    3  C1  UNK     1      31.493  -5.556  38.049  1.00  0.00    -0.036 C 
HETATM    4  C2  UNK     1      31.201  -6.959  38.621  1.00  0.00     0.067 C 
HETATM    5  C3  UNK     1      31.541  -5.636  36.517  1.00  0.00     0.092 C 
HETATM    6  C4  UNK     1      29.634  -7.376  36.695  1.00  0.00     0.024 C 
HETATM    7  C5  UNK     1      30.052  -7.665  37.946  1.00  0.00     0.021 C 
HETATM    8  C6  UNK     1      28.467  -8.129  36.058  1.00  0.00     0.104 C 
HETATM    9  C7  UNK     1      30.306  -6.284  35.927  1.00  0.00     0.159 C 
HETATM   10  C8  UNK     1      30.416  -4.547  38.502  1.00  0.00     0.015 C 
HETATM   11  C9  UNK     1      32.855  -5.070  38.575  1.00  0.00     0.015 C 
HETATM   12  C10 UNK     1      27.721  -9.007  37.067  1.00  0.00     0.052 C 
HETATM   13  C12 UNK     1      28.219  -9.242  38.303  1.00  0.00     0.018 C 
HETATM   14  C20 UNK     1      27.593 -10.135  39.340  1.00  0.00     0.069 C 
HETATM   15  H13 UNK     1      29.738  -8.810  39.630  1.00  0.00     0.165 HD
ENDROOT
BRANCH   8  16
HETATM   16  C17 UNK     1      28.945  -8.965  34.896  1.00  0.00     0.029 A 
HETATM   17  C21 UNK     1      28.547  -8.563  33.523  1.00  0.00     0.194 A 
HETATM   18  O5  UNK     1      27.849  -7.581  33.308  1.00  0.00    -0.287 OA
HETATM   19  C23 UNK     1      29.043  -9.414  32.425  1.00  0.00     0.050 A 
HETATM   20  C24 UNK     1      29.836 -10.520  32.729  1.00  0.00     0.089 A 
HETATM   21  C25 UNK     1      28.724  -9.119  31.096  1.00  0.00     0.042 A 
HETATM   22  O3  UNK     1      30.180 -10.855  34.013  1.00  0.00    -0.321 OA
HETATM   23  C26 UNK     1      30.315 -11.339  31.705  1.00  0.00     0.040 A 
HETATM   24  C22 UNK     1      29.713 -10.054  35.027  1.00  0.00     0.154 A 
HETATM   25  C28 UNK     1      29.998 -11.047  30.379  1.00  0.00     0.026 A 
HETATM   26  C27 UNK     1      29.204  -9.940  30.075  1.00  0.00     0.035 A 
HETATM   27 Cl1  UNK     1      28.817  -9.586  28.436  1.00  0.00    -0.084 Cl
ENDBRANCH   8  16
BRANCH  12  28
HETATM   28  C19 UNK     1      26.411  -9.533  36.647  1.00  0.00     0.292 C 
HETATM   29  O4  UNK     1      26.245 -10.667  36.240  1.00  0.00    -0.259 OA
BRANCH  28  30
HETATM   30  O1  UNK     1      25.489  -8.551  36.797  1.00  0.00    -0.312 OA
BRANCH  30  31
HETATM   31  C11 UNK     1      24.389  -8.881  37.637  1.00  0.00     0.132 C 
HETATM   32  C13 UNK     1      24.279  -7.855  38.764  1.00  0.00     0.032 C 
HETATM   33  C15 UNK     1      23.054  -8.109  39.636  1.00  0.00     0.002 C 
HETATM   34  C18 UNK     1      21.775  -8.174  38.805  1.00  0.00     0.000 C 
HETATM   35  C16 UNK     1      21.884  -9.198  37.678  1.00  0.00     0.002 C 
HETATM   36  C14 UNK     1      23.108  -8.944  36.805  1.00  0.00     0.032 C 
ENDBRANCH  30  31
ENDBRANCH  28  30
ENDBRANCH  12  28
TORSDOF 4
ENDMDL
MODEL 6
REMARK VINA RESULT:      -8.4      3.011      5.727
REMARK  4 active torsions:
REMARK  status: ('A' for Active; 'I' for Inactive)
REMARK    1  A    between atoms: C11_18  and  O1_2 
REMARK    2  A    between atoms: C19_26  and  O1_2 
REMARK    3  A    between atoms: C17_24  and  C6_13 
REMARK    4  A    between atoms: C10_17  and  C19_26 
ROOT
HETATM    1  O2  UNK     1      33.763  -6.015  34.079  1.00  0.00    -0.293 OA
HETATM    2  N1  UNK     1      29.042  -6.104  34.447  1.00  0.00    -0.362 N 
HETATM    3  C1  UNK     1      31.720  -5.501  37.031  1.00  0.00    -0.036 C 
HETATM    4  C2  UNK     1      30.395  -6.081  36.497  1.00  0.00     0.067 C 
HETATM    5  C3  UNK     1      32.894  -6.166  36.298  1.00  0.00     0.092 C 
HETATM    6  C4  UNK     1      31.396  -6.143  34.188  1.00  0.00     0.024 C 
HETATM    7  C5  UNK     1      30.312  -6.125  34.992  1.00  0.00     0.021 C 
HETATM    8  C6  UNK     1      31.253  -6.194  32.668  1.00  0.00     0.104 C 
HETATM    9  C7  UNK     1      32.762  -6.085  34.792  1.00  0.00     0.159 C 
HETATM   10  C8  UNK     1      31.764  -3.971  36.839  1.00  0.00     0.015 C 
HETATM   11  C9  UNK     1      31.830  -5.796  38.538  1.00  0.00     0.015 C 
HETATM   12  C10 UNK     1      29.809  -5.967  32.212  1.00  0.00     0.052 C 
HETATM   13  C12 UNK     1      28.781  -5.965  33.093  1.00  0.00     0.018 C 
HETATM   14  C20 UNK     1      27.328  -5.811  32.736  1.00  0.00     0.069 C 
HETATM   15  H13 UNK     1      28.253  -6.091  35.082  1.00  0.00     0.165 HD
ENDROOT
BRANCH   8  16
HETATM   16  C17 UNK     1      31.766  -7.507  32.130  1.00  0.00     0.029 A 
HETATM   17  C21 UNK     1      31.068  -8.757  32.527  1.00  0.00     0.194 A 
HETATM   18  O5  UNK     1      30.097  -8.752  33.272  1.00  0.00    -0.287 OA
HETATM   19  C23 UNK     1      31.609 -10.012  31.972  1.00  0.00     0.050 A 
HETATM   20  C24 UNK     1      32.718  -9.957  31.128  1.00  0.00     0.089 A 
HETATM   21  C25 UNK     1      31.023 -11.241  32.286  1.00  0.00     0.042 A 
HETATM   22  O3  UNK     1      33.332  -8.779  30.786  1.00  0.00    -0.321 OA
HETATM   23  C26 UNK     1      33.247 -11.132  30.592  1.00  0.00     0.040 A 
HETATM   24  C22 UNK     1      32.818  -7.618  31.310  1.00  0.00     0.154 A 
HETATM   25  C28 UNK     1      32.664 -12.360  30.903  1.00  0.00     0.026 A 
HETATM   26  C27 UNK     1      31.554 -12.413  31.749  1.00  0.00     0.035 A 
HETATM   27 Cl1  UNK     1      30.839 -13.933  32.129  1.00  0.00    -0.084 Cl
ENDBRANCH   8  16
BRANCH  12  28
HETATM   28  C19 UNK     1      29.602  -5.691  30.780  1.00  0.00     0.292 C 
HETATM   29  O4  UNK     1      30.121  -4.758  30.197  1.00  0.00    -0.259 OA
BRANCH  28  30
HETATM   30  O1  UNK     1      28.766  -6.632  30.280  1.00  0.00    -0.312 OA
BRANCH  30  31
HETATM   31  C11 UNK     1      29.391  -7.851  29.895  1.00  0.00     0.132 C 
HETATM   32  C13 UNK     1      28.324  -8.892  29.563  1.00  0.00     0.032 C 
HETATM   33  C15 UNK     1      28.944 -10.187  29.048  1.00  0.00     0.002 C 
HETATM   34  C18 UNK     1      29.872  -9.934  27.863  1.00  0.00     0.000 C 
HETATM   35  C16 UNK     1      30.939  -8.892  28.192  1.00  0.00     0.002 C 
HETATM   36  C14 UNK     1      30.319  -7.597  28.707  1.00  0.00     0.032 C 
ENDBRANCH  30  31
ENDBRANCH  28  30
ENDBRANCH  12  28
TORSDOF 4
ENDMDL
MODEL 7
REMARK VINA RESULT:      -8.3      2.484      5.172
REMARK  4 active torsions:
REMARK  status: ('A' for Active; 'I' for Inactive)
REMARK    1  A    between atoms: C11_18  and  O1_2 
REMARK    2  A    between atoms: C19_26  and  O1_2 
REMARK    3  A    between atoms: C17_24  and  C6_13 
REMARK    4  A    between atoms: C10_17  and  C19_26 
ROOT
HETATM    1  O2  UNK     1      32.038  -6.329  37.104  1.00  0.00    -0.293 OA
HETATM    2  N1  UNK     1      27.921  -6.606  34.780  1.00  0.00    -0.362 N 
HETATM    3  C1  UNK     1      28.678  -6.402  38.468  1.00  0.00    -0.036 C 
HETATM    4  C2  UNK     1      27.934  -6.912  37.216  1.00  0.00     0.067 C 
HETATM    5  C3  UNK     1      30.132  -6.895  38.426  1.00  0.00     0.092 C 
HETATM    6  C4  UNK     1      30.025  -6.537  35.866  1.00  0.00     0.024 C 
HETATM    7  C5  UNK     1      28.685  -6.690  35.928  1.00  0.00     0.021 C 
HETATM    8  C6  UNK     1      30.735  -6.321  34.530  1.00  0.00     0.104 C 
HETATM    9  C7  UNK     1      30.828  -6.551  37.126  1.00  0.00     0.159 C 
HETATM   10  C8  UNK     1      28.635  -4.861  38.538  1.00  0.00     0.015 C 
HETATM   11  C9  UNK     1      27.989  -6.957  39.726  1.00  0.00     0.015 C 
HETATM   12  C10 UNK     1      29.753  -6.053  33.386  1.00  0.00     0.052 C 
HETATM   13  C12 UNK     1      28.421  -6.236  33.541  1.00  0.00     0.018 C 
HETATM   14  C20 UNK     1      27.386  -6.058  32.464  1.00  0.00     0.069 C 
HETATM   15  H13 UNK     1      26.919  -6.727  34.866  1.00  0.00     0.165 HD
ENDROOT
BRANCH   8  16
HETATM   16  C17 UNK     1      31.610  -7.503  34.197  1.00  0.00     0.029 A 
HETATM   17  C21 UNK     1      33.066  -7.278  34.012  1.00  0.00     0.194 A 
HETATM   18  O5  UNK     1      33.572  -6.169  34.122  1.00  0.00    -0.287 OA
HETATM   19  C23 UNK     1      33.876  -8.468  33.689  1.00  0.00     0.050 A 
HETATM   20  C24 UNK     1      33.245  -9.707  33.577  1.00  0.00     0.089 A 
HETATM   21  C25 UNK     1      35.256  -8.359  33.495  1.00  0.00     0.042 A 
HETATM   22  O3  UNK     1      31.895  -9.871  33.757  1.00  0.00    -0.321 OA
HETATM   23  C26 UNK     1      33.991 -10.846  33.272  1.00  0.00     0.040 A 
HETATM   24  C22 UNK     1      31.153  -8.754  34.058  1.00  0.00     0.154 A 
HETATM   25  C28 UNK     1      35.368 -10.741  33.078  1.00  0.00     0.026 A 
HETATM   26  C27 UNK     1      35.999  -9.500  33.190  1.00  0.00     0.035 A 
HETATM   27 Cl1  UNK     1      37.699  -9.378  32.950  1.00  0.00    -0.084 Cl
ENDBRANCH   8  16
BRANCH  12  28
HETATM   28  C19 UNK     1      30.323  -5.533  32.132  1.00  0.00     0.292 C 
HETATM   29  O4  UNK     1      30.127  -4.403  31.726  1.00  0.00    -0.259 OA
BRANCH  28  30
HETATM   30  O1  UNK     1      31.062  -6.514  31.560  1.00  0.00    -0.312 OA
BRANCH  30  31
HETATM   31  C11 UNK     1      30.535  -7.036  30.346  1.00  0.00     0.132 C 
HETATM   32  C13 UNK     1      31.680  -7.365  29.389  1.00  0.00     0.032 C 
HETATM   33  C15 UNK     1      31.171  -8.020  28.109  1.00  0.00     0.002 C 
HETATM   34  C18 UNK     1      30.315  -9.248  28.408  1.00  0.00     0.000 C 
HETATM   35  C16 UNK     1      29.171  -8.922  29.365  1.00  0.00     0.002 C 
HETATM   36  C14 UNK     1      29.679  -8.267  30.645  1.00  0.00     0.032 C 
ENDBRANCH  30  31
ENDBRANCH  28  30
ENDBRANCH  12  28
TORSDOF 4
ENDMDL
MODEL 8
REMARK VINA RESULT:      -8.3      2.549      6.481
REMARK  4 active torsions:
REMARK  status: ('A' for Active; 'I' for Inactive)
REMARK    1  A    between atoms: C11_18  and  O1_2 
REMARK    2  A    between atoms: C19_26  and  O1_2 
REMARK    3  A    between atoms: C17_24  and  C6_13 
REMARK    4  A    between atoms: C10_17  and  C19_26 
ROOT
HETATM    1  O2  UNK     1      32.160  -8.942  35.360  1.00  0.00    -0.293 OA
HETATM    2  N1  UNK     1      31.453  -4.647  33.494  1.00  0.00    -0.362 N 
HETATM    3  C1  UNK     1      34.375  -6.071  35.405  1.00  0.00    -0.036 C 
HETATM    4  C2  UNK     1      33.350  -4.985  35.016  1.00  0.00     0.067 C 
HETATM    5  C3  UNK     1      33.644  -7.226  36.104  1.00  0.00     0.092 C 
HETATM    6  C4  UNK     1      31.697  -6.798  34.454  1.00  0.00     0.024 C 
HETATM    7  C5  UNK     1      32.123  -5.524  34.325  1.00  0.00     0.021 C 
HETATM    8  C6  UNK     1      30.442  -7.290  33.735  1.00  0.00     0.104 C 
HETATM    9  C7  UNK     1      32.480  -7.756  35.294  1.00  0.00     0.159 C 
HETATM   10  C8  UNK     1      35.125  -6.585  34.158  1.00  0.00     0.015 C 
HETATM   11  C9  UNK     1      35.410  -5.466  36.370  1.00  0.00     0.015 C 
HETATM   12  C10 UNK     1      29.927  -6.277  32.707  1.00  0.00     0.052 C 
HETATM   13  C12 UNK     1      30.415  -5.016  32.652  1.00  0.00     0.018 C 
HETATM   14  C20 UNK     1      29.934  -3.935  31.722  1.00  0.00     0.069 C 
HETATM   15  H13 UNK     1      31.802  -3.699  33.423  1.00  0.00     0.165 HD
ENDROOT
BRANCH   8  16
HETATM   16  C17 UNK     1      29.355  -7.620  34.728  1.00  0.00     0.029 A 
HETATM   17  C21 UNK     1      28.707  -8.953  34.652  1.00  0.00     0.194 A 
HETATM   18  O5  UNK     1      29.027  -9.786  33.813  1.00  0.00    -0.287 OA
HETATM   19  C23 UNK     1      27.652  -9.224  35.647  1.00  0.00     0.050 A 
HETATM   20  C24 UNK     1      27.330  -8.239  36.579  1.00  0.00     0.089 A 
HETATM   21  C25 UNK     1      26.982 -10.451  35.658  1.00  0.00     0.042 A 
HETATM   22  O3  UNK     1      27.956  -7.018  36.614  1.00  0.00    -0.321 OA
HETATM   23  C26 UNK     1      26.335  -8.473  37.529  1.00  0.00     0.040 A 
HETATM   24  C22 UNK     1      28.936  -6.779  35.682  1.00  0.00     0.154 A 
HETATM   25  C28 UNK     1      25.665  -9.696  37.542  1.00  0.00     0.026 A 
HETATM   26  C27 UNK     1      25.988 -10.682  36.609  1.00  0.00     0.035 A 
HETATM   27 Cl1  UNK     1      25.156 -12.189  36.631  1.00  0.00    -0.084 Cl
ENDBRANCH   8  16
BRANCH  12  28
HETATM   28  C19 UNK     1      28.920  -6.761  31.748  1.00  0.00     0.292 C 
HETATM   29  O4  UNK     1      27.721  -6.683  31.941  1.00  0.00    -0.259 OA
BRANCH  28  30
HETATM   30  O1  UNK     1      29.566  -7.278  30.675  1.00  0.00    -0.312 OA
BRANCH  30  31
HETATM   31  C11 UNK     1      29.316  -8.656  30.428  1.00  0.00     0.132 C 
HETATM   32  C13 UNK     1      28.942  -8.854  28.960  1.00  0.00     0.032 C 
HETATM   33  C15 UNK     1      28.760 -10.330  28.621  1.00  0.00     0.002 C 
HETATM   34  C18 UNK     1      29.988 -11.151  29.005  1.00  0.00     0.000 C 
HETATM   35  C16 UNK     1      30.365 -10.953  30.472  1.00  0.00     0.002 C 
HETATM   36  C14 UNK     1      30.547  -9.478  30.811  1.00  0.00     0.032 C 
ENDBRANCH  30  31
ENDBRANCH  28  30
ENDBRANCH  12  28
TORSDOF 4
ENDMDL
MODEL 9
REMARK VINA RESULT:      -8.2      3.432      7.767
REMARK  4 active torsions:
REMARK  status: ('A' for Active; 'I' for Inactive)
REMARK    1  A    between atoms: C11_18  and  O1_2 
REMARK    2  A    between atoms: C19_26  and  O1_2 
REMARK    3  A    between atoms: C17_24  and  C6_13 
REMARK    4  A    between atoms: C10_17  and  C19_26 
ROOT
HETATM    1  O2  UNK     1      33.189  -9.564  34.546  1.00  0.00    -0.293 OA
HETATM    2  N1  UNK     1      33.304  -7.203  30.442  1.00  0.00    -0.362 N 
HETATM    3  C1  UNK     1      35.764  -9.603  31.993  1.00  0.00    -0.036 C 
HETATM    4  C2  UNK     1      35.339  -8.338  31.219  1.00  0.00     0.067 C 
HETATM    5  C3  UNK     1      35.311  -9.476  33.455  1.00  0.00     0.092 C 
HETATM    6  C4  UNK     1      33.198  -8.294  32.542  1.00  0.00     0.024 C 
HETATM    7  C5  UNK     1      33.903  -7.938  31.448  1.00  0.00     0.021 C 
HETATM    8  C6  UNK     1      31.746  -7.854  32.725  1.00  0.00     0.104 C 
HETATM    9  C7  UNK     1      33.837  -9.156  33.583  1.00  0.00     0.159 C 
HETATM   10  C8  UNK     1      35.157 -10.867  31.350  1.00  0.00     0.015 C 
HETATM   11  C9  UNK     1      37.297  -9.732  31.946  1.00  0.00     0.015 C 
HETATM   12  C10 UNK     1      31.165  -7.224  31.455  1.00  0.00     0.052 C 
HETATM   13  C12 UNK     1      31.952  -6.899  30.404  1.00  0.00     0.018 C 
HETATM   14  C20 UNK     1      31.487  -6.225  29.142  1.00  0.00     0.069 C 
HETATM   15  H13 UNK     1      33.866  -6.955  29.637  1.00  0.00     0.165 HD
ENDROOT
BRANCH   8  16
HETATM   16  C17 UNK     1      31.624  -6.895  33.883  1.00  0.00     0.029 A 
HETATM   17  C21 UNK     1      30.619  -7.182  34.938  1.00  0.00     0.194 A 
HETATM   18  O5  UNK     1      29.893  -8.167  34.895  1.00  0.00    -0.287 OA
HETATM   19  C23 UNK     1      30.542  -6.213  36.047  1.00  0.00     0.050 A 
HETATM   20  C24 UNK     1      31.394  -5.109  36.044  1.00  0.00     0.089 A 
HETATM   21  C25 UNK     1      29.628  -6.394  37.089  1.00  0.00     0.042 A 
HETATM   22  O3  UNK     1      32.310  -4.882  35.048  1.00  0.00    -0.321 OA
HETATM   23  C26 UNK     1      31.338  -4.179  37.083  1.00  0.00     0.040 A 
HETATM   24  C22 UNK     1      32.371  -5.793  34.021  1.00  0.00     0.154 A 
HETATM   25  C28 UNK     1      30.427  -4.358  38.124  1.00  0.00     0.026 A 
HETATM   26  C27 UNK     1      29.574  -5.463  38.127  1.00  0.00     0.035 A 
HETATM   27 Cl1  UNK     1      28.453  -5.677  39.415  1.00  0.00    -0.084 Cl
ENDBRANCH   8  16
BRANCH  12  28
HETATM   28  C19 UNK     1      29.704  -7.046  31.414  1.00  0.00     0.292 C 
HETATM   29  O4  UNK     1      29.163  -5.956  31.390  1.00  0.00    -0.259 OA
BRANCH  28  30
HETATM   30  O1  UNK     1      29.124  -8.271  31.408  1.00  0.00    -0.312 OA
BRANCH  30  31
HETATM   31  C11 UNK     1      29.342  -9.035  30.228  1.00  0.00     0.132 C 
HETATM   32  C13 UNK     1      29.901 -10.407  30.603  1.00  0.00     0.032 C 
HETATM   33  C15 UNK     1      30.060 -11.302  29.378  1.00  0.00     0.002 C 
HETATM   34  C18 UNK     1      28.755 -11.420  28.595  1.00  0.00     0.000 C 
HETATM   35  C16 UNK     1      28.194 -10.050  28.221  1.00  0.00     0.002 C 
HETATM   36  C14 UNK     1      28.035  -9.155  29.445  1.00  0.00     0.032 C 
ENDBRANCH  30  31
ENDBRANCH  28  30
ENDBRANCH  12  28
TORSDOF 4
ENDMDL
MODEL 10
REMARK VINA RESULT:      -8.2      2.843      6.049
REMARK  4 active torsions:
REMARK  status: ('A' for Active; 'I' for Inactive)
REMARK    1  A    between atoms: C11_18  and  O1_2 
REMARK    2  A    between atoms: C19_26  and  O1_2 
REMARK    3  A    between atoms: C17_24  and  C6_13 
REMARK    4  A    between atoms: C10_17  and  C19_26 
ROOT
HETATM    1  O2  UNK     1      30.549  -9.282  32.281  1.00  0.00    -0.293 OA
HETATM    2  N1  UNK     1      31.214  -4.785  33.608  1.00  0.00    -0.362 N 
HETATM    3  C1  UNK     1      28.647  -6.345  31.329  1.00  0.00    -0.036 C 
HETATM    4  C2  UNK     1      29.656  -5.265  31.771  1.00  0.00     0.067 C 
HETATM    5  C3  UNK     1      29.406  -7.634  30.985  1.00  0.00     0.092 C 
HETATM    6  C4  UNK     1      30.993  -7.047  32.942  1.00  0.00     0.024 C 
HETATM    7  C5  UNK     1      30.660  -5.749  32.787  1.00  0.00     0.021 C 
HETATM    8  C6  UNK     1      32.023  -7.480  33.985  1.00  0.00     0.104 C 
HETATM    9  C7  UNK     1      30.325  -8.086  32.100  1.00  0.00     0.159 C 
HETATM   10  C8  UNK     1      27.611  -6.612  32.442  1.00  0.00     0.015 C 
HETATM   11  C9  UNK     1      27.892  -5.851  30.082  1.00  0.00     0.015 C 
HETATM   12  C10 UNK     1      32.396  -6.343  34.941  1.00  0.00     0.052 C 
HETATM   13  C12 UNK     1      32.016  -5.066  34.703  1.00  0.00     0.018 C 
HETATM   14  C20 UNK     1      32.382  -3.876  35.547  1.00  0.00     0.069 C 
HETATM   15  H13 UNK     1      30.940  -3.820  33.460  1.00  0.00     0.165 HD
ENDROOT
BRANCH   8  16
HETATM   16  C17 UNK     1      33.261  -8.022  33.315  1.00  0.00     0.029 A 
HETATM   17  C21 UNK     1      33.667  -9.422  33.600  1.00  0.00     0.194 A 
HETATM   18  O5  UNK     1      33.030 -10.143  34.356  1.00  0.00    -0.287 OA
HETATM   19  C23 UNK     1      34.883  -9.901  32.918  1.00  0.00     0.050 A 
HETATM   20  C24 UNK     1      35.569  -9.035  32.066  1.00  0.00     0.089 A 
HETATM   21  C25 UNK     1      35.347 -11.204  33.121  1.00  0.00     0.042 A 
HETATM   22  O3  UNK     1      35.159  -7.748  31.831  1.00  0.00    -0.321 OA
HETATM   23  C26 UNK     1      36.723  -9.467  31.411  1.00  0.00     0.040 A 
HETATM   24  C22 UNK     1      34.024  -7.314  32.472  1.00  0.00     0.154 A 
HETATM   25  C28 UNK     1      37.188 -10.767  31.612  1.00  0.00     0.026 A 
HETATM   26  C27 UNK     1      36.501 -11.633  32.464  1.00  0.00     0.035 A 
HETATM   27 Cl1  UNK     1      37.081 -13.236  32.707  1.00  0.00    -0.084 Cl
ENDBRANCH   8  16
BRANCH  12  28
HETATM   28  C19 UNK     1      33.134  -6.717  36.159  1.00  0.00     0.292 C 
HETATM   29  O4  UNK     1      34.292  -6.401  36.363  1.00  0.00    -0.259 OA
BRANCH  28  30
HETATM   30  O1  UNK     1      32.310  -7.441  36.953  1.00  0.00    -0.312 OA
BRANCH  30  31
HETATM   31  C11 UNK     1      31.056  -6.831  37.235  1.00  0.00     0.132 C 
HETATM   32  C13 UNK     1      30.018  -7.911  37.539  1.00  0.00     0.032 C 
HETATM   33  C15 UNK     1      28.678  -7.303  37.944  1.00  0.00     0.002 C 
HETATM   34  C18 UNK     1      28.832  -6.326  39.106  1.00  0.00     0.000 C 
HETATM   35  C16 UNK     1      29.871  -5.248  38.805  1.00  0.00     0.002 C 
HETATM   36  C14 UNK     1      31.210  -5.854  38.401  1.00  0.00     0.032 C 
ENDBRANCH  30  31
ENDBRANCH  28  30
ENDBRANCH  12  28
TORSDOF 4
ENDMDL
