MODEL 1
REMARK VINA RESULT:      -8.4      0.000      0.000
REMARK  2 active torsions:
REMARK  status: ('A' for Active; 'I' for Inactive)
REMARK    1  A    between atoms: C8_14  and  N1_5 
REMARK    2  A    between atoms: C1_7  and  C4_10 
ROOT
HETATM    1  O1  UNK     1      17.877   4.748  34.534  1.00  0.00    -0.291 OA
HETATM    2  O2  UNK     1      18.380   1.379  32.106  1.00  0.00    -0.274 OA
HETATM    3  O4  UNK     1      18.143   2.679  30.247  1.00  0.00    -0.259 OA
HETATM    4  N2  UNK     1      16.698   8.526  31.789  1.00  0.00    -0.191 NA
HETATM    5  C1  UNK     1      17.895   5.159  31.687  1.00  0.00     0.110 C 
HETATM    6  C2  UNK     1      18.055   3.796  32.344  1.00  0.00     0.066 A 
HETATM    7  C3  UNK     1      18.051   3.674  33.680  1.00  0.00     0.104 A 
HETATM    8  C5  UNK     1      17.479   6.228  32.699  1.00  0.00     0.086 C 
HETATM    9  C6  UNK     1      18.239   2.376  34.321  1.00  0.00     0.033 A 
HETATM   10  C7  UNK     1      18.192   2.601  31.471  1.00  0.00     0.298 A 
HETATM   11  C8  UNK     1      17.498   5.991  34.030  1.00  0.00     0.159 C 
HETATM   12  C9  UNK     1      18.404   1.258  33.508  1.00  0.00     0.092 A 
HETATM   13  C12 UNK     1      18.266   2.192  35.709  1.00  0.00     0.017 A 
HETATM   14  C13 UNK     1      18.593  -0.021  34.033  1.00  0.00     0.038 A 
HETATM   15  C15 UNK     1      18.455   0.916  36.251  1.00  0.00     0.001 A 
HETATM   16  C16 UNK     1      17.047   7.497  32.196  1.00  0.00     0.100 C 
HETATM   17  C17 UNK     1      18.618  -0.188  35.415  1.00  0.00     0.003 A 
ENDROOT
BRANCH   5  18
HETATM   18  C4  UNK     1      19.153   5.559  31.005  1.00  0.00    -0.020 A 
HETATM   19  C10 UNK     1      20.429   5.658  31.590  1.00  0.00     0.034 A 
HETATM   20  C14 UNK     1      21.271   6.059  30.579  1.00  0.00     0.142 A 
HETATM   21  O3  UNK     1      20.584   6.211  29.416  1.00  0.00    -0.334 OA
HETATM   22  C11 UNK     1      19.288   5.903  29.688  1.00  0.00     0.149 A 
ENDBRANCH   5  18
BRANCH  11  23
HETATM   23  N1  UNK     1      17.163   6.898  34.998  1.00  0.00    -0.379 N 
HETATM   24  H10 UNK     1      16.362   6.746  35.598  1.00  0.00     0.158 HD
HETATM   25  H9  UNK     1      17.729   7.728  35.106  1.00  0.00     0.158 HD
ENDBRANCH  11  23
TORSDOF 2
ENDMDL
MODEL 2
REMARK VINA RESULT:      -8.2     15.508     17.709
REMARK  2 active torsions:
REMARK  status: ('A' for Active; 'I' for Inactive)
REMARK    1  A    between atoms: C8_14  and  N1_5 
REMARK    2  A    between atoms: C1_7  and  C4_10 
ROOT
HETATM    1  O1  UNK     1      31.478  -5.276  36.017  1.00  0.00    -0.291 OA
HETATM    2  O2  UNK     1      32.080  -9.399  36.387  1.00  0.00    -0.274 OA
HETATM    3  O4  UNK     1      30.908  -9.398  38.344  1.00  0.00    -0.259 OA
HETATM    4  N2  UNK     1      29.372  -3.610  40.016  1.00  0.00    -0.191 NA
HETATM    5  C1  UNK     1      30.251  -6.597  38.259  1.00  0.00     0.110 C 
HETATM    6  C2  UNK     1      31.098  -7.313  37.217  1.00  0.00     0.066 A 
HETATM    7  C3  UNK     1      31.631  -6.640  36.186  1.00  0.00     0.104 A 
HETATM    8  C5  UNK     1      30.340  -5.077  38.110  1.00  0.00     0.086 C 
HETATM    9  C6  UNK     1      32.416  -7.324  35.162  1.00  0.00     0.033 A 
HETATM   10  C7  UNK     1      31.339  -8.770  37.381  1.00  0.00     0.298 A 
HETATM   11  C8  UNK     1      30.917  -4.502  37.031  1.00  0.00     0.159 C 
HETATM   12  C9  UNK     1      32.615  -8.696  35.292  1.00  0.00     0.092 A 
HETATM   13  C12 UNK     1      32.978  -6.678  34.054  1.00  0.00     0.017 A 
HETATM   14  C13 UNK     1      33.347  -9.431  34.360  1.00  0.00     0.038 A 
HETATM   15  C15 UNK     1      33.715  -7.401  33.111  1.00  0.00     0.001 A 
HETATM   16  C16 UNK     1      29.806  -4.267  39.163  1.00  0.00     0.100 C 
HETATM   17  C17 UNK     1      33.900  -8.775  33.263  1.00  0.00     0.003 A 
ENDROOT
BRANCH   5  18
HETATM   18  C4  UNK     1      28.835  -7.039  38.173  1.00  0.00    -0.020 A 
HETATM   19  C10 UNK     1      28.055  -7.560  39.221  1.00  0.00     0.034 A 
HETATM   20  C14 UNK     1      26.822  -7.825  38.671  1.00  0.00     0.142 A 
HETATM   21  O3  UNK     1      26.807  -7.497  37.353  1.00  0.00    -0.334 OA
HETATM   22  C11 UNK     1      28.044  -7.017  37.057  1.00  0.00     0.149 A 
ENDBRANCH   5  18
BRANCH  11  23
HETATM   23  N1  UNK     1      31.018  -3.155  36.814  1.00  0.00    -0.379 N 
HETATM   24  H10 UNK     1      31.692  -2.595  37.320  1.00  0.00     0.158 HD
HETATM   25  H9  UNK     1      30.404  -2.723  36.137  1.00  0.00     0.158 HD
ENDBRANCH  11  23
TORSDOF 2
ENDMDL
MODEL 3
REMARK VINA RESULT:      -8.1     22.941     25.077
REMARK  2 active torsions:
REMARK  status: ('A' for Active; 'I' for Inactive)
REMARK    1  A    between atoms: C8_14  and  N1_5 
REMARK    2  A    between atoms: C1_7  and  C4_10 
ROOT
HETATM    1  O1  UNK     1      11.558   8.349  10.241  1.00  0.00    -0.291 OA
HETATM    2  O2  UNK     1      11.418   6.535   6.475  1.00  0.00    -0.274 OA
HETATM    3  O4  UNK     1      13.693   6.617   6.346  1.00  0.00    -0.259 OA
HETATM    4  N2  UNK     1      16.086   9.679  11.199  1.00  0.00    -0.191 NA
HETATM    5  C1  UNK     1      14.066   7.756   8.963  1.00  0.00     0.110 C 
HETATM    6  C2  UNK     1      12.710   7.449   8.345  1.00  0.00     0.066 A 
HETATM    7  C3  UNK     1      11.575   7.739   9.000  1.00  0.00     0.104 A 
HETATM    8  C5  UNK     1      13.931   8.631  10.211  1.00  0.00     0.086 C 
HETATM    9  C6  UNK     1      10.270   7.416   8.430  1.00  0.00     0.033 A 
HETATM   10  C7  UNK     1      12.672   6.842   6.989  1.00  0.00     0.298 A 
HETATM   11  C8  UNK     1      12.730   8.872  10.783  1.00  0.00     0.159 C 
HETATM   12  C9  UNK     1      10.230   6.814   7.176  1.00  0.00     0.092 A 
HETATM   13  C12 UNK     1       9.055   7.675   9.078  1.00  0.00     0.017 A 
HETATM   14  C13 UNK     1       9.028   6.467   6.557  1.00  0.00     0.038 A 
HETATM   15  C15 UNK     1       7.842   7.333   8.470  1.00  0.00     0.001 A 
HETATM   16  C16 UNK     1      15.122   9.210  10.756  1.00  0.00     0.100 C 
HETATM   17  C17 UNK     1       7.829   6.731   7.213  1.00  0.00     0.003 A 
ENDROOT
BRANCH   5  18
HETATM   18  C4  UNK     1      14.785   6.499   9.293  1.00  0.00    -0.020 A 
HETATM   19  C10 UNK     1      14.234   5.350   9.889  1.00  0.00     0.034 A 
HETATM   20  C14 UNK     1      15.271   4.452   9.997  1.00  0.00     0.142 A 
HETATM   21  O3  UNK     1      16.419   4.987   9.502  1.00  0.00    -0.334 OA
HETATM   22  C11 UNK     1      16.110   6.240   9.074  1.00  0.00     0.149 A 
ENDBRANCH   5  18
BRANCH  11  23
HETATM   23  N1  UNK     1      12.528   9.624  11.908  1.00  0.00    -0.379 N 
HETATM   24  H10 UNK     1      12.927  10.550  11.994  1.00  0.00     0.158 HD
HETATM   25  H9  UNK     1      11.972   9.238  12.659  1.00  0.00     0.158 HD
ENDBRANCH  11  23
TORSDOF 2
ENDMDL
MODEL 4
REMARK VINA RESULT:      -7.9     23.420     25.179
REMARK  2 active torsions:
REMARK  status: ('A' for Active; 'I' for Inactive)
REMARK    1  A    between atoms: C8_14  and  N1_5 
REMARK    2  A    between atoms: C1_7  and  C4_10 
ROOT
HETATM    1  O1  UNK     1      12.591   8.828   9.782  1.00  0.00    -0.291 OA
HETATM    2  O2  UNK     1      14.277   5.086   8.977  1.00  0.00    -0.274 OA
HETATM    3  O4  UNK     1      12.212   4.258   8.480  1.00  0.00    -0.259 OA
HETATM    4  N2  UNK     1       7.790   8.482   9.607  1.00  0.00    -0.191 NA
HETATM    5  C1  UNK     1      10.828   6.755   8.851  1.00  0.00     0.110 C 
HETATM    6  C2  UNK     1      12.322   6.560   9.064  1.00  0.00     0.066 A 
HETATM    7  C3  UNK     1      13.092   7.573   9.488  1.00  0.00     0.104 A 
HETATM    8  C5  UNK     1      10.346   8.089   9.422  1.00  0.00     0.086 C 
HETATM    9  C6  UNK     1      14.533   7.406   9.662  1.00  0.00     0.033 A 
HETATM   10  C7  UNK     1      12.903   5.215   8.814  1.00  0.00     0.298 A 
HETATM   11  C8  UNK     1      11.215   9.039   9.837  1.00  0.00     0.159 C 
HETATM   12  C9  UNK     1      15.088   6.158   9.394  1.00  0.00     0.092 A 
HETATM   13  C12 UNK     1      15.388   8.433  10.080  1.00  0.00     0.017 A 
HETATM   14  C13 UNK     1      16.454   5.909   9.530  1.00  0.00     0.038 A 
HETATM   15  C15 UNK     1      16.761   8.199  10.220  1.00  0.00     0.001 A 
HETATM   16  C16 UNK     1       8.935   8.306   9.524  1.00  0.00     0.100 C 
HETATM   17  C17 UNK     1      17.292   6.939   9.946  1.00  0.00     0.003 A 
ENDROOT
BRANCH   5  18
HETATM   18  C4  UNK     1      10.491   6.663   7.407  1.00  0.00    -0.020 A 
HETATM   19  C10 UNK     1       9.382   6.004   6.845  1.00  0.00     0.034 A 
HETATM   20  C14 UNK     1       9.490   6.187   5.486  1.00  0.00     0.142 A 
HETATM   21  O3  UNK     1      10.597   6.917   5.189  1.00  0.00    -0.334 OA
HETATM   22  C11 UNK     1      11.203   7.203   6.371  1.00  0.00     0.149 A 
ENDBRANCH   5  18
BRANCH  11  23
HETATM   23  N1  UNK     1      10.866  10.263  10.338  1.00  0.00    -0.379 N 
HETATM   24  H10 UNK     1       9.956  10.664  10.148  1.00  0.00     0.158 HD
HETATM   25  H9  UNK     1      11.535  10.767  10.905  1.00  0.00     0.158 HD
ENDBRANCH  11  23
TORSDOF 2
ENDMDL
MODEL 5
REMARK VINA RESULT:      -7.5     16.152     17.645
REMARK  2 active torsions:
REMARK  status: ('A' for Active; 'I' for Inactive)
REMARK    1  A    between atoms: C8_14  and  N1_5 
REMARK    2  A    between atoms: C1_7  and  C4_10 
ROOT
HETATM    1  O1  UNK     1      29.425  -7.994  35.391  1.00  0.00    -0.291 OA
HETATM    2  O2  UNK     1      29.682  -5.145  38.444  1.00  0.00    -0.274 OA
HETATM    3  O4  UNK     1      28.046  -6.233  39.601  1.00  0.00    -0.259 OA
HETATM    4  N2  UNK     1      25.723 -10.945  36.276  1.00  0.00    -0.191 NA
HETATM    5  C1  UNK     1      27.763  -8.382  37.707  1.00  0.00     0.110 C 
HETATM    6  C2  UNK     1      28.716  -7.207  37.539  1.00  0.00     0.066 A 
HETATM    7  C3  UNK     1      29.475  -7.092  36.439  1.00  0.00     0.104 A 
HETATM    8  C5  UNK     1      27.615  -9.178  36.410  1.00  0.00     0.086 C 
HETATM    9  C6  UNK     1      30.418  -5.988  36.284  1.00  0.00     0.033 A 
HETATM   10  C7  UNK     1      28.769  -6.180  38.612  1.00  0.00     0.298 A 
HETATM   11  C8  UNK     1      28.429  -8.967  35.351  1.00  0.00     0.159 C 
HETATM   12  C9  UNK     1      30.498  -5.042  37.302  1.00  0.00     0.092 A 
HETATM   13  C12 UNK     1      31.250  -5.828  35.168  1.00  0.00     0.017 A 
HETATM   14  C13 UNK     1      31.372  -3.957  37.240  1.00  0.00     0.038 A 
HETATM   15  C15 UNK     1      32.133  -4.745  35.092  1.00  0.00     0.001 A 
HETATM   16  C16 UNK     1      26.570 -10.153  36.336  1.00  0.00     0.100 C 
HETATM   17  C17 UNK     1      32.193  -3.812  36.126  1.00  0.00     0.003 A 
ENDROOT
BRANCH   5  18
HETATM   18  C4  UNK     1      28.220  -9.271  38.806  1.00  0.00    -0.020 A 
HETATM   19  C10 UNK     1      27.495  -9.617  39.961  1.00  0.00     0.034 A 
HETATM   20  C14 UNK     1      28.318 -10.454  40.679  1.00  0.00     0.142 A 
HETATM   21  O3  UNK     1      29.498 -10.636  40.031  1.00  0.00    -0.334 OA
HETATM   22  C11 UNK     1      29.429  -9.907  38.885  1.00  0.00     0.149 A 
ENDBRANCH   5  18
BRANCH  11  23
HETATM   23  N1  UNK     1      28.376  -9.650  34.166  1.00  0.00    -0.379 N 
HETATM   24  H10 UNK     1      27.811 -10.484  34.070  1.00  0.00     0.158 HD
HETATM   25  H9  UNK     1      28.914  -9.307  33.381  1.00  0.00     0.158 HD
ENDBRANCH  11  23
TORSDOF 2
ENDMDL
MODEL 6
REMARK VINA RESULT:      -7.4     15.014     16.688
REMARK  2 active torsions:
REMARK  status: ('A' for Active; 'I' for Inactive)
REMARK    1  A    between atoms: C8_14  and  N1_5 
REMARK    2  A    between atoms: C1_7  and  C4_10 
ROOT
HETATM    1  O1  UNK     1      31.653  -5.190  34.023  1.00  0.00    -0.291 OA
HETATM    2  O2  UNK     1      28.114  -7.418  34.112  1.00  0.00    -0.274 OA
HETATM    3  O4  UNK     1      28.560  -8.049  36.257  1.00  0.00    -0.259 OA
HETATM    4  N2  UNK     1      34.151  -6.009  38.058  1.00  0.00    -0.191 NA
HETATM    5  C1  UNK     1      30.974  -6.498  36.493  1.00  0.00     0.110 C 
HETATM    6  C2  UNK     1      30.123  -6.577  35.234  1.00  0.00     0.066 A 
HETATM    7  C3  UNK     1      30.489  -5.931  34.117  1.00  0.00     0.104 A 
HETATM    8  C5  UNK     1      32.336  -5.859  36.214  1.00  0.00     0.086 C 
HETATM    9  C6  UNK     1      29.661  -5.972  32.915  1.00  0.00     0.033 A 
HETATM   10  C7  UNK     1      28.889  -7.405  35.266  1.00  0.00     0.298 A 
HETATM   11  C8  UNK     1      32.604  -5.245  35.040  1.00  0.00     0.159 C 
HETATM   12  C9  UNK     1      28.486  -6.716  32.950  1.00  0.00     0.092 A 
HETATM   13  C12 UNK     1      29.982  -5.301  31.728  1.00  0.00     0.017 A 
HETATM   14  C13 UNK     1      27.632  -6.808  31.850  1.00  0.00     0.038 A 
HETATM   15  C15 UNK     1      29.136  -5.383  30.617  1.00  0.00     0.001 A 
HETATM   16  C16 UNK     1      33.338  -5.943  37.233  1.00  0.00     0.100 C 
HETATM   17  C17 UNK     1      27.964  -6.135  30.678  1.00  0.00     0.003 A 
ENDROOT
BRANCH   5  18
HETATM   18  C4  UNK     1      30.262  -5.746  37.557  1.00  0.00    -0.020 A 
HETATM   19  C10 UNK     1      30.014  -4.361  37.582  1.00  0.00     0.034 A 
HETATM   20  C14 UNK     1      29.332  -4.126  38.753  1.00  0.00     0.142 A 
HETATM   21  O3  UNK     1      29.150  -5.284  39.441  1.00  0.00    -0.334 OA
HETATM   22  C11 UNK     1      29.724  -6.270  38.701  1.00  0.00     0.149 A 
ENDBRANCH   5  18
BRANCH  11  23
HETATM   23  N1  UNK     1      33.785  -4.632  34.721  1.00  0.00    -0.379 N 
HETATM   24  H10 UNK     1      34.176  -4.706  33.790  1.00  0.00     0.158 HD
HETATM   25  H9  UNK     1      34.267  -4.102  35.434  1.00  0.00     0.158 HD
ENDBRANCH  11  23
TORSDOF 2
ENDMDL
MODEL 7
REMARK VINA RESULT:      -7.3      2.357      3.302
REMARK  2 active torsions:
REMARK  status: ('A' for Active; 'I' for Inactive)
REMARK    1  A    between atoms: C8_14  and  N1_5 
REMARK    2  A    between atoms: C1_7  and  C4_10 
ROOT
HETATM    1  O1  UNK     1      19.014   1.762  32.952  1.00  0.00    -0.291 OA
HETATM    2  O2  UNK     1      19.034   0.815  28.877  1.00  0.00    -0.274 OA
HETATM    3  O4  UNK     1      18.226   2.890  28.387  1.00  0.00    -0.259 OA
HETATM    4  N2  UNK     1      16.914   6.051  33.577  1.00  0.00    -0.191 NA
HETATM    5  C1  UNK     1      18.234   3.828  31.108  1.00  0.00     0.110 C 
HETATM    6  C2  UNK     1      18.645   2.427  30.681  1.00  0.00     0.066 A 
HETATM    7  C3  UNK     1      19.012   1.512  31.591  1.00  0.00     0.104 A 
HETATM    8  C5  UNK     1      18.046   3.923  32.623  1.00  0.00     0.086 C 
HETATM    9  C6  UNK     1      19.443   0.176  31.189  1.00  0.00     0.033 A 
HETATM   10  C7  UNK     1      18.609   2.089  29.234  1.00  0.00     0.298 A 
HETATM   11  C8  UNK     1      18.440   2.930  33.451  1.00  0.00     0.159 C 
HETATM   12  C9  UNK     1      19.445  -0.134  29.832  1.00  0.00     0.092 A 
HETATM   13  C12 UNK     1      19.856  -0.811  32.093  1.00  0.00     0.017 A 
HETATM   14  C13 UNK     1      19.844  -1.384  29.357  1.00  0.00     0.038 A 
HETATM   15  C15 UNK     1      20.259  -2.069  31.632  1.00  0.00     0.001 A 
HETATM   16  C16 UNK     1      17.421   5.099  33.150  1.00  0.00     0.100 C 
HETATM   17  C17 UNK     1      20.253  -2.355  30.267  1.00  0.00     0.003 A 
ENDROOT
BRANCH   5  18
HETATM   18  C4  UNK     1      19.233   4.827  30.650  1.00  0.00    -0.020 A 
HETATM   19  C10 UNK     1      20.490   5.081  31.229  1.00  0.00     0.034 A 
HETATM   20  C14 UNK     1      21.054   6.080  30.470  1.00  0.00     0.142 A 
HETATM   21  O3  UNK     1      20.216   6.449  29.466  1.00  0.00    -0.334 OA
HETATM   22  C11 UNK     1      19.104   5.676  29.585  1.00  0.00     0.149 A 
ENDBRANCH   5  18
BRANCH  11  23
HETATM   23  N1  UNK     1      18.328   2.947  34.815  1.00  0.00    -0.379 N 
HETATM   24  H10 UNK     1      17.610   2.410  35.285  1.00  0.00     0.158 HD
HETATM   25  H9  UNK     1      18.975   3.510  35.350  1.00  0.00     0.158 HD
ENDBRANCH  11  23
TORSDOF 2
ENDMDL
MODEL 8
REMARK VINA RESULT:      -7.3      4.733      7.589
REMARK  2 active torsions:
REMARK  status: ('A' for Active; 'I' for Inactive)
REMARK    1  A    between atoms: C8_14  and  N1_5 
REMARK    2  A    between atoms: C1_7  and  C4_10 
ROOT
HETATM    1  O1  UNK     1      15.289   8.273  33.142  1.00  0.00    -0.291 OA
HETATM    2  O2  UNK     1      18.948  10.038  34.138  1.00  0.00    -0.274 OA
HETATM    3  O4  UNK     1      17.919  12.062  34.348  1.00  0.00    -0.259 OA
HETATM    4  N2  UNK     1      11.943  11.705  32.668  1.00  0.00    -0.191 NA
HETATM    5  C1  UNK     1      15.270  11.071  33.812  1.00  0.00     0.110 C 
HETATM    6  C2  UNK     1      16.528  10.214  33.800  1.00  0.00     0.066 A 
HETATM    7  C3  UNK     1      16.466   8.909  33.492  1.00  0.00     0.104 A 
HETATM    8  C5  UNK     1      14.081  10.335  33.191  1.00  0.00     0.086 C 
HETATM    9  C6  UNK     1      17.661   8.071  33.512  1.00  0.00     0.033 A 
HETATM   10  C7  UNK     1      17.828  10.861  34.116  1.00  0.00     0.298 A 
HETATM   11  C8  UNK     1      14.134   9.015  32.904  1.00  0.00     0.159 C 
HETATM   12  C9  UNK     1      18.876   8.664  33.842  1.00  0.00     0.092 A 
HETATM   13  C12 UNK     1      17.654   6.701  33.220  1.00  0.00     0.017 A 
HETATM   14  C13 UNK     1      20.068   7.940  33.890  1.00  0.00     0.038 A 
HETATM   15  C15 UNK     1      18.840   5.961  33.264  1.00  0.00     0.001 A 
HETATM   16  C16 UNK     1      12.900  11.092  32.902  1.00  0.00     0.100 C 
HETATM   17  C17 UNK     1      20.044   6.579  33.598  1.00  0.00     0.003 A 
ENDROOT
BRANCH   5  18
HETATM   18  C4  UNK     1      14.944  11.497  35.197  1.00  0.00    -0.020 A 
HETATM   19  C10 UNK     1      15.013  12.806  35.709  1.00  0.00     0.034 A 
HETATM   20  C14 UNK     1      14.621  12.713  37.024  1.00  0.00     0.142 A 
HETATM   21  O3  UNK     1      14.317  11.426  37.342  1.00  0.00    -0.334 OA
HETATM   22  C11 UNK     1      14.518  10.691  36.216  1.00  0.00     0.149 A 
ENDBRANCH   5  18
BRANCH  11  23
HETATM   23  N1  UNK     1      13.110   8.282  32.369  1.00  0.00    -0.379 N 
HETATM   24  H10 UNK     1      12.328   7.986  32.940  1.00  0.00     0.158 HD
HETATM   25  H9  UNK     1      13.146   8.037  31.389  1.00  0.00     0.158 HD
ENDBRANCH  11  23
TORSDOF 2
ENDMDL
MODEL 9
REMARK VINA RESULT:      -7.3     18.869     20.869
REMARK  2 active torsions:
REMARK  status: ('A' for Active; 'I' for Inactive)
REMARK    1  A    between atoms: C8_14  and  N1_5 
REMARK    2  A    between atoms: C1_7  and  C4_10 
ROOT
HETATM    1  O1  UNK     1      21.759  -6.670  14.837  1.00  0.00    -0.291 OA
HETATM    2  O2  UNK     1      20.393  -3.034  16.388  1.00  0.00    -0.274 OA
HETATM    3  O4  UNK     1      18.530  -3.171  15.081  1.00  0.00    -0.259 OA
HETATM    4  N2  UNK     1      18.842  -8.076  11.272  1.00  0.00    -0.191 NA
HETATM    5  C1  UNK     1      19.184  -5.739  13.956  1.00  0.00     0.110 C 
HETATM    6  C2  UNK     1      20.063  -4.984  14.943  1.00  0.00     0.066 A 
HETATM    7  C3  UNK     1      21.249  -5.481  15.324  1.00  0.00     0.104 A 
HETATM    8  C5  UNK     1      19.935  -6.905  13.310  1.00  0.00     0.086 C 
HETATM    9  C6  UNK     1      22.083  -4.781  16.297  1.00  0.00     0.033 A 
HETATM   10  C7  UNK     1      19.585  -3.673  15.456  1.00  0.00     0.298 A 
HETATM   11  C8  UNK     1      21.140  -7.314  13.768  1.00  0.00     0.159 C 
HETATM   12  C9  UNK     1      21.625  -3.570  16.809  1.00  0.00     0.092 A 
HETATM   13  C12 UNK     1      23.320  -5.262  16.748  1.00  0.00     0.017 A 
HETATM   14  C13 UNK     1      22.353  -2.836  17.745  1.00  0.00     0.038 A 
HETATM   15  C15 UNK     1      24.061  -4.537  17.687  1.00  0.00     0.001 A 
HETATM   16  C16 UNK     1      19.332  -7.551  12.184  1.00  0.00     0.100 C 
HETATM   17  C17 UNK     1      23.579  -3.327  18.184  1.00  0.00     0.003 A 
ENDROOT
BRANCH   5  18
HETATM   18  C4  UNK     1      17.952  -6.229  14.624  1.00  0.00    -0.020 A 
HETATM   19  C10 UNK     1      17.803  -6.534  15.990  1.00  0.00     0.034 A 
HETATM   20  C14 UNK     1      16.499  -6.946  16.139  1.00  0.00     0.142 A 
HETATM   21  O3  UNK     1      15.847  -6.909  14.948  1.00  0.00    -0.334 OA
HETATM   22  C11 UNK     1      16.745  -6.469  14.027  1.00  0.00     0.149 A 
ENDBRANCH   5  18
BRANCH  11  23
HETATM   23  N1  UNK     1      21.864  -8.359  13.261  1.00  0.00    -0.379 N 
HETATM   24  H10 UNK     1      22.837  -8.243  13.008  1.00  0.00     0.158 HD
HETATM   25  H9  UNK     1      21.409  -9.254  13.141  1.00  0.00     0.158 HD
ENDBRANCH  11  23
TORSDOF 2
ENDMDL
MODEL 10
REMARK VINA RESULT:      -7.1     15.777     16.905
REMARK  2 active torsions:
REMARK  status: ('A' for Active; 'I' for Inactive)
REMARK    1  A    between atoms: C8_14  and  N1_5 
REMARK    2  A    between atoms: C1_7  and  C4_10 
ROOT
HETATM    1  O1  UNK     1      29.305  -5.861  38.838  1.00  0.00    -0.291 OA
HETATM    2  O2  UNK     1      29.062  -9.135  36.246  1.00  0.00    -0.274 OA
HETATM    3  O4  UNK     1      30.465  -8.088  34.785  1.00  0.00    -0.259 OA
HETATM    4  N2  UNK     1      31.762  -2.315  36.696  1.00  0.00    -0.191 NA
HETATM    5  C1  UNK     1      30.896  -5.774  36.443  1.00  0.00     0.110 C 
HETATM    6  C2  UNK     1      29.982  -6.935  36.808  1.00  0.00     0.066 A 
HETATM    7  C3  UNK     1      29.276  -6.919  37.948  1.00  0.00     0.104 A 
HETATM    8  C5  UNK     1      30.676  -4.573  37.363  1.00  0.00     0.086 C 
HETATM    9  C6  UNK     1      28.423  -8.044  38.324  1.00  0.00     0.033 A 
HETATM   10  C7  UNK     1      29.872  -8.074  35.859  1.00  0.00     0.298 A 
HETATM   11  C8  UNK     1      29.928  -4.666  38.486  1.00  0.00     0.159 C 
HETATM   12  C9  UNK     1      28.344  -9.129  37.457  1.00  0.00     0.092 A 
HETATM   13  C12 UNK     1      27.680  -8.092  39.511  1.00  0.00     0.017 A 
HETATM   14  C13 UNK     1      27.558 -10.247  37.736  1.00  0.00     0.038 A 
HETATM   15  C15 UNK     1      26.887  -9.206  39.805  1.00  0.00     0.001 A 
HETATM   16  C16 UNK     1      31.276  -3.326  36.994  1.00  0.00     0.100 C 
HETATM   17  C17 UNK     1      26.826 -10.281  38.920  1.00  0.00     0.003 A 
ENDROOT
BRANCH   5  18
HETATM   18  C4  UNK     1      32.319  -6.199  36.484  1.00  0.00    -0.020 A 
HETATM   19  C10 UNK     1      32.979  -6.815  37.563  1.00  0.00     0.034 A 
HETATM   20  C14 UNK     1      34.272  -7.020  37.141  1.00  0.00     0.142 A 
HETATM   21  O3  UNK     1      34.437  -6.565  35.871  1.00  0.00    -0.334 OA
HETATM   22  C11 UNK     1      33.236  -6.065  35.478  1.00  0.00     0.149 A 
ENDBRANCH   5  18
BRANCH  11  23
HETATM   23  N1  UNK     1      29.702  -3.646  39.370  1.00  0.00    -0.379 N 
HETATM   24  H10 UNK     1      28.851  -3.611  39.917  1.00  0.00     0.158 HD
HETATM   25  H9  UNK     1      30.400  -2.922  39.468  1.00  0.00     0.158 HD
ENDBRANCH  11  23
TORSDOF 2
ENDMDL
