MODEL 1
REMARK VINA RESULT:      -8.5      0.000      0.000
REMARK  3 active torsions:
REMARK  status: ('A' for Active; 'I' for Inactive)
REMARK    1  A    between atoms: C11_14  and  O2_2 
REMARK    2  A    between atoms: C1_4  and  C4_7 
REMARK    3  A    between atoms: C4_7  and  C6_9 
ROOT
HETATM    1  O1  UNK     1      18.845   0.644  32.725  1.00  0.00    -0.274 OA
HETATM    2  O3  UNK     1      17.885   2.319  33.919  1.00  0.00    -0.259 OA
HETATM    3  C1  UNK     1      18.208   2.732  31.596  1.00  0.00     0.029 A 
HETATM    4  C2  UNK     1      18.690   2.279  30.419  1.00  0.00    -0.036 A 
HETATM    5  C3  UNK     1      19.258   0.917  30.343  1.00  0.00     0.005 A 
HETATM    6  C5  UNK     1      19.318   0.147  31.501  1.00  0.00     0.092 A 
HETATM    7  C7  UNK     1      18.287   1.907  32.835  1.00  0.00     0.295 A 
HETATM    8  C8  UNK     1      18.701   3.094  29.149  1.00  0.00     0.050 C 
HETATM    9  C9  UNK     1      19.742   0.333  29.162  1.00  0.00     0.017 A 
HETATM   10  C10 UNK     1      19.840  -1.149  31.517  1.00  0.00     0.075 A 
HETATM   11  C11 UNK     1      20.318  -1.705  30.336  1.00  0.00     0.070 A 
HETATM   12  C12 UNK     1      20.268  -0.964  29.158  1.00  0.00     0.038 A 
ENDROOT
BRANCH   3  13
HETATM   13  C4  UNK     1      17.546   4.071  31.797  1.00  0.00     0.084 C 
BRANCH  13  14
HETATM   14  C6  UNK     1      18.499   5.097  32.339  1.00  0.00    -0.054 A 
HETATM   15  C13 UNK     1      18.235   5.704  33.561  1.00  0.00     0.007 A 
HETATM   16  C15 UNK     1      19.121   6.657  34.065  1.00  0.00     0.001 A 
HETATM   17  C17 UNK     1      20.266   6.995  33.343  1.00  0.00     0.000 A 
HETATM   18  C16 UNK     1      20.524   6.381  32.117  1.00  0.00     0.001 A 
HETATM   19  C14 UNK     1      19.638   5.428  31.614  1.00  0.00     0.007 A 
ENDBRANCH  13  14
ENDBRANCH   3  13
BRANCH  11  20
HETATM   20  O2  UNK     1      20.830  -2.965  30.331  1.00  0.00    -0.356 OA
HETATM   21  C18 UNK     1      21.126  -3.553  31.597  1.00  0.00     0.210 C 
ENDBRANCH  11  20
TORSDOF 3
ENDMDL
MODEL 2
REMARK VINA RESULT:      -7.7     22.738     24.537
REMARK  3 active torsions:
REMARK  status: ('A' for Active; 'I' for Inactive)
REMARK    1  A    between atoms: C11_14  and  O2_2 
REMARK    2  A    between atoms: C1_4  and  C4_7 
REMARK    3  A    between atoms: C4_7  and  C6_9 
ROOT
HETATM    1  O1  UNK     1      15.945   6.471   9.805  1.00  0.00    -0.274 OA
HETATM    2  O3  UNK     1      14.820   4.500   9.761  1.00  0.00    -0.259 OA
HETATM    3  C1  UNK     1      13.488   6.474   9.738  1.00  0.00     0.029 A 
HETATM    4  C2  UNK     1      13.457   7.823   9.783  1.00  0.00    -0.036 A 
HETATM    5  C3  UNK     1      14.728   8.578   9.803  1.00  0.00     0.005 A 
HETATM    6  C5  UNK     1      15.928   7.875   9.816  1.00  0.00     0.092 A 
HETATM    7  C7  UNK     1      14.778   5.727   9.766  1.00  0.00     0.295 A 
HETATM    8  C8  UNK     1      12.183   8.631   9.828  1.00  0.00     0.050 C 
HETATM    9  C9  UNK     1      14.808   9.979   9.802  1.00  0.00     0.017 A 
HETATM   10  C10 UNK     1      17.173   8.510   9.837  1.00  0.00     0.075 A 
HETATM   11  C11 UNK     1      17.228   9.898   9.840  1.00  0.00     0.070 A 
HETATM   12  C12 UNK     1      16.045  10.633   9.821  1.00  0.00     0.038 A 
ENDROOT
BRANCH   3  13
HETATM   13  C4  UNK     1      12.272   5.587   9.649  1.00  0.00     0.084 C 
BRANCH  13  14
HETATM   14  C6  UNK     1      11.492   5.824   8.389  1.00  0.00    -0.054 A 
HETATM   15  C13 UNK     1      10.111   5.974   8.453  1.00  0.00     0.007 A 
HETATM   16  C15 UNK     1       9.386   6.195   7.281  1.00  0.00     0.001 A 
HETATM   17  C17 UNK     1      10.046   6.264   6.055  1.00  0.00     0.000 A 
HETATM   18  C16 UNK     1      11.432   6.112   5.999  1.00  0.00     0.001 A 
HETATM   19  C14 UNK     1      12.157   5.892   7.171  1.00  0.00     0.007 A 
ENDBRANCH  13  14
ENDBRANCH   3  13
BRANCH  11  20
HETATM   20  O2  UNK     1      18.429  10.536   9.859  1.00  0.00    -0.356 OA
HETATM   21  C18 UNK     1      18.648  11.542   8.870  1.00  0.00     0.210 C 
ENDBRANCH  11  20
TORSDOF 3
ENDMDL
MODEL 3
REMARK VINA RESULT:      -7.7      1.588      2.543
REMARK  3 active torsions:
REMARK  status: ('A' for Active; 'I' for Inactive)
REMARK    1  A    between atoms: C11_14  and  O2_2 
REMARK    2  A    between atoms: C1_4  and  C4_7 
REMARK    3  A    between atoms: C4_7  and  C6_9 
ROOT
HETATM    1  O1  UNK     1      19.233   0.834  29.071  1.00  0.00    -0.274 OA
HETATM    2  O3  UNK     1      18.348   2.825  28.436  1.00  0.00    -0.259 OA
HETATM    3  C1  UNK     1      18.320   2.356  30.770  1.00  0.00     0.029 A 
HETATM    4  C2  UNK     1      18.597   1.474  31.754  1.00  0.00    -0.036 A 
HETATM    5  C3  UNK     1      19.266   0.199  31.419  1.00  0.00     0.005 A 
HETATM    6  C5  UNK     1      19.559  -0.078  30.088  1.00  0.00     0.092 A 
HETATM    7  C7  UNK     1      18.625   2.047  29.344  1.00  0.00     0.295 A 
HETATM    8  C8  UNK     1      18.248   1.701  33.205  1.00  0.00     0.050 C 
HETATM    9  C9  UNK     1      19.639  -0.764  32.369  1.00  0.00     0.017 A 
HETATM   10  C10 UNK     1      20.188  -1.258  29.685  1.00  0.00     0.075 A 
HETATM   11  C11 UNK     1      20.545  -2.200  30.643  1.00  0.00     0.070 A 
HETATM   12  C12 UNK     1      20.272  -1.952  31.985  1.00  0.00     0.038 A 
ENDROOT
BRANCH   3  13
HETATM   13  C4  UNK     1      17.702   3.715  30.981  1.00  0.00     0.084 C 
BRANCH  13  14
HETATM   14  C6  UNK     1      18.670   4.688  31.588  1.00  0.00    -0.054 A 
HETATM   15  C13 UNK     1      19.751   5.140  30.840  1.00  0.00     0.007 A 
HETATM   16  C15 UNK     1      20.651   6.045  31.403  1.00  0.00     0.001 A 
HETATM   17  C17 UNK     1      20.462   6.493  32.711  1.00  0.00     0.000 A 
HETATM   18  C16 UNK     1      19.374   6.035  33.455  1.00  0.00     0.001 A 
HETATM   19  C14 UNK     1      18.475   5.130  32.891  1.00  0.00     0.007 A 
ENDBRANCH  13  14
ENDBRANCH   3  13
BRANCH  11  20
HETATM   20  O2  UNK     1      21.159  -3.356  30.271  1.00  0.00    -0.356 OA
HETATM   21  C18 UNK     1      21.576  -4.236  31.315  1.00  0.00     0.210 C 
ENDBRANCH  11  20
TORSDOF 3
ENDMDL
MODEL 4
REMARK VINA RESULT:      -7.4      4.759      9.832
REMARK  3 active torsions:
REMARK  status: ('A' for Active; 'I' for Inactive)
REMARK    1  A    between atoms: C11_14  and  O2_2 
REMARK    2  A    between atoms: C1_4  and  C4_7 
REMARK    3  A    between atoms: C4_7  and  C6_9 
ROOT
HETATM    1  O1  UNK     1      16.069   9.033  34.052  1.00  0.00    -0.274 OA
HETATM    2  O3  UNK     1      16.112   6.763  34.060  1.00  0.00    -0.259 OA
HETATM    3  C1  UNK     1      18.225   7.857  34.149  1.00  0.00     0.029 A 
HETATM    4  C2  UNK     1      18.899   9.027  34.139  1.00  0.00    -0.036 A 
HETATM    5  C3  UNK     1      18.146  10.298  34.123  1.00  0.00     0.005 A 
HETATM    6  C5  UNK     1      16.756  10.257  34.078  1.00  0.00     0.092 A 
HETATM    7  C7  UNK     1      16.736   7.819  34.087  1.00  0.00     0.295 A 
HETATM    8  C8  UNK     1      20.405   9.126  34.130  1.00  0.00     0.050 C 
HETATM    9  C9  UNK     1      18.747  11.566  34.159  1.00  0.00     0.017 A 
HETATM   10  C10 UNK     1      15.968  11.411  34.058  1.00  0.00     0.075 A 
HETATM   11  C11 UNK     1      16.585  12.656  34.090  1.00  0.00     0.070 A 
HETATM   12  C12 UNK     1      17.974  12.734  34.142  1.00  0.00     0.038 A 
ENDROOT
BRANCH   3  13
HETATM   13  C4  UNK     1      18.866   6.495  34.230  1.00  0.00     0.084 C 
BRANCH  13  14
HETATM   14  C6  UNK     1      18.963   5.835  32.885  1.00  0.00    -0.054 A 
HETATM   15  C13 UNK     1      19.743   6.412  31.890  1.00  0.00     0.007 A 
HETATM   16  C15 UNK     1      19.834   5.798  30.640  1.00  0.00     0.001 A 
HETATM   17  C17 UNK     1      19.144   4.611  30.395  1.00  0.00     0.000 A 
HETATM   18  C16 UNK     1      18.362   4.038  31.399  1.00  0.00     0.001 A 
HETATM   19  C14 UNK     1      18.272   4.652  32.648  1.00  0.00     0.007 A 
ENDBRANCH  13  14
ENDBRANCH   3  13
BRANCH  11  20
HETATM   20  O2  UNK     1      15.836  13.791  34.073  1.00  0.00    -0.356 OA
HETATM   21  C18 UNK     1      14.934  13.959  32.979  1.00  0.00     0.210 C 
ENDBRANCH  11  20
TORSDOF 3
ENDMDL
MODEL 5
REMARK VINA RESULT:      -7.4     22.856     24.806
REMARK  3 active torsions:
REMARK  status: ('A' for Active; 'I' for Inactive)
REMARK    1  A    between atoms: C11_14  and  O2_2 
REMARK    2  A    between atoms: C1_4  and  C4_7 
REMARK    3  A    between atoms: C4_7  and  C6_9 
ROOT
HETATM    1  O1  UNK     1      13.587   9.291   9.512  1.00  0.00    -0.274 OA
HETATM    2  O3  UNK     1      11.367   8.858   9.327  1.00  0.00    -0.259 OA
HETATM    3  C1  UNK     1      12.797   6.964   9.529  1.00  0.00     0.029 A 
HETATM    4  C2  UNK     1      14.061   6.502   9.625  1.00  0.00    -0.036 A 
HETATM    5  C3  UNK     1      15.181   7.463   9.710  1.00  0.00     0.005 A 
HETATM    6  C5  UNK     1      14.904   8.825   9.648  1.00  0.00     0.092 A 
HETATM    7  C7  UNK     1      12.508   8.425   9.450  1.00  0.00     0.295 A 
HETATM    8  C8  UNK     1      14.418   5.035   9.639  1.00  0.00     0.050 C 
HETATM    9  C9  UNK     1      16.525   7.090   9.859  1.00  0.00     0.017 A 
HETATM   10  C10 UNK     1      15.903   9.800   9.719  1.00  0.00     0.075 A 
HETATM   11  C11 UNK     1      17.228   9.407   9.862  1.00  0.00     0.070 A 
HETATM   12  C12 UNK     1      17.539   8.052   9.934  1.00  0.00     0.038 A 
ENDROOT
BRANCH   3  13
HETATM   13  C4  UNK     1      11.563   6.098   9.500  1.00  0.00     0.084 C 
BRANCH  13  14
HETATM   14  C6  UNK     1      10.894   6.111   8.157  1.00  0.00    -0.054 A 
HETATM   15  C13 UNK     1      11.668   6.069   7.003  1.00  0.00     0.007 A 
HETATM   16  C15 UNK     1      11.046   6.081   5.753  1.00  0.00     0.001 A 
HETATM   17  C17 UNK     1       9.655   6.134   5.668  1.00  0.00     0.000 A 
HETATM   18  C16 UNK     1       8.885   6.177   6.830  1.00  0.00     0.001 A 
HETATM   19  C14 UNK     1       9.507   6.165   8.079  1.00  0.00     0.007 A 
ENDBRANCH  13  14
ENDBRANCH   3  13
BRANCH  11  20
HETATM   20  O2  UNK     1      18.215  10.341   9.934  1.00  0.00    -0.356 OA
HETATM   21  C18 UNK     1      18.263  11.319   8.895  1.00  0.00     0.210 C 
ENDBRANCH  11  20
TORSDOF 3
ENDMDL
MODEL 6
REMARK VINA RESULT:      -7.4      5.863     10.115
REMARK  3 active torsions:
REMARK  status: ('A' for Active; 'I' for Inactive)
REMARK    1  A    between atoms: C11_14  and  O2_2 
REMARK    2  A    between atoms: C1_4  and  C4_7 
REMARK    3  A    between atoms: C4_7  and  C6_9 
ROOT
HETATM    1  O1  UNK     1      18.842  10.842  34.240  1.00  0.00    -0.274 OA
HETATM    2  O3  UNK     1      20.619   9.433  34.343  1.00  0.00    -0.259 OA
HETATM    3  C1  UNK     1      18.467   8.414  34.287  1.00  0.00     0.029 A 
HETATM    4  C2  UNK     1      17.129   8.588  34.267  1.00  0.00    -0.036 A 
HETATM    5  C3  UNK     1      16.576   9.957  34.192  1.00  0.00     0.005 A 
HETATM    6  C5  UNK     1      17.453  11.037  34.183  1.00  0.00     0.092 A 
HETATM    7  C7  UNK     1      19.401   9.576  34.290  1.00  0.00     0.295 A 
HETATM    8  C8  UNK     1      16.135   7.454  34.333  1.00  0.00     0.050 C 
HETATM    9  C9  UNK     1      15.205  10.247  34.120  1.00  0.00     0.017 A 
HETATM   10  C10 UNK     1      17.015  12.362  34.115  1.00  0.00     0.075 A 
HETATM   11  C11 UNK     1      15.652  12.626  34.049  1.00  0.00     0.070 A 
HETATM   12  C12 UNK     1      14.747  11.568  34.050  1.00  0.00     0.038 A 
ENDROOT
BRANCH   3  13
HETATM   13  C4  UNK     1      19.161   7.075  34.297  1.00  0.00     0.084 C 
BRANCH  13  14
HETATM   14  C6  UNK     1      19.550   6.630  32.918  1.00  0.00    -0.054 A 
HETATM   15  C13 UNK     1      18.576   6.511  31.933  1.00  0.00     0.007 A 
HETATM   16  C15 UNK     1      18.938   6.098  30.650  1.00  0.00     0.001 A 
HETATM   17  C17 UNK     1      20.271   5.807  30.361  1.00  0.00     0.000 A 
HETATM   18  C16 UNK     1      21.243   5.928  31.355  1.00  0.00     0.001 A 
HETATM   19  C14 UNK     1      20.880   6.341  32.637  1.00  0.00     0.007 A 
ENDBRANCH  13  14
ENDBRANCH   3  13
BRANCH  11  20
HETATM   20  O2  UNK     1      15.205  13.909  33.981  1.00  0.00    -0.356 OA
HETATM   21  C18 UNK     1      15.678  14.706  32.896  1.00  0.00     0.210 C 
ENDBRANCH  11  20
TORSDOF 3
ENDMDL
MODEL 7
REMARK VINA RESULT:      -7.4      4.606      9.237
REMARK  3 active torsions:
REMARK  status: ('A' for Active; 'I' for Inactive)
REMARK    1  A    between atoms: C11_14  and  O2_2 
REMARK    2  A    between atoms: C1_4  and  C4_7 
REMARK    3  A    between atoms: C4_7  and  C6_9 
ROOT
HETATM    1  O1  UNK     1      15.889   8.502  31.392  1.00  0.00    -0.274 OA
HETATM    2  O3  UNK     1      17.255   7.216  30.115  1.00  0.00    -0.259 OA
HETATM    3  C1  UNK     1      17.889   7.485  32.395  1.00  0.00     0.029 A 
HETATM    4  C2  UNK     1      17.624   8.062  33.586  1.00  0.00    -0.036 A 
HETATM    5  C3  UNK     1      16.407   8.887  33.738  1.00  0.00     0.005 A 
HETATM    6  C5  UNK     1      15.583   9.080  32.634  1.00  0.00     0.092 A 
HETATM    7  C7  UNK     1      17.008   7.706  31.213  1.00  0.00     0.295 A 
HETATM    8  C8  UNK     1      18.515   7.931  34.797  1.00  0.00     0.050 C 
HETATM    9  C9  UNK     1      16.016   9.492  34.942  1.00  0.00     0.017 A 
HETATM   10  C10 UNK     1      14.415   9.846  32.691  1.00  0.00     0.075 A 
HETATM   11  C11 UNK     1      14.049  10.440  33.893  1.00  0.00     0.070 A 
HETATM   12  C12 UNK     1      14.849  10.262  35.019  1.00  0.00     0.038 A 
ENDROOT
BRANCH   3  13
HETATM   13  C4  UNK     1      19.056   6.570  32.122  1.00  0.00     0.084 C 
BRANCH  13  14
HETATM   14  C6  UNK     1      18.712   5.128  32.359  1.00  0.00    -0.054 A 
HETATM   15  C13 UNK     1      18.577   4.266  31.277  1.00  0.00     0.007 A 
HETATM   16  C15 UNK     1      18.258   2.926  31.497  1.00  0.00     0.001 A 
HETATM   17  C17 UNK     1      18.077   2.457  32.798  1.00  0.00     0.000 A 
HETATM   18  C16 UNK     1      18.214   3.329  33.879  1.00  0.00     0.001 A 
HETATM   19  C14 UNK     1      18.533   4.669  33.658  1.00  0.00     0.007 A 
ENDBRANCH  13  14
ENDBRANCH   3  13
BRANCH  11  20
HETATM   20  O2  UNK     1      12.916  11.189  33.970  1.00  0.00    -0.356 OA
HETATM   21  C18 UNK     1      12.242  11.476  32.745  1.00  0.00     0.210 C 
ENDBRANCH  11  20
TORSDOF 3
ENDMDL
MODEL 8
REMARK VINA RESULT:      -7.3     13.925     15.984
REMARK  3 active torsions:
REMARK  status: ('A' for Active; 'I' for Inactive)
REMARK    1  A    between atoms: C11_14  and  O2_2 
REMARK    2  A    between atoms: C1_4  and  C4_7 
REMARK    3  A    between atoms: C4_7  and  C6_9 
ROOT
HETATM    1  O1  UNK     1      29.843  -3.927  37.775  1.00  0.00    -0.274 OA
HETATM    2  O3  UNK     1      27.890  -4.168  38.905  1.00  0.00    -0.259 OA
HETATM    3  C1  UNK     1      29.276  -6.099  38.774  1.00  0.00     0.029 A 
HETATM    4  C2  UNK     1      30.412  -6.651  38.296  1.00  0.00    -0.036 A 
HETATM    5  C3  UNK     1      31.364  -5.812  37.539  1.00  0.00     0.005 A 
HETATM    6  C5  UNK     1      31.045  -4.479  37.302  1.00  0.00     0.092 A 
HETATM    7  C7  UNK     1      28.934  -4.673  38.506  1.00  0.00     0.295 A 
HETATM    8  C8  UNK     1      30.777  -8.105  38.476  1.00  0.00     0.050 C 
HETATM    9  C9  UNK     1      32.591  -6.274  37.040  1.00  0.00     0.017 A 
HETATM   10  C10 UNK     1      31.887  -3.617  36.595  1.00  0.00     0.075 A 
HETATM   11  C11 UNK     1      33.096  -4.097  36.106  1.00  0.00     0.070 A 
HETATM   12  C12 UNK     1      33.449  -5.425  36.330  1.00  0.00     0.038 A 
ENDROOT
BRANCH   3  13
HETATM   13  C4  UNK     1      28.254  -6.823  39.614  1.00  0.00     0.084 C 
BRANCH  13  14
HETATM   14  C6  UNK     1      27.649  -7.989  38.888  1.00  0.00    -0.054 A 
HETATM   15  C13 UNK     1      27.171  -7.821  37.594  1.00  0.00     0.007 A 
HETATM   16  C15 UNK     1      26.609  -8.905  36.919  1.00  0.00     0.001 A 
HETATM   17  C17 UNK     1      26.531 -10.150  37.543  1.00  0.00     0.000 A 
HETATM   18  C16 UNK     1      27.013 -10.311  38.842  1.00  0.00     0.001 A 
HETATM   19  C14 UNK     1      27.574  -9.227  39.517  1.00  0.00     0.007 A 
ENDBRANCH  13  14
ENDBRANCH   3  13
BRANCH  11  20
HETATM   20  O2  UNK     1      33.930  -3.275  35.415  1.00  0.00    -0.356 OA
HETATM   21  C18 UNK     1      34.605  -3.831  34.286  1.00  0.00     0.210 C 
ENDBRANCH  11  20
TORSDOF 3
ENDMDL
MODEL 9
REMARK VINA RESULT:      -7.3     13.647     15.507
REMARK  3 active torsions:
REMARK  status: ('A' for Active; 'I' for Inactive)
REMARK    1  A    between atoms: C11_14  and  O2_2 
REMARK    2  A    between atoms: C1_4  and  C4_7 
REMARK    3  A    between atoms: C4_7  and  C6_9 
ROOT
HETATM    1  O1  UNK     1      28.298  -5.243  39.016  1.00  0.00    -0.274 OA
HETATM    2  O3  UNK     1      29.907  -3.707  39.472  1.00  0.00    -0.259 OA
HETATM    3  C1  UNK     1      30.660  -5.804  38.630  1.00  0.00     0.029 A 
HETATM    4  C2  UNK     1      30.331  -7.049  38.226  1.00  0.00    -0.036 A 
HETATM    5  C3  UNK     1      28.906  -7.440  38.164  1.00  0.00     0.005 A 
HETATM    6  C5  UNK     1      27.939  -6.522  38.564  1.00  0.00     0.092 A 
HETATM    7  C7  UNK     1      29.619  -4.831  39.069  1.00  0.00     0.295 A 
HETATM    8  C8  UNK     1      31.343  -8.099  37.837  1.00  0.00     0.050 C 
HETATM    9  C9  UNK     1      28.455  -8.690  37.715  1.00  0.00     0.017 A 
HETATM   10  C10 UNK     1      26.572  -6.810  38.538  1.00  0.00     0.075 A 
HETATM   11  C11 UNK     1      26.148  -8.057  38.094  1.00  0.00     0.070 A 
HETATM   12  C12 UNK     1      27.089  -8.996  37.681  1.00  0.00     0.038 A 
ENDROOT
BRANCH   3  13
HETATM   13  C4  UNK     1      32.064  -5.257  38.678  1.00  0.00     0.084 C 
BRANCH  13  14
HETATM   14  C6  UNK     1      32.645  -5.073  37.306  1.00  0.00    -0.054 A 
HETATM   15  C13 UNK     1      31.935  -4.358  36.349  1.00  0.00     0.007 A 
HETATM   16  C15 UNK     1      32.475  -4.186  35.074  1.00  0.00     0.001 A 
HETATM   17  C17 UNK     1      33.723  -4.729  34.766  1.00  0.00     0.000 A 
HETATM   18  C16 UNK     1      34.430  -5.445  35.733  1.00  0.00     0.001 A 
HETATM   19  C14 UNK     1      33.889  -5.617  37.007  1.00  0.00     0.007 A 
ENDBRANCH  13  14
ENDBRANCH   3  13
BRANCH  11  20
HETATM   20  O2  UNK     1      24.821  -8.357  38.060  1.00  0.00    -0.356 OA
HETATM   21  C18 UNK     1      23.978  -7.680  38.992  1.00  0.00     0.210 C 
ENDBRANCH  11  20
TORSDOF 3
ENDMDL
MODEL 10
REMARK VINA RESULT:      -7.3      2.732      3.955
REMARK  3 active torsions:
REMARK  status: ('A' for Active; 'I' for Inactive)
REMARK    1  A    between atoms: C11_14  and  O2_2 
REMARK    2  A    between atoms: C1_4  and  C4_7 
REMARK    3  A    between atoms: C4_7  and  C6_9 
ROOT
HETATM    1  O1  UNK     1      18.840   4.378  29.609  1.00  0.00    -0.274 OA
HETATM    2  O3  UNK     1      18.593   6.625  29.815  1.00  0.00    -0.259 OA
HETATM    3  C1  UNK     1      18.406   5.356  31.822  1.00  0.00     0.029 A 
HETATM    4  C2  UNK     1      18.398   4.134  32.395  1.00  0.00    -0.036 A 
HETATM    5  C3  UNK     1      18.661   2.940  31.564  1.00  0.00     0.005 A 
HETATM    6  C5  UNK     1      18.870   3.104  30.198  1.00  0.00     0.092 A 
HETATM    7  C7  UNK     1      18.618   5.523  30.355  1.00  0.00     0.295 A 
HETATM    8  C8  UNK     1      18.120   3.898  33.860  1.00  0.00     0.050 C 
HETATM    9  C9  UNK     1      18.722   1.632  32.068  1.00  0.00     0.017 A 
HETATM   10  C10 UNK     1      19.123   2.030  29.341  1.00  0.00     0.075 A 
HETATM   11  C11 UNK     1      19.175   0.742  29.861  1.00  0.00     0.070 A 
HETATM   12  C12 UNK     1      18.976   0.543  31.225  1.00  0.00     0.038 A 
ENDROOT
BRANCH   3  13
HETATM   13  C4  UNK     1      18.218   6.656  32.562  1.00  0.00     0.084 C 
BRANCH  13  14
HETATM   14  C6  UNK     1      16.772   6.941  32.846  1.00  0.00    -0.054 A 
HETATM   15  C13 UNK     1      16.368   7.222  34.146  1.00  0.00     0.007 A 
HETATM   16  C15 UNK     1      15.023   7.487  34.409  1.00  0.00     0.001 A 
HETATM   17  C17 UNK     1      14.093   7.471  33.370  1.00  0.00     0.000 A 
HETATM   18  C16 UNK     1      14.506   7.188  32.068  1.00  0.00     0.001 A 
HETATM   19  C14 UNK     1      15.850   6.922  31.805  1.00  0.00     0.007 A 
ENDBRANCH  13  14
ENDBRANCH   3  13
BRANCH  11  20
HETATM   20  O2  UNK     1      19.420  -0.317  29.044  1.00  0.00    -0.356 OA
HETATM   21  C18 UNK     1      20.675  -0.981  29.198  1.00  0.00     0.210 C 
ENDBRANCH  11  20
TORSDOF 3
ENDMDL
