MODEL 1
REMARK VINA RESULT:      -8.5      0.000      0.000
REMARK  4 active torsions:
REMARK  status: ('A' for Active; 'I' for Inactive)
REMARK       I    between atoms: C13_18  and  N1_5 
REMARK    1  A    between atoms: C5_10  and  N1_5 
REMARK    2  A    between atoms: C1_6  and  C3_8 
REMARK    3  A    between atoms: C2_7  and  C4_9 
REMARK    4  A    between atoms: C13_18  and  C14_19 
ROOT
HETATM    1  O2  UNK     1      16.554   0.827  33.886  1.00  0.00    -0.267 OA
HETATM    2  N1  UNK     1      18.749   0.839  34.752  1.00  0.00    -0.322 N 
HETATM    3  C13 UNK     1      17.685   1.297  33.986  1.00  0.00     0.262 C 
HETATM    4  H17 UNK     1      19.666   1.260  34.627  1.00  0.00     0.169 HD
ENDROOT
BRANCH   2   5
HETATM    5  C5  UNK     1      18.741  -0.284  35.585  1.00  0.00     0.048 A 
HETATM    6  C1  UNK     1      19.319  -1.478  35.153  1.00  0.00    -0.027 A 
HETATM    7  C6  UNK     1      19.310  -2.599  35.984  1.00  0.00     0.010 A 
HETATM    8  C12 UNK     1      18.725  -2.525  37.247  1.00  0.00     0.001 A 
HETATM    9  C7  UNK     1      18.147  -1.331  37.680  1.00  0.00     0.010 A 
HETATM   10  C2  UNK     1      18.155  -0.211  36.849  1.00  0.00    -0.027 A 
BRANCH   6  11
HETATM   11  C3  UNK     1      19.954  -1.588  33.805  1.00  0.00     0.013 C 
HETATM   12  C8  UNK     1      18.920  -1.552  32.665  1.00  0.00     0.015 C 
HETATM   13  C9  UNK     1      20.837  -2.842  33.674  1.00  0.00     0.015 C 
ENDBRANCH   6  11
BRANCH  10  14
HETATM   14  C4  UNK     1      17.528   1.054  37.340  1.00  0.00     0.013 C 
HETATM   15  C10 UNK     1      17.856   1.333  38.818  1.00  0.00     0.015 C 
HETATM   16  C11 UNK     1      16.004   1.072  37.127  1.00  0.00     0.015 C 
ENDBRANCH  10  14
ENDBRANCH   2   5
BRANCH   3  17
HETATM   17  C14 UNK     1      18.037   2.504  33.227  1.00  0.00     0.108 A 
HETATM   18  C15 UNK     1      18.080   3.647  33.921  1.00  0.00     0.037 A 
HETATM   19  C16 UNK     1      18.420   4.895  33.257  1.00  0.00     0.000 A 
HETATM   20  C17 UNK     1      18.697   4.879  31.893  1.00  0.00     0.089 A 
HETATM   21  C19 UNK     1      18.477   6.112  33.942  1.00  0.00     0.033 A 
HETATM   22  O1  UNK     1      18.650   3.672  31.168  1.00  0.00    -0.274 OA
HETATM   23  C20 UNK     1      19.028   6.040  31.197  1.00  0.00     0.039 A 
HETATM   24  C18 UNK     1      18.329   2.461  31.776  1.00  0.00     0.304 A 
HETATM   25  O3  UNK     1      18.290   1.416  31.137  1.00  0.00    -0.259 OA
HETATM   26  C22 UNK     1      19.083   7.249  31.888  1.00  0.00     0.022 A 
HETATM   27  C21 UNK     1      18.807   7.285  33.256  1.00  0.00     0.011 A 
HETATM   28 Br1  UNK     1      18.884   8.929  34.188  1.00  0.00    -0.051 Br
ENDBRANCH   3  17
TORSDOF 4
ENDMDL
MODEL 2
REMARK VINA RESULT:      -8.4      0.005      3.162
REMARK  4 active torsions:
REMARK  status: ('A' for Active; 'I' for Inactive)
REMARK       I    between atoms: C13_18  and  N1_5 
REMARK    1  A    between atoms: C5_10  and  N1_5 
REMARK    2  A    between atoms: C1_6  and  C3_8 
REMARK    3  A    between atoms: C2_7  and  C4_9 
REMARK    4  A    between atoms: C13_18  and  C14_19 
ROOT
HETATM    1  O2  UNK     1      16.557   0.825  33.885  1.00  0.00    -0.267 OA
HETATM    2  N1  UNK     1      18.751   0.836  34.751  1.00  0.00    -0.322 N 
HETATM    3  C13 UNK     1      17.688   1.295  33.985  1.00  0.00     0.262 C 
HETATM    4  H17 UNK     1      19.669   1.258  34.627  1.00  0.00     0.169 HD
ENDROOT
BRANCH   2   5
HETATM    5  C5  UNK     1      18.744  -0.287  35.583  1.00  0.00     0.048 A 
HETATM    6  C1  UNK     1      18.159  -0.215  36.848  1.00  0.00    -0.027 A 
HETATM    7  C6  UNK     1      18.151  -1.335  37.680  1.00  0.00     0.010 A 
HETATM    8  C12 UNK     1      18.729  -2.527  37.246  1.00  0.00     0.001 A 
HETATM    9  C7  UNK     1      19.315  -2.600  35.982  1.00  0.00     0.010 A 
HETATM   10  C2  UNK     1      19.321  -1.481  35.151  1.00  0.00    -0.027 A 
BRANCH   6  11
HETATM   11  C3  UNK     1      17.531   1.049  37.341  1.00  0.00     0.013 C 
HETATM   12  C8  UNK     1      17.856   1.327  38.820  1.00  0.00     0.015 C 
HETATM   13  C9  UNK     1      16.007   1.070  37.125  1.00  0.00     0.015 C 
ENDBRANCH   6  11
BRANCH  10  14
HETATM   14  C4  UNK     1      19.956  -1.590  33.802  1.00  0.00     0.013 C 
HETATM   15  C10 UNK     1      18.921  -1.552  32.664  1.00  0.00     0.015 C 
HETATM   16  C11 UNK     1      20.838  -2.845  33.670  1.00  0.00     0.015 C 
ENDBRANCH  10  14
ENDBRANCH   2   5
BRANCH   3  17
HETATM   17  C14 UNK     1      18.040   2.502  33.227  1.00  0.00     0.108 A 
HETATM   18  C15 UNK     1      18.081   3.645  33.922  1.00  0.00     0.037 A 
HETATM   19  C16 UNK     1      18.421   4.894  33.259  1.00  0.00     0.000 A 
HETATM   20  C17 UNK     1      18.700   4.879  31.896  1.00  0.00     0.089 A 
HETATM   21  C19 UNK     1      18.475   6.111  33.944  1.00  0.00     0.033 A 
HETATM   22  O1  UNK     1      18.655   3.672  31.170  1.00  0.00    -0.274 OA
HETATM   23  C20 UNK     1      19.031   6.040  31.201  1.00  0.00     0.039 A 
HETATM   24  C18 UNK     1      18.334   2.461  31.777  1.00  0.00     0.304 A 
HETATM   25  O3  UNK     1      18.297   1.415  31.137  1.00  0.00    -0.259 OA
HETATM   26  C22 UNK     1      19.083   7.249  31.892  1.00  0.00     0.022 A 
HETATM   27  C21 UNK     1      18.806   7.285  33.260  1.00  0.00     0.011 A 
HETATM   28 Br1  UNK     1      18.879   8.928  34.193  1.00  0.00    -0.051 Br
ENDBRANCH   3  17
TORSDOF 4
ENDMDL
MODEL 3
REMARK VINA RESULT:      -8.2     14.081     16.999
REMARK  4 active torsions:
REMARK  status: ('A' for Active; 'I' for Inactive)
REMARK       I    between atoms: C13_18  and  N1_5 
REMARK    1  A    between atoms: C5_10  and  N1_5 
REMARK    2  A    between atoms: C1_6  and  C3_8 
REMARK    3  A    between atoms: C2_7  and  C4_9 
REMARK    4  A    between atoms: C13_18  and  C14_19 
ROOT
HETATM    1  O2  UNK     1      32.135  -8.039  31.464  1.00  0.00    -0.267 OA
HETATM    2  N1  UNK     1      30.193  -9.229  32.082  1.00  0.00    -0.322 N 
HETATM    3  C13 UNK     1      31.364  -8.513  32.295  1.00  0.00     0.262 C 
HETATM    4  H17 UNK     1      29.732  -9.670  32.874  1.00  0.00     0.169 HD
ENDROOT
BRANCH   2   5
HETATM    5  C5  UNK     1      29.646  -9.562  30.840  1.00  0.00     0.048 A 
HETATM    6  C1  UNK     1      30.049 -10.728  30.189  1.00  0.00    -0.027 A 
HETATM    7  C6  UNK     1      29.504 -11.061  28.949  1.00  0.00     0.010 A 
HETATM    8  C12 UNK     1      28.554 -10.228  28.360  1.00  0.00     0.001 A 
HETATM    9  C7  UNK     1      28.150  -9.061  29.010  1.00  0.00     0.010 A 
HETATM   10  C2  UNK     1      28.695  -8.729  30.249  1.00  0.00    -0.027 A 
BRANCH   6  11
HETATM   11  C3  UNK     1      31.065 -11.642  30.795  1.00  0.00     0.013 C 
HETATM   12  C8  UNK     1      32.445 -11.511  30.124  1.00  0.00     0.015 C 
HETATM   13  C9  UNK     1      30.613 -13.113  30.781  1.00  0.00     0.015 C 
ENDBRANCH   6  11
BRANCH  10  14
HETATM   14  C4  UNK     1      28.242  -7.473  30.921  1.00  0.00     0.013 C 
HETATM   15  C10 UNK     1      26.748  -7.190  30.686  1.00  0.00     0.015 C 
HETATM   16  C11 UNK     1      29.080  -6.251  30.505  1.00  0.00     0.015 C 
ENDBRANCH  10  14
ENDBRANCH   2   5
BRANCH   3  17
HETATM   17  C14 UNK     1      31.647  -8.342  33.726  1.00  0.00     0.108 A 
HETATM   18  C15 UNK     1      31.005  -7.342  34.340  1.00  0.00     0.037 A 
HETATM   19  C16 UNK     1      31.220  -7.093  35.757  1.00  0.00     0.000 A 
HETATM   20  C17 UNK     1      32.103  -7.910  36.457  1.00  0.00     0.089 A 
HETATM   21  C19 UNK     1      30.570  -6.061  36.439  1.00  0.00     0.033 A 
HETATM   22  O1  UNK     1      32.776  -8.961  35.805  1.00  0.00    -0.274 OA
HETATM   23  C20 UNK     1      32.354  -7.724  37.815  1.00  0.00     0.039 A 
HETATM   24  C18 UNK     1      32.591  -9.224  34.450  1.00  0.00     0.304 A 
HETATM   25  O3  UNK     1      33.182 -10.140  33.890  1.00  0.00    -0.259 OA
HETATM   26  C22 UNK     1      31.702  -6.692  38.488  1.00  0.00     0.022 A 
HETATM   27  C21 UNK     1      30.813  -5.862  37.802  1.00  0.00     0.011 A 
HETATM   28 Br1  UNK     1      29.931  -4.465  38.720  1.00  0.00    -0.051 Br
ENDBRANCH   3  17
TORSDOF 4
ENDMDL
MODEL 4
REMARK VINA RESULT:      -8.2     14.093     17.187
REMARK  4 active torsions:
REMARK  status: ('A' for Active; 'I' for Inactive)
REMARK       I    between atoms: C13_18  and  N1_5 
REMARK    1  A    between atoms: C5_10  and  N1_5 
REMARK    2  A    between atoms: C1_6  and  C3_8 
REMARK    3  A    between atoms: C2_7  and  C4_9 
REMARK    4  A    between atoms: C13_18  and  C14_19 
ROOT
HETATM    1  O2  UNK     1      32.148  -8.066  31.458  1.00  0.00    -0.267 OA
HETATM    2  N1  UNK     1      30.197  -9.240  32.077  1.00  0.00    -0.322 N 
HETATM    3  C13 UNK     1      31.372  -8.532  32.289  1.00  0.00     0.262 C 
HETATM    4  H17 UNK     1      29.731  -9.675  32.870  1.00  0.00     0.169 HD
ENDROOT
BRANCH   2   5
HETATM    5  C5  UNK     1      29.649  -9.573  30.835  1.00  0.00     0.048 A 
HETATM    6  C1  UNK     1      28.700  -8.738  30.243  1.00  0.00    -0.027 A 
HETATM    7  C6  UNK     1      28.152  -9.071  29.004  1.00  0.00     0.010 A 
HETATM    8  C12 UNK     1      28.553 -10.238  28.357  1.00  0.00     0.001 A 
HETATM    9  C7  UNK     1      29.501 -11.074  28.948  1.00  0.00     0.010 A 
HETATM   10  C2  UNK     1      30.049 -10.741  30.186  1.00  0.00    -0.027 A 
BRANCH   6  11
HETATM   11  C3  UNK     1      28.251  -7.479  30.912  1.00  0.00     0.013 C 
HETATM   12  C8  UNK     1      26.758  -7.189  30.672  1.00  0.00     0.015 C 
HETATM   13  C9  UNK     1      29.097  -6.262  30.499  1.00  0.00     0.015 C 
ENDBRANCH   6  11
BRANCH  10  14
HETATM   14  C4  UNK     1      31.062 -11.657  30.794  1.00  0.00     0.013 C 
HETATM   15  C10 UNK     1      32.438 -11.539  30.114  1.00  0.00     0.015 C 
HETATM   16  C11 UNK     1      30.600 -13.125  30.795  1.00  0.00     0.015 C 
ENDBRANCH  10  14
ENDBRANCH   2   5
BRANCH   3  17
HETATM   17  C14 UNK     1      31.655  -8.358  33.720  1.00  0.00     0.108 A 
HETATM   18  C15 UNK     1      31.014  -7.355  34.331  1.00  0.00     0.037 A 
HETATM   19  C16 UNK     1      31.228  -7.103  35.748  1.00  0.00     0.000 A 
HETATM   20  C17 UNK     1      32.109  -7.920  36.451  1.00  0.00     0.089 A 
HETATM   21  C19 UNK     1      30.581  -6.067  36.427  1.00  0.00     0.033 A 
HETATM   22  O1  UNK     1      32.781  -8.974  35.801  1.00  0.00    -0.274 OA
HETATM   23  C20 UNK     1      32.359  -7.731  37.808  1.00  0.00     0.039 A 
HETATM   24  C18 UNK     1      32.596  -9.240  34.447  1.00  0.00     0.304 A 
HETATM   25  O3  UNK     1      33.185 -10.159  33.890  1.00  0.00    -0.259 OA
HETATM   26  C22 UNK     1      31.709  -6.697  38.478  1.00  0.00     0.022 A 
HETATM   27  C21 UNK     1      30.822  -5.866  37.789  1.00  0.00     0.011 A 
HETATM   28 Br1  UNK     1      29.942  -4.465  38.703  1.00  0.00    -0.051 Br
ENDBRANCH   3  17
TORSDOF 4
ENDMDL
MODEL 5
REMARK VINA RESULT:      -8.1     25.636     27.414
REMARK  4 active torsions:
REMARK  status: ('A' for Active; 'I' for Inactive)
REMARK       I    between atoms: C13_18  and  N1_5 
REMARK    1  A    between atoms: C5_10  and  N1_5 
REMARK    2  A    between atoms: C1_6  and  C3_8 
REMARK    3  A    between atoms: C2_7  and  C4_9 
REMARK    4  A    between atoms: C13_18  and  C14_19 
ROOT
HETATM    1  O2  UNK     1      13.655   7.780  10.724  1.00  0.00    -0.267 OA
HETATM    2  N1  UNK     1      12.731   8.864   8.843  1.00  0.00    -0.322 N 
HETATM    3  C13 UNK     1      13.730   8.515   9.742  1.00  0.00     0.262 C 
HETATM    4  H17 UNK     1      12.917   9.589   8.154  1.00  0.00     0.169 HD
ENDROOT
BRANCH   2   5
HETATM    5  C5  UNK     1      11.401   8.436   8.882  1.00  0.00     0.048 A 
HETATM    6  C1  UNK     1      10.439   9.202   9.540  1.00  0.00    -0.027 A 
HETATM    7  C6  UNK     1       9.112   8.775   9.581  1.00  0.00     0.010 A 
HETATM    8  C12 UNK     1       8.747   7.580   8.962  1.00  0.00     0.001 A 
HETATM    9  C7  UNK     1       9.708   6.812   8.303  1.00  0.00     0.010 A 
HETATM   10  C2  UNK     1      11.034   7.240   8.263  1.00  0.00    -0.027 A 
BRANCH   6  11
HETATM   11  C3  UNK     1      10.800  10.487  10.213  1.00  0.00     0.013 C 
HETATM   12  C8  UNK     1      11.139  10.295  11.702  1.00  0.00     0.015 C 
HETATM   13  C9  UNK     1       9.705  11.558  10.058  1.00  0.00     0.015 C 
ENDBRANCH   6  11
BRANCH  10  14
HETATM   14  C4  UNK     1      12.041   6.397   7.550  1.00  0.00     0.013 C 
HETATM   15  C10 UNK     1      11.673   6.170   6.073  1.00  0.00     0.015 C 
HETATM   16  C11 UNK     1      12.271   5.044   8.248  1.00  0.00     0.015 C 
ENDBRANCH  10  14
ENDBRANCH   2   5
BRANCH   3  17
HETATM   17  C14 UNK     1      15.013   9.145   9.405  1.00  0.00     0.108 A 
HETATM   18  C15 UNK     1      14.948  10.277   8.695  1.00  0.00     0.037 A 
HETATM   19  C16 UNK     1      16.165  10.975   8.313  1.00  0.00     0.000 A 
HETATM   20  C17 UNK     1      17.393  10.446   8.698  1.00  0.00     0.089 A 
HETATM   21  C19 UNK     1      16.144  12.160   7.572  1.00  0.00     0.033 A 
HETATM   22  O1  UNK     1      17.456   9.253   9.445  1.00  0.00    -0.274 OA
HETATM   23  C20 UNK     1      18.596  11.064   8.364  1.00  0.00     0.039 A 
HETATM   24  C18 UNK     1      16.308   8.563   9.826  1.00  0.00     0.304 A 
HETATM   25  O3  UNK     1      16.372   7.525  10.476  1.00  0.00    -0.259 OA
HETATM   26  C22 UNK     1      18.567  12.245   7.625  1.00  0.00     0.022 A 
HETATM   27  C21 UNK     1      17.343  12.792   7.230  1.00  0.00     0.011 A 
HETATM   28 Br1  UNK     1      17.309  14.395   6.229  1.00  0.00    -0.051 Br
ENDBRANCH   3  17
TORSDOF 4
ENDMDL
MODEL 6
REMARK VINA RESULT:      -8.1     25.639     27.244
REMARK  4 active torsions:
REMARK  status: ('A' for Active; 'I' for Inactive)
REMARK       I    between atoms: C13_18  and  N1_5 
REMARK    1  A    between atoms: C5_10  and  N1_5 
REMARK    2  A    between atoms: C1_6  and  C3_8 
REMARK    3  A    between atoms: C2_7  and  C4_9 
REMARK    4  A    between atoms: C13_18  and  C14_19 
ROOT
HETATM    1  O2  UNK     1      13.673   7.781  10.721  1.00  0.00    -0.267 OA
HETATM    2  N1  UNK     1      12.743   8.866   8.843  1.00  0.00    -0.322 N 
HETATM    3  C13 UNK     1      13.744   8.518   9.740  1.00  0.00     0.262 C 
HETATM    4  H17 UNK     1      12.925   9.594   8.156  1.00  0.00     0.169 HD
ENDROOT
BRANCH   2   5
HETATM    5  C5  UNK     1      11.415   8.432   8.882  1.00  0.00     0.048 A 
HETATM    6  C1  UNK     1      11.053   7.235   8.264  1.00  0.00    -0.027 A 
HETATM    7  C6  UNK     1       9.727   6.802   8.301  1.00  0.00     0.010 A 
HETATM    8  C12 UNK     1       8.763   7.567   8.957  1.00  0.00     0.001 A 
HETATM    9  C7  UNK     1       9.124   8.765   9.576  1.00  0.00     0.010 A 
HETATM   10  C2  UNK     1      10.449   9.196   9.538  1.00  0.00    -0.027 A 
BRANCH   6  11
HETATM   11  C3  UNK     1      12.063   6.393   7.553  1.00  0.00     0.013 C 
HETATM   12  C8  UNK     1      11.702   6.169   6.073  1.00  0.00     0.015 C 
HETATM   13  C9  UNK     1      12.291   5.039   8.248  1.00  0.00     0.015 C 
ENDBRANCH   6  11
BRANCH  10  14
HETATM   14  C4  UNK     1      10.806  10.484  10.209  1.00  0.00     0.013 C 
HETATM   15  C10 UNK     1      11.131  10.295  11.702  1.00  0.00     0.015 C 
HETATM   16  C11 UNK     1       9.712  11.554  10.041  1.00  0.00     0.015 C 
ENDBRANCH  10  14
ENDBRANCH   2   5
BRANCH   3  17
HETATM   17  C14 UNK     1      15.025   9.154   9.404  1.00  0.00     0.108 A 
HETATM   18  C15 UNK     1      14.954  10.286   8.694  1.00  0.00     0.037 A 
HETATM   19  C16 UNK     1      16.169  10.989   8.313  1.00  0.00     0.000 A 
HETATM   20  C17 UNK     1      17.399  10.465   8.698  1.00  0.00     0.089 A 
HETATM   21  C19 UNK     1      16.143  12.174   7.572  1.00  0.00     0.033 A 
HETATM   22  O1  UNK     1      17.467   9.273   9.446  1.00  0.00    -0.274 OA
HETATM   23  C20 UNK     1      18.600  11.088   8.365  1.00  0.00     0.039 A 
HETATM   24  C18 UNK     1      16.322   8.578   9.825  1.00  0.00     0.304 A 
HETATM   25  O3  UNK     1      16.390   7.540  10.475  1.00  0.00    -0.259 OA
HETATM   26  C22 UNK     1      18.565  12.270   7.626  1.00  0.00     0.022 A 
HETATM   27  C21 UNK     1      17.340  12.811   7.231  1.00  0.00     0.011 A 
HETATM   28 Br1  UNK     1      17.299  14.414   6.229  1.00  0.00    -0.051 Br
ENDBRANCH   3  17
TORSDOF 4
ENDMDL
MODEL 7
REMARK VINA RESULT:      -8.0     15.035     17.929
REMARK  4 active torsions:
REMARK  status: ('A' for Active; 'I' for Inactive)
REMARK       I    between atoms: C13_18  and  N1_5 
REMARK    1  A    between atoms: C5_10  and  N1_5 
REMARK    2  A    between atoms: C1_6  and  C3_8 
REMARK    3  A    between atoms: C2_7  and  C4_9 
REMARK    4  A    between atoms: C13_18  and  C14_19 
ROOT
HETATM    1  O2  UNK     1      32.086  -8.925  38.089  1.00  0.00    -0.267 OA
HETATM    2  N1  UNK     1      30.869  -7.551  36.606  1.00  0.00    -0.322 N 
HETATM    3  C13 UNK     1      31.700  -8.603  36.967  1.00  0.00     0.262 C 
HETATM    4  H17 UNK     1      30.746  -7.334  35.620  1.00  0.00     0.169 HD
ENDROOT
BRANCH   2   5
HETATM    5  C5  UNK     1      30.291  -6.621  37.475  1.00  0.00     0.048 A 
HETATM    6  C1  UNK     1      29.125  -6.945  38.170  1.00  0.00    -0.027 A 
HETATM    7  C6  UNK     1      28.548  -6.017  39.037  1.00  0.00     0.010 A 
HETATM    8  C12 UNK     1      29.137  -4.766  39.210  1.00  0.00     0.001 A 
HETATM    9  C7  UNK     1      30.303  -4.441  38.516  1.00  0.00     0.010 A 
HETATM   10  C2  UNK     1      30.880  -5.369  37.650  1.00  0.00    -0.027 A 
BRANCH   6  11
HETATM   11  C3  UNK     1      28.471  -8.279  38.006  1.00  0.00     0.013 C 
HETATM   12  C8  UNK     1      27.394  -8.271  36.905  1.00  0.00     0.015 C 
HETATM   13  C9  UNK     1      27.872  -8.804  39.323  1.00  0.00     0.015 C 
ENDBRANCH   6  11
BRANCH  10  14
HETATM   14  C4  UNK     1      32.129  -4.992  36.920  1.00  0.00     0.013 C 
HETATM   15  C10 UNK     1      33.399  -5.324  37.724  1.00  0.00     0.015 C 
HETATM   16  C11 UNK     1      32.141  -3.509  36.508  1.00  0.00     0.015 C 
ENDBRANCH  10  14
ENDBRANCH   2   5
BRANCH   3  17
HETATM   17  C14 UNK     1      32.129  -9.386  35.801  1.00  0.00     0.108 A 
HETATM   18  C15 UNK     1      31.596 -10.607  35.680  1.00  0.00     0.037 A 
HETATM   19  C16 UNK     1      31.959 -11.459  34.558  1.00  0.00     0.000 A 
HETATM   20  C17 UNK     1      32.868 -10.982  33.618  1.00  0.00     0.089 A 
HETATM   21  C19 UNK     1      31.427 -12.740  34.392  1.00  0.00     0.033 A 
HETATM   22  O1  UNK     1      33.426  -9.695  33.752  1.00  0.00    -0.274 OA
HETATM   23  C20 UNK     1      33.259 -11.747  32.522  1.00  0.00     0.039 A 
HETATM   24  C18 UNK     1      33.098  -8.858  34.814  1.00  0.00     0.304 A 
HETATM   25  O3  UNK     1      33.589  -7.739  34.922  1.00  0.00    -0.259 OA
HETATM   26  C22 UNK     1      32.724 -13.024  32.363  1.00  0.00     0.022 A 
HETATM   27  C21 UNK     1      31.810 -13.519  33.296  1.00  0.00     0.011 A 
HETATM   28 Br1  UNK     1      31.087 -15.252  33.076  1.00  0.00    -0.051 Br
ENDBRANCH   3  17
TORSDOF 4
ENDMDL
MODEL 8
REMARK VINA RESULT:      -8.0     13.496     16.031
REMARK  4 active torsions:
REMARK  status: ('A' for Active; 'I' for Inactive)
REMARK       I    between atoms: C13_18  and  N1_5 
REMARK    1  A    between atoms: C5_10  and  N1_5 
REMARK    2  A    between atoms: C1_6  and  C3_8 
REMARK    3  A    between atoms: C2_7  and  C4_9 
REMARK    4  A    between atoms: C13_18  and  C14_19 
ROOT
HETATM    1  O2  UNK     1      30.418  -4.993  32.274  1.00  0.00    -0.267 OA
HETATM    2  N1  UNK     1      30.668  -7.337  32.364  1.00  0.00    -0.322 N 
HETATM    3  C13 UNK     1      30.457  -6.064  32.875  1.00  0.00     0.262 C 
HETATM    4  H17 UNK     1      30.804  -8.113  33.009  1.00  0.00     0.169 HD
ENDROOT
BRANCH   2   5
HETATM    5  C5  UNK     1      30.884  -7.661  31.022  1.00  0.00     0.048 A 
HETATM    6  C1  UNK     1      32.182  -7.861  30.552  1.00  0.00    -0.027 A 
HETATM    7  C6  UNK     1      32.399  -8.183  29.212  1.00  0.00     0.010 A 
HETATM    8  C12 UNK     1      31.317  -8.306  28.342  1.00  0.00     0.001 A 
HETATM    9  C7  UNK     1      30.018  -8.106  28.811  1.00  0.00     0.010 A 
HETATM   10  C2  UNK     1      29.802  -7.784  30.150  1.00  0.00    -0.027 A 
BRANCH   6  11
HETATM   11  C3  UNK     1      33.363  -7.737  31.461  1.00  0.00     0.013 C 
HETATM   12  C8  UNK     1      34.615  -7.222  30.727  1.00  0.00     0.015 C 
HETATM   13  C9  UNK     1      33.684  -9.055  32.187  1.00  0.00     0.015 C 
ENDBRANCH   6  11
BRANCH  10  14
HETATM   14  C4  UNK     1      28.399  -7.576  30.622  1.00  0.00     0.013 C 
HETATM   15  C10 UNK     1      27.456  -8.705  30.170  1.00  0.00     0.015 C 
HETATM   16  C11 UNK     1      27.832  -6.212  30.190  1.00  0.00     0.015 C 
ENDBRANCH  10  14
ENDBRANCH   2   5
BRANCH   3  17
HETATM   17  C14 UNK     1      30.264  -6.084  34.331  1.00  0.00     0.108 A 
HETATM   18  C15 UNK     1      29.157  -6.692  34.772  1.00  0.00     0.037 A 
HETATM   19  C16 UNK     1      28.878  -6.764  36.198  1.00  0.00     0.000 A 
HETATM   20  C17 UNK     1      29.779  -6.190  37.090  1.00  0.00     0.089 A 
HETATM   21  C19 UNK     1      27.735  -7.388  36.703  1.00  0.00     0.033 A 
HETATM   22  O1  UNK     1      30.943  -5.550  36.619  1.00  0.00    -0.274 OA
HETATM   23  C20 UNK     1      29.571  -6.222  38.467  1.00  0.00     0.039 A 
HETATM   24  C18 UNK     1      31.237  -5.466  35.261  1.00  0.00     0.304 A 
HETATM   25  O3  UNK     1      32.252  -4.908  34.860  1.00  0.00    -0.259 OA
HETATM   26  C22 UNK     1      28.428  -6.847  38.963  1.00  0.00     0.022 A 
HETATM   27  C21 UNK     1      27.512  -7.429  38.083  1.00  0.00     0.011 A 
HETATM   28 Br1  UNK     1      25.965  -8.277  38.761  1.00  0.00    -0.051 Br
ENDBRANCH   3  17
TORSDOF 4
ENDMDL
MODEL 9
REMARK VINA RESULT:      -8.0     15.022     17.907
REMARK  4 active torsions:
REMARK  status: ('A' for Active; 'I' for Inactive)
REMARK       I    between atoms: C13_18  and  N1_5 
REMARK    1  A    between atoms: C5_10  and  N1_5 
REMARK    2  A    between atoms: C1_6  and  C3_8 
REMARK    3  A    between atoms: C2_7  and  C4_9 
REMARK    4  A    between atoms: C13_18  and  C14_19 
ROOT
HETATM    1  O2  UNK     1      32.131  -8.846  38.081  1.00  0.00    -0.267 OA
HETATM    2  N1  UNK     1      30.885  -7.512  36.587  1.00  0.00    -0.322 N 
HETATM    3  C13 UNK     1      31.732  -8.547  36.958  1.00  0.00     0.262 C 
HETATM    4  H17 UNK     1      30.751  -7.312  35.598  1.00  0.00     0.169 HD
ENDROOT
BRANCH   2   5
HETATM    5  C5  UNK     1      30.303  -6.575  37.446  1.00  0.00     0.048 A 
HETATM    6  C1  UNK     1      30.878  -5.313  37.596  1.00  0.00    -0.027 A 
HETATM    7  C6  UNK     1      30.298  -4.378  38.454  1.00  0.00     0.010 A 
HETATM    8  C12 UNK     1      29.142  -4.705  39.161  1.00  0.00     0.001 A 
HETATM    9  C7  UNK     1      28.566  -5.968  39.012  1.00  0.00     0.010 A 
HETATM   10  C2  UNK     1      29.146  -6.901  38.154  1.00  0.00    -0.027 A 
BRANCH   6  11
HETATM   11  C3  UNK     1      32.116  -4.932  36.851  1.00  0.00     0.013 C 
HETATM   12  C8  UNK     1      33.399  -5.306  37.616  1.00  0.00     0.015 C 
HETATM   13  C9  UNK     1      32.142  -3.438  36.482  1.00  0.00     0.015 C 
ENDBRANCH   6  11
BRANCH  10  14
HETATM   14  C4  UNK     1      28.506  -8.245  38.015  1.00  0.00     0.013 C 
HETATM   15  C10 UNK     1      27.459  -8.280  36.888  1.00  0.00     0.015 C 
HETATM   16  C11 UNK     1      27.877  -8.733  39.333  1.00  0.00     0.015 C 
ENDBRANCH  10  14
ENDBRANCH   2   5
BRANCH   3  17
HETATM   17  C14 UNK     1      32.162  -9.343  35.801  1.00  0.00     0.108 A 
HETATM   18  C15 UNK     1      31.620 -10.562  35.688  1.00  0.00     0.037 A 
HETATM   19  C16 UNK     1      31.983 -11.425  34.576  1.00  0.00     0.000 A 
HETATM   20  C17 UNK     1      32.900 -10.964  33.637  1.00  0.00     0.089 A 
HETATM   21  C19 UNK     1      31.443 -12.704  34.419  1.00  0.00     0.033 A 
HETATM   22  O1  UNK     1      33.467  -9.680  33.761  1.00  0.00    -0.274 OA
HETATM   23  C20 UNK     1      33.292 -11.741  32.549  1.00  0.00     0.039 A 
HETATM   24  C18 UNK     1      33.139  -8.830  34.814  1.00  0.00     0.304 A 
HETATM   25  O3  UNK     1      33.638  -7.715  34.915  1.00  0.00    -0.259 OA
HETATM   26  C22 UNK     1      32.748 -13.015  32.399  1.00  0.00     0.022 A 
HETATM   27  C21 UNK     1      31.826 -13.496  33.332  1.00  0.00     0.011 A 
HETATM   28 Br1  UNK     1      31.091 -15.226  33.122  1.00  0.00    -0.051 Br
ENDBRANCH   3  17
TORSDOF 4
ENDMDL
MODEL 10
REMARK VINA RESULT:      -7.9     13.505     16.145
REMARK  4 active torsions:
REMARK  status: ('A' for Active; 'I' for Inactive)
REMARK       I    between atoms: C13_18  and  N1_5 
REMARK    1  A    between atoms: C5_10  and  N1_5 
REMARK    2  A    between atoms: C1_6  and  C3_8 
REMARK    3  A    between atoms: C2_7  and  C4_9 
REMARK    4  A    between atoms: C13_18  and  C14_19 
ROOT
HETATM    1  O2  UNK     1      30.458  -4.972  32.203  1.00  0.00    -0.267 OA
HETATM    2  N1  UNK     1      30.711  -7.315  32.315  1.00  0.00    -0.322 N 
HETATM    3  C13 UNK     1      30.501  -6.037  32.814  1.00  0.00     0.262 C 
HETATM    4  H17 UNK     1      30.851  -8.084  32.966  1.00  0.00     0.169 HD
ENDROOT
BRANCH   2   5
HETATM    5  C5  UNK     1      30.923  -7.651  30.974  1.00  0.00     0.048 A 
HETATM    6  C1  UNK     1      29.837  -7.800  30.111  1.00  0.00    -0.027 A 
HETATM    7  C6  UNK     1      30.048  -8.137  28.774  1.00  0.00     0.010 A 
HETATM    8  C12 UNK     1      31.345  -8.324  28.300  1.00  0.00     0.001 A 
HETATM    9  C7  UNK     1      32.432  -8.175  29.162  1.00  0.00     0.010 A 
HETATM   10  C2  UNK     1      32.221  -7.838  30.498  1.00  0.00    -0.027 A 
BRANCH   6  11
HETATM   11  C3  UNK     1      28.435  -7.606  30.590  1.00  0.00     0.013 C 
HETATM   12  C8  UNK     1      27.490  -8.720  30.104  1.00  0.00     0.015 C 
HETATM   13  C9  UNK     1      27.867  -6.229  30.200  1.00  0.00     0.015 C 
ENDBRANCH   6  11
BRANCH  10  14
HETATM   14  C4  UNK     1      33.405  -7.686  31.398  1.00  0.00     0.013 C 
HETATM   15  C10 UNK     1      34.629  -7.113  30.661  1.00  0.00     0.015 C 
HETATM   16  C11 UNK     1      33.782  -9.004  32.097  1.00  0.00     0.015 C 
ENDBRANCH  10  14
ENDBRANCH   2   5
BRANCH   3  17
HETATM   17  C14 UNK     1      30.313  -6.043  34.271  1.00  0.00     0.108 A 
HETATM   18  C15 UNK     1      29.200  -6.635  34.721  1.00  0.00     0.037 A 
HETATM   19  C16 UNK     1      28.926  -6.692  36.148  1.00  0.00     0.000 A 
HETATM   20  C17 UNK     1      29.836  -6.121  37.032  1.00  0.00     0.089 A 
HETATM   21  C19 UNK     1      27.777  -7.300  36.662  1.00  0.00     0.033 A 
HETATM   22  O1  UNK     1      31.006  -5.499  36.552  1.00  0.00    -0.274 OA
HETATM   23  C20 UNK     1      29.632  -6.141  38.410  1.00  0.00     0.039 A 
HETATM   24  C18 UNK     1      31.296  -5.429  35.192  1.00  0.00     0.304 A 
HETATM   25  O3  UNK     1      32.316  -4.885  34.783  1.00  0.00    -0.259 OA
HETATM   26  C22 UNK     1      28.485  -6.749  38.915  1.00  0.00     0.022 A 
HETATM   27  C21 UNK     1      27.559  -7.327  38.043  1.00  0.00     0.011 A 
HETATM   28 Br1  UNK     1      26.005  -8.152  38.733  1.00  0.00    -0.051 Br
ENDBRANCH   3  17
TORSDOF 4
ENDMDL
