MODEL 1
REMARK VINA RESULT:      -8.7      0.000      0.000
REMARK  6 active torsions:
REMARK  status: ('A' for Active; 'I' for Inactive)
REMARK    1  A    between atoms: C7_12  and  N2_4 
REMARK       I    between atoms: C9_14  and  N2_4 
REMARK    2  A    between atoms: C1_6  and  C2_7 
REMARK    3  A    between atoms: C2_7  and  C5_10 
REMARK    4  A    between atoms: C6_11  and  C8_13 
REMARK    5  A    between atoms: C6_11  and  C9_14 
REMARK    6  A    between atoms: C10_15  and  C11_16 
ROOT
HETATM    1  C6  UNK     1      20.169  -4.408  36.640  1.00  0.00     0.043 C 
HETATM    2  C10 UNK     1      21.080  -4.519  37.629  1.00  0.00     0.029 C 
ENDROOT
BRANCH   1   3
HETATM    3  C8  UNK     1      19.315  -5.536  36.213  1.00  0.00    -0.021 A 
HETATM    4  C12 UNK     1      18.004  -5.593  36.652  1.00  0.00     0.012 A 
HETATM    5  C16 UNK     1      17.198  -6.659  36.249  1.00  0.00     0.001 A 
HETATM    6  C18 UNK     1      17.716  -7.648  35.414  1.00  0.00     0.000 A 
HETATM    7  C17 UNK     1      19.040  -7.573  34.982  1.00  0.00     0.001 A 
HETATM    8  C13 UNK     1      19.846  -6.509  35.385  1.00  0.00     0.012 A 
ENDBRANCH   1   3
BRANCH   1   9
HETATM    9  C9  UNK     1      20.093  -3.060  35.960  1.00  0.00     0.258 C 
HETATM   10  O1  UNK     1      20.178  -2.031  36.625  1.00  0.00    -0.267 OA
HETATM   11  N2  UNK     1      19.914  -3.139  34.568  1.00  0.00    -0.300 N 
HETATM   12  H10 UNK     1      19.854  -4.048  34.120  1.00  0.00     0.171 HD
BRANCH  11  13
HETATM   13  C7  UNK     1      19.802  -2.094  33.691  1.00  0.00     0.196 A 
HETATM   14  S1  UNK     1      20.749  -2.181  32.263  1.00  0.00    -0.033 SA
HETATM   15  C5  UNK     1      20.055  -0.685  31.857  1.00  0.00     0.101 A 
HETATM   16  N1  UNK     1      19.209  -0.180  32.701  1.00  0.00    -0.145 NA
HETATM   17  N3  UNK     1      19.056  -1.016  33.793  1.00  0.00    -0.123 NA
BRANCH  15  18
HETATM   18  C2  UNK     1      20.449  -0.024  30.558  1.00  0.00     0.073 C 
BRANCH  18  19
HETATM   19  C1  UNK     1      19.267   0.151  29.583  1.00  0.00    -0.017 C 
HETATM   20  C3  UNK     1      19.524  -0.529  28.235  1.00  0.00     0.010 C 
HETATM   21  C4  UNK     1      18.995   1.641  29.363  1.00  0.00     0.010 C 
ENDBRANCH  18  19
ENDBRANCH  15  18
ENDBRANCH  11  13
ENDBRANCH   1   9
BRANCH   2  22
HETATM   22  C11 UNK     1      21.374  -5.733  38.403  1.00  0.00    -0.035 A 
HETATM   23  C14 UNK     1      22.689  -6.148  38.547  1.00  0.00     0.011 A 
HETATM   24  C19 UNK     1      22.968  -7.300  39.282  1.00  0.00     0.001 A 
HETATM   25  C21 UNK     1      21.928  -8.025  39.864  1.00  0.00     0.000 A 
HETATM   26  C20 UNK     1      20.610  -7.597  39.711  1.00  0.00     0.001 A 
HETATM   27  C15 UNK     1      20.330  -6.445  38.977  1.00  0.00     0.011 A 
ENDBRANCH   2  22
TORSDOF 6
ENDMDL
MODEL 2
REMARK VINA RESULT:      -8.3      5.678     11.568
REMARK  6 active torsions:
REMARK  status: ('A' for Active; 'I' for Inactive)
REMARK    1  A    between atoms: C7_12  and  N2_4 
REMARK       I    between atoms: C9_14  and  N2_4 
REMARK    2  A    between atoms: C1_6  and  C2_7 
REMARK    3  A    between atoms: C2_7  and  C5_10 
REMARK    4  A    between atoms: C6_11  and  C8_13 
REMARK    5  A    between atoms: C6_11  and  C9_14 
REMARK    6  A    between atoms: C10_15  and  C11_16 
ROOT
HETATM    1  C6  UNK     1      18.467   5.005  33.522  1.00  0.00     0.043 C 
HETATM    2  C10 UNK     1      18.084   5.929  34.427  1.00  0.00     0.029 C 
ENDROOT
BRANCH   1   3
HETATM    3  C8  UNK     1      19.060   5.364  32.217  1.00  0.00    -0.021 A 
HETATM    4  C12 UNK     1      18.229   5.551  31.127  1.00  0.00     0.012 A 
HETATM    5  C16 UNK     1      18.789   5.889  29.894  1.00  0.00     0.001 A 
HETATM    6  C18 UNK     1      20.171   6.035  29.773  1.00  0.00     0.000 A 
HETATM    7  C17 UNK     1      20.992   5.843  30.883  1.00  0.00     0.001 A 
HETATM    8  C13 UNK     1      20.433   5.504  32.115  1.00  0.00     0.012 A 
ENDBRANCH   1   3
BRANCH   1   9
HETATM    9  C9  UNK     1      18.219   3.563  33.906  1.00  0.00     0.258 C 
HETATM   10  O1  UNK     1      17.716   2.789  33.097  1.00  0.00    -0.267 OA
HETATM   11  N2  UNK     1      18.606   3.256  35.223  1.00  0.00    -0.300 N 
HETATM   12  H10 UNK     1      19.013   3.979  35.809  1.00  0.00     0.171 HD
BRANCH  11  13
HETATM   13  C7  UNK     1      18.499   2.045  35.851  1.00  0.00     0.196 A 
HETATM   14  S1  UNK     1      18.700   0.649  34.874  1.00  0.00    -0.033 SA
HETATM   15  C5  UNK     1      18.439  -0.238  36.298  1.00  0.00     0.101 A 
HETATM   16  N1  UNK     1      18.226   0.441  37.383  1.00  0.00    -0.145 NA
HETATM   17  N3  UNK     1      18.261   1.799  37.121  1.00  0.00    -0.123 NA
BRANCH  15  18
HETATM   18  C2  UNK     1      18.466  -1.746  36.238  1.00  0.00     0.073 C 
BRANCH  18  19
HETATM   19  C1  UNK     1      19.894  -2.325  36.171  1.00  0.00    -0.017 C 
HETATM   20  C3  UNK     1      20.276  -2.760  34.753  1.00  0.00     0.010 C 
HETATM   21  C4  UNK     1      20.013  -3.518  37.123  1.00  0.00     0.010 C 
ENDBRANCH  18  19
ENDBRANCH  15  18
ENDBRANCH  11  13
ENDBRANCH   1   9
BRANCH   2  22
HETATM   22  C11 UNK     1      18.175   7.388  34.266  1.00  0.00    -0.035 A 
HETATM   23  C14 UNK     1      19.379   8.027  34.518  1.00  0.00     0.011 A 
HETATM   24  C19 UNK     1      19.465   9.411  34.366  1.00  0.00     0.001 A 
HETATM   25  C21 UNK     1      18.346  10.140  33.963  1.00  0.00     0.000 A 
HETATM   26  C20 UNK     1      17.141   9.484  33.714  1.00  0.00     0.001 A 
HETATM   27  C15 UNK     1      17.054   8.100  33.866  1.00  0.00     0.011 A 
ENDBRANCH   2  22
TORSDOF 6
ENDMDL
MODEL 3
REMARK VINA RESULT:      -8.2      8.143     11.440
REMARK  6 active torsions:
REMARK  status: ('A' for Active; 'I' for Inactive)
REMARK    1  A    between atoms: C7_12  and  N2_4 
REMARK       I    between atoms: C9_14  and  N2_4 
REMARK    2  A    between atoms: C1_6  and  C2_7 
REMARK    3  A    between atoms: C2_7  and  C5_10 
REMARK    4  A    between atoms: C6_11  and  C8_13 
REMARK    5  A    between atoms: C6_11  and  C9_14 
REMARK    6  A    between atoms: C10_15  and  C11_16 
ROOT
HETATM    1  C6  UNK     1      30.150  -6.042  37.894  1.00  0.00     0.043 C 
HETATM    2  C10 UNK     1      31.078  -5.063  37.876  1.00  0.00     0.029 C 
ENDROOT
BRANCH   1   3
HETATM    3  C8  UNK     1      30.374  -7.365  37.278  1.00  0.00    -0.021 A 
HETATM    4  C12 UNK     1      30.726  -8.434  38.084  1.00  0.00     0.012 A 
HETATM    5  C16 UNK     1      30.939  -9.684  37.502  1.00  0.00     0.001 A 
HETATM    6  C18 UNK     1      30.796  -9.845  36.124  1.00  0.00     0.000 A 
HETATM    7  C17 UNK     1      30.441  -8.756  35.327  1.00  0.00     0.001 A 
HETATM    8  C13 UNK     1      30.228  -7.507  35.909  1.00  0.00     0.012 A 
ENDBRANCH   1   3
BRANCH   1   9
HETATM    9  C9  UNK     1      28.836  -5.693  38.557  1.00  0.00     0.258 C 
HETATM   10  O1  UNK     1      28.803  -4.852  39.451  1.00  0.00    -0.267 OA
HETATM   11  N2  UNK     1      27.740  -6.418  38.055  1.00  0.00    -0.300 N 
HETATM   12  H10 UNK     1      27.884  -7.095  37.312  1.00  0.00     0.171 HD
BRANCH  11  13
HETATM   13  C7  UNK     1      26.436  -6.326  38.461  1.00  0.00     0.196 A 
HETATM   14  S1  UNK     1      25.578  -7.800  38.638  1.00  0.00    -0.033 SA
HETATM   15  C5  UNK     1      24.259  -6.837  39.102  1.00  0.00     0.101 A 
HETATM   16  N1  UNK     1      24.446  -5.553  39.122  1.00  0.00    -0.145 NA
HETATM   17  N3  UNK     1      25.740  -5.245  38.740  1.00  0.00    -0.123 NA
BRANCH  15  18
HETATM   18  C2  UNK     1      22.955  -7.506  39.464  1.00  0.00     0.073 C 
BRANCH  18  19
HETATM   19  C1  UNK     1      21.750  -6.951  38.677  1.00  0.00    -0.017 C 
HETATM   20  C3  UNK     1      20.423  -7.204  39.397  1.00  0.00     0.010 C 
HETATM   21  C4  UNK     1      21.707  -7.585  37.284  1.00  0.00     0.010 C 
ENDBRANCH  18  19
ENDBRANCH  15  18
ENDBRANCH  11  13
ENDBRANCH   1   9
BRANCH   2  22
HETATM   22  C11 UNK     1      32.407  -5.142  37.253  1.00  0.00    -0.035 A 
HETATM   23  C14 UNK     1      33.392  -5.920  37.844  1.00  0.00     0.011 A 
HETATM   24  C19 UNK     1      34.653  -5.994  37.252  1.00  0.00     0.001 A 
HETATM   25  C21 UNK     1      34.915  -5.291  36.077  1.00  0.00     0.000 A 
HETATM   26  C20 UNK     1      33.916  -4.512  35.494  1.00  0.00     0.001 A 
HETATM   27  C15 UNK     1      32.655  -4.437  36.084  1.00  0.00     0.011 A 
ENDBRANCH   2  22
TORSDOF 6
ENDMDL
MODEL 4
REMARK VINA RESULT:      -8.2      8.086     11.435
REMARK  6 active torsions:
REMARK  status: ('A' for Active; 'I' for Inactive)
REMARK    1  A    between atoms: C7_12  and  N2_4 
REMARK       I    between atoms: C9_14  and  N2_4 
REMARK    2  A    between atoms: C1_6  and  C2_7 
REMARK    3  A    between atoms: C2_7  and  C5_10 
REMARK    4  A    between atoms: C6_11  and  C8_13 
REMARK    5  A    between atoms: C6_11  and  C9_14 
REMARK    6  A    between atoms: C10_15  and  C11_16 
ROOT
HETATM    1  C6  UNK     1      30.077  -6.197  37.979  1.00  0.00     0.043 C 
HETATM    2  C10 UNK     1      30.945  -5.165  37.941  1.00  0.00     0.029 C 
ENDROOT
BRANCH   1   3
HETATM    3  C8  UNK     1      30.358  -7.500  37.343  1.00  0.00    -0.021 A 
HETATM    4  C12 UNK     1      30.147  -7.646  35.983  1.00  0.00     0.012 A 
HETATM    5  C16 UNK     1      30.411  -8.877  35.382  1.00  0.00     0.001 A 
HETATM    6  C18 UNK     1      30.884  -9.941  36.150  1.00  0.00     0.000 A 
HETATM    7  C17 UNK     1      31.091  -9.774  37.519  1.00  0.00     0.001 A 
HETATM    8  C13 UNK     1      30.826  -8.544  38.120  1.00  0.00     0.012 A 
ENDBRANCH   1   3
BRANCH   1   9
HETATM    9  C9  UNK     1      28.768  -5.931  38.688  1.00  0.00     0.258 C 
HETATM   10  O1  UNK     1      28.759  -5.325  39.756  1.00  0.00    -0.267 OA
HETATM   11  N2  UNK     1      27.646  -6.445  38.013  1.00  0.00    -0.300 N 
HETATM   12  H10 UNK     1      27.771  -6.934  37.132  1.00  0.00     0.171 HD
BRANCH  11  13
HETATM   13  C7  UNK     1      26.339  -6.368  38.411  1.00  0.00     0.196 A 
HETATM   14  S1  UNK     1      25.531  -7.854  38.695  1.00  0.00    -0.033 SA
HETATM   15  C5  UNK     1      24.179  -6.905  39.089  1.00  0.00     0.101 A 
HETATM   16  N1  UNK     1      24.322  -5.618  39.015  1.00  0.00    -0.145 NA
HETATM   17  N3  UNK     1      25.606  -5.295  38.612  1.00  0.00    -0.123 NA
BRANCH  15  18
HETATM   18  C2  UNK     1      22.897  -7.590  39.499  1.00  0.00     0.073 C 
BRANCH  18  19
HETATM   19  C1  UNK     1      21.654  -7.036  38.773  1.00  0.00    -0.017 C 
HETATM   20  C3  UNK     1      20.352  -7.424  39.478  1.00  0.00     0.010 C 
HETATM   21  C4  UNK     1      21.629  -7.546  37.330  1.00  0.00     0.010 C 
ENDBRANCH  18  19
ENDBRANCH  15  18
ENDBRANCH  11  13
ENDBRANCH   1   9
BRANCH   2  22
HETATM   22  C11 UNK     1      32.255  -5.160  37.274  1.00  0.00    -0.035 A 
HETATM   23  C14 UNK     1      32.404  -4.490  36.069  1.00  0.00     0.011 A 
HETATM   24  C19 UNK     1      33.647  -4.486  35.436  1.00  0.00     0.001 A 
HETATM   25  C21 UNK     1      34.727  -5.152  36.014  1.00  0.00     0.000 A 
HETATM   26  C20 UNK     1      34.563  -5.823  37.226  1.00  0.00     0.001 A 
HETATM   27  C15 UNK     1      33.321  -5.827  37.860  1.00  0.00     0.011 A 
ENDBRANCH   2  22
TORSDOF 6
ENDMDL
MODEL 5
REMARK VINA RESULT:      -8.2     17.137     21.708
REMARK  6 active torsions:
REMARK  status: ('A' for Active; 'I' for Inactive)
REMARK    1  A    between atoms: C7_12  and  N2_4 
REMARK       I    between atoms: C9_14  and  N2_4 
REMARK    2  A    between atoms: C1_6  and  C2_7 
REMARK    3  A    between atoms: C2_7  and  C5_10 
REMARK    4  A    between atoms: C6_11  and  C8_13 
REMARK    5  A    between atoms: C6_11  and  C9_14 
REMARK    6  A    between atoms: C10_15  and  C11_16 
ROOT
HETATM    1  C6  UNK     1      20.016  -2.840  13.151  1.00  0.00     0.043 C 
HETATM    2  C10 UNK     1      20.109  -2.929  11.808  1.00  0.00     0.029 C 
ENDROOT
BRANCH   1   3
HETATM    3  C8  UNK     1      19.619  -3.982  14.000  1.00  0.00    -0.021 A 
HETATM    4  C12 UNK     1      20.599  -4.715  14.647  1.00  0.00     0.012 A 
HETATM    5  C16 UNK     1      20.225  -5.794  15.448  1.00  0.00     0.001 A 
HETATM    6  C18 UNK     1      18.877  -6.123  15.589  1.00  0.00     0.000 A 
HETATM    7  C17 UNK     1      17.903  -5.374  14.929  1.00  0.00     0.001 A 
HETATM    8  C13 UNK     1      18.277  -4.295  14.128  1.00  0.00     0.012 A 
ENDBRANCH   1   3
BRANCH   1   9
HETATM    9  C9  UNK     1      20.309  -1.481  13.744  1.00  0.00     0.258 C 
HETATM   10  O1  UNK     1      21.279  -0.837  13.356  1.00  0.00    -0.267 OA
HETATM   11  N2  UNK     1      19.392  -1.088  14.737  1.00  0.00    -0.300 N 
HETATM   12  H10 UNK     1      18.624  -1.705  14.982  1.00  0.00     0.171 HD
BRANCH  11  13
HETATM   13  C7  UNK     1      19.404   0.077  15.453  1.00  0.00     0.196 A 
HETATM   14  S1  UNK     1      19.026  -0.040  17.122  1.00  0.00    -0.033 SA
HETATM   15  C5  UNK     1      19.259   1.641  17.170  1.00  0.00     0.101 A 
HETATM   16  N1  UNK     1      19.585   2.221  16.057  1.00  0.00    -0.145 NA
HETATM   17  N3  UNK     1      19.672   1.295  15.033  1.00  0.00    -0.123 NA
BRANCH  15  18
HETATM   18  C2  UNK     1      19.079   2.369  18.481  1.00  0.00     0.073 C 
BRANCH  18  19
HETATM   19  C1  UNK     1      19.239   1.452  19.711  1.00  0.00    -0.017 C 
HETATM   20  C3  UNK     1      17.905   1.194  20.416  1.00  0.00     0.010 C 
HETATM   21  C4  UNK     1      20.228   2.078  20.697  1.00  0.00     0.010 C 
ENDBRANCH  18  19
ENDBRANCH  15  18
ENDBRANCH  11  13
ENDBRANCH   1   9
BRANCH   2  22
HETATM   22  C11 UNK     1      19.828  -4.123  10.998  1.00  0.00    -0.035 A 
HETATM   23  C14 UNK     1      20.740  -5.167  10.984  1.00  0.00     0.011 A 
HETATM   24  C19 UNK     1      20.473  -6.300  10.215  1.00  0.00     0.001 A 
HETATM   25  C21 UNK     1      19.298  -6.375   9.468  1.00  0.00     0.000 A 
HETATM   26  C20 UNK     1      18.389  -5.317   9.490  1.00  0.00     0.001 A 
HETATM   27  C15 UNK     1      18.655  -4.185  10.259  1.00  0.00     0.011 A 
ENDBRANCH   2  22
TORSDOF 6
ENDMDL
MODEL 6
REMARK VINA RESULT:      -8.0      2.592      9.014
REMARK  6 active torsions:
REMARK  status: ('A' for Active; 'I' for Inactive)
REMARK    1  A    between atoms: C7_12  and  N2_4 
REMARK       I    between atoms: C9_14  and  N2_4 
REMARK    2  A    between atoms: C1_6  and  C2_7 
REMARK    3  A    between atoms: C2_7  and  C5_10 
REMARK    4  A    between atoms: C6_11  and  C8_13 
REMARK    5  A    between atoms: C6_11  and  C9_14 
REMARK    6  A    between atoms: C10_15  and  C11_16 
ROOT
HETATM    1  C6  UNK     1      19.330  -1.232  33.496  1.00  0.00     0.043 C 
HETATM    2  C10 UNK     1      19.682  -0.752  32.285  1.00  0.00     0.029 C 
ENDROOT
BRANCH   1   3
HETATM    3  C8  UNK     1      18.312  -0.582  34.346  1.00  0.00    -0.021 A 
HETATM    4  C12 UNK     1      16.978  -0.903  34.166  1.00  0.00     0.012 A 
HETATM    5  C16 UNK     1      16.016  -0.288  34.968  1.00  0.00     0.001 A 
HETATM    6  C18 UNK     1      16.404   0.636  35.938  1.00  0.00     0.000 A 
HETATM    7  C17 UNK     1      17.753   0.946  36.106  1.00  0.00     0.001 A 
HETATM    8  C13 UNK     1      18.714   0.333  35.303  1.00  0.00     0.012 A 
ENDBRANCH   1   3
BRANCH   1   9
HETATM    9  C9  UNK     1      20.071  -2.467  33.957  1.00  0.00     0.258 C 
HETATM   10  O1  UNK     1      20.967  -2.941  33.263  1.00  0.00    -0.267 OA
HETATM   11  N2  UNK     1      19.620  -2.969  35.191  1.00  0.00    -0.300 N 
HETATM   12  H10 UNK     1      18.866  -2.496  35.679  1.00  0.00     0.171 HD
BRANCH  11  13
HETATM   13  C7  UNK     1      20.089  -4.071  35.852  1.00  0.00     0.196 A 
HETATM   14  S1  UNK     1      20.655  -3.826  37.453  1.00  0.00    -0.033 SA
HETATM   15  C5  UNK     1      20.981  -5.493  37.464  1.00  0.00     0.101 A 
HETATM   16  N1  UNK     1      20.696  -6.155  36.385  1.00  0.00    -0.145 NA
HETATM   17  N3  UNK     1      20.165  -5.312  35.425  1.00  0.00    -0.123 NA
BRANCH  15  18
HETATM   18  C2  UNK     1      21.578  -6.114  38.704  1.00  0.00     0.073 C 
BRANCH  18  19
HETATM   19  C1  UNK     1      21.209  -7.602  38.874  1.00  0.00    -0.017 C 
HETATM   20  C3  UNK     1      19.808  -7.787  39.462  1.00  0.00     0.010 C 
HETATM   21  C4  UNK     1      22.239  -8.290  39.774  1.00  0.00     0.010 C 
ENDBRANCH  18  19
ENDBRANCH  15  18
ENDBRANCH  11  13
ENDBRANCH   1   9
BRANCH   2  22
HETATM   22  C11 UNK     1      19.143   0.456  31.643  1.00  0.00    -0.035 A 
HETATM   23  C14 UNK     1      18.727   1.519  32.431  1.00  0.00     0.011 A 
HETATM   24  C19 UNK     1      18.216   2.664  31.822  1.00  0.00     0.001 A 
HETATM   25  C21 UNK     1      18.127   2.735  30.432  1.00  0.00     0.000 A 
HETATM   26  C20 UNK     1      18.548   1.659  29.651  1.00  0.00     0.001 A 
HETATM   27  C15 UNK     1      19.059   0.512  30.260  1.00  0.00     0.011 A 
ENDBRANCH   2  22
TORSDOF 6
ENDMDL
MODEL 7
REMARK VINA RESULT:      -8.0      2.051      2.584
REMARK  6 active torsions:
REMARK  status: ('A' for Active; 'I' for Inactive)
REMARK    1  A    between atoms: C7_12  and  N2_4 
REMARK       I    between atoms: C9_14  and  N2_4 
REMARK    2  A    between atoms: C1_6  and  C2_7 
REMARK    3  A    between atoms: C2_7  and  C5_10 
REMARK    4  A    between atoms: C6_11  and  C8_13 
REMARK    5  A    between atoms: C6_11  and  C9_14 
REMARK    6  A    between atoms: C10_15  and  C11_16 
ROOT
HETATM    1  C6  UNK     1      20.373  -4.513  36.775  1.00  0.00     0.043 C 
HETATM    2  C10 UNK     1      21.244  -4.746  37.778  1.00  0.00     0.029 C 
ENDROOT
BRANCH   1   3
HETATM    3  C8  UNK     1      19.433  -5.539  36.280  1.00  0.00    -0.021 A 
HETATM    4  C12 UNK     1      18.148  -5.580  36.794  1.00  0.00     0.012 A 
HETATM    5  C16 UNK     1      17.259  -6.550  36.328  1.00  0.00     0.001 A 
HETATM    6  C18 UNK     1      17.670  -7.462  35.356  1.00  0.00     0.000 A 
HETATM    7  C17 UNK     1      18.968  -7.405  34.850  1.00  0.00     0.001 A 
HETATM    8  C13 UNK     1      19.856  -6.436  35.316  1.00  0.00     0.012 A 
ENDBRANCH   1   3
BRANCH   1   9
HETATM    9  C9  UNK     1      20.439  -3.137  36.151  1.00  0.00     0.258 C 
HETATM   10  O1  UNK     1      21.437  -2.439  36.305  1.00  0.00    -0.267 OA
HETATM   11  N2  UNK     1      19.281  -2.787  35.432  1.00  0.00    -0.300 N 
HETATM   12  H10 UNK     1      18.510  -3.445  35.371  1.00  0.00     0.171 HD
BRANCH  11  13
HETATM   13  C7  UNK     1      19.047  -1.613  34.770  1.00  0.00     0.196 A 
HETATM   14  S1  UNK     1      18.098  -0.442  35.590  1.00  0.00    -0.033 SA
HETATM   15  C5  UNK     1      18.313   0.523  34.210  1.00  0.00     0.101 A 
HETATM   16  N1  UNK     1      19.019   0.020  33.244  1.00  0.00    -0.145 NA
HETATM   17  N3  UNK     1      19.457  -1.250  33.574  1.00  0.00    -0.123 NA
BRANCH  15  18
HETATM   18  C2  UNK     1      17.685   1.896  34.170  1.00  0.00     0.073 C 
BRANCH  18  19
HETATM   19  C1  UNK     1      18.492   2.909  33.333  1.00  0.00    -0.017 C 
HETATM   20  C3  UNK     1      18.360   4.336  33.870  1.00  0.00     0.010 C 
HETATM   21  C4  UNK     1      18.026   2.862  31.876  1.00  0.00     0.010 C 
ENDBRANCH  18  19
ENDBRANCH  15  18
ENDBRANCH  11  13
ENDBRANCH   1   9
BRANCH   2  22
HETATM   22  C11 UNK     1      21.405  -6.012  38.507  1.00  0.00    -0.035 A 
HETATM   23  C14 UNK     1      20.290  -6.633  39.051  1.00  0.00     0.011 A 
HETATM   24  C19 UNK     1      20.444  -7.834  39.742  1.00  0.00     0.001 A 
HETATM   25  C21 UNK     1      21.711  -8.401  39.884  1.00  0.00     0.000 A 
HETATM   26  C20 UNK     1      22.823  -7.766  39.333  1.00  0.00     0.001 A 
HETATM   27  C15 UNK     1      22.671  -6.565  38.641  1.00  0.00     0.011 A 
ENDBRANCH   2  22
TORSDOF 6
ENDMDL
MODEL 8
REMARK VINA RESULT:      -7.9      6.810      9.910
REMARK  6 active torsions:
REMARK  status: ('A' for Active; 'I' for Inactive)
REMARK    1  A    between atoms: C7_12  and  N2_4 
REMARK       I    between atoms: C9_14  and  N2_4 
REMARK    2  A    between atoms: C1_6  and  C2_7 
REMARK    3  A    between atoms: C2_7  and  C5_10 
REMARK    4  A    between atoms: C6_11  and  C8_13 
REMARK    5  A    between atoms: C6_11  and  C9_14 
REMARK    6  A    between atoms: C10_15  and  C11_16 
ROOT
HETATM    1  C6  UNK     1      27.338  -7.691  38.326  1.00  0.00     0.043 C 
HETATM    2  C10 UNK     1      28.107  -6.962  39.160  1.00  0.00     0.029 C 
ENDROOT
BRANCH   1   3
HETATM    3  C8  UNK     1      27.731  -7.989  36.933  1.00  0.00    -0.021 A 
HETATM    4  C12 UNK     1      27.872  -6.947  36.034  1.00  0.00     0.012 A 
HETATM    5  C16 UNK     1      28.243  -7.228  34.718  1.00  0.00     0.001 A 
HETATM    6  C18 UNK     1      28.468  -8.547  34.325  1.00  0.00     0.000 A 
HETATM    7  C17 UNK     1      28.322  -9.585  35.245  1.00  0.00     0.001 A 
HETATM    8  C13 UNK     1      27.951  -9.303  36.560  1.00  0.00     0.012 A 
ENDBRANCH   1   3
BRANCH   1   9
HETATM    9  C9  UNK     1      26.016  -8.162  38.890  1.00  0.00     0.258 C 
HETATM   10  O1  UNK     1      25.969  -9.177  39.580  1.00  0.00    -0.267 OA
HETATM   11  N2  UNK     1      24.927  -7.346  38.533  1.00  0.00    -0.300 N 
HETATM   12  H10 UNK     1      25.082  -6.528  37.952  1.00  0.00     0.171 HD
BRANCH  11  13
HETATM   13  C7  UNK     1      23.616  -7.523  38.885  1.00  0.00     0.196 A 
HETATM   14  S1  UNK     1      22.686  -8.567  37.891  1.00  0.00    -0.033 SA
HETATM   15  C5  UNK     1      21.398  -8.222  38.943  1.00  0.00     0.101 A 
HETATM   16  N1  UNK     1      21.643  -7.415  39.928  1.00  0.00    -0.145 NA
HETATM   17  N3  UNK     1      22.962  -6.997  39.896  1.00  0.00    -0.123 NA
BRANCH  15  18
HETATM   18  C2  UNK     1      20.053  -8.859  38.687  1.00  0.00     0.073 C 
BRANCH  18  19
HETATM   19  C1  UNK     1      19.887  -9.365  37.240  1.00  0.00    -0.017 C 
HETATM   20  C3  UNK     1      18.774  -8.625  36.493  1.00  0.00     0.010 C 
HETATM   21  C4  UNK     1      19.589 -10.867  37.249  1.00  0.00     0.010 C 
ENDBRANCH  18  19
ENDBRANCH  15  18
ENDBRANCH  11  13
ENDBRANCH   1   9
BRANCH   2  22
HETATM   22  C11 UNK     1      29.405  -6.355  38.832  1.00  0.00    -0.035 A 
HETATM   23  C14 UNK     1      29.517  -4.974  38.774  1.00  0.00     0.011 A 
HETATM   24  C19 UNK     1      30.748  -4.398  38.462  1.00  0.00     0.001 A 
HETATM   25  C21 UNK     1      31.855  -5.210  38.211  1.00  0.00     0.000 A 
HETATM   26  C20 UNK     1      31.729  -6.597  38.272  1.00  0.00     0.001 A 
HETATM   27  C15 UNK     1      30.497  -7.174  38.584  1.00  0.00     0.011 A 
ENDBRANCH   2  22
TORSDOF 6
ENDMDL
MODEL 9
REMARK VINA RESULT:      -7.8      3.305      4.916
REMARK  6 active torsions:
REMARK  status: ('A' for Active; 'I' for Inactive)
REMARK    1  A    between atoms: C7_12  and  N2_4 
REMARK       I    between atoms: C9_14  and  N2_4 
REMARK    2  A    between atoms: C1_6  and  C2_7 
REMARK    3  A    between atoms: C2_7  and  C5_10 
REMARK    4  A    between atoms: C6_11  and  C8_13 
REMARK    5  A    between atoms: C6_11  and  C9_14 
REMARK    6  A    between atoms: C10_15  and  C11_16 
ROOT
HETATM    1  C6  UNK     1      20.039  -6.389  36.728  1.00  0.00     0.043 C 
HETATM    2  C10 UNK     1      19.834  -7.349  35.802  1.00  0.00     0.029 C 
ENDROOT
BRANCH   1   3
HETATM    3  C8  UNK     1      20.912  -6.587  37.903  1.00  0.00    -0.021 A 
HETATM    4  C12 UNK     1      20.426  -7.285  38.995  1.00  0.00     0.012 A 
HETATM    5  C16 UNK     1      21.250  -7.472  40.105  1.00  0.00     0.001 A 
HETATM    6  C18 UNK     1      22.546  -6.958  40.105  1.00  0.00     0.000 A 
HETATM    7  C17 UNK     1      23.019  -6.257  38.995  1.00  0.00     0.001 A 
HETATM    8  C13 UNK     1      22.195  -6.070  37.886  1.00  0.00     0.012 A 
ENDBRANCH   1   3
BRANCH   1   9
HETATM    9  C9  UNK     1      19.287  -5.094  36.513  1.00  0.00     0.258 C 
HETATM   10  O1  UNK     1      18.069  -5.059  36.660  1.00  0.00    -0.267 OA
HETATM   11  N2  UNK     1      20.112  -4.018  36.139  1.00  0.00    -0.300 N 
HETATM   12  H10 UNK     1      21.113  -4.162  36.044  1.00  0.00     0.171 HD
BRANCH  11  13
HETATM   13  C7  UNK     1      19.720  -2.735  35.871  1.00  0.00     0.196 A 
HETATM   14  S1  UNK     1      18.858  -1.917  37.108  1.00  0.00    -0.033 SA
HETATM   15  C5  UNK     1      18.806  -0.602  36.035  1.00  0.00     0.101 A 
HETATM   16  N1  UNK     1      19.373  -0.762  34.880  1.00  0.00    -0.145 NA
HETATM   17  N3  UNK     1      19.918  -2.029  34.778  1.00  0.00    -0.123 NA
BRANCH  15  18
HETATM   18  C2  UNK     1      18.114   0.669  36.467  1.00  0.00     0.073 C 
BRANCH  18  19
HETATM   19  C1  UNK     1      16.603   0.483  36.716  1.00  0.00    -0.017 C 
HETATM   20  C3  UNK     1      15.837   0.190  35.424  1.00  0.00     0.010 C 
HETATM   21  C4  UNK     1      16.031   1.739  37.379  1.00  0.00     0.010 C 
ENDBRANCH  18  19
ENDBRANCH  15  18
ENDBRANCH  11  13
ENDBRANCH   1   9
BRANCH   2  22
HETATM   22  C11 UNK     1      20.410  -8.701  35.816  1.00  0.00    -0.035 A 
HETATM   23  C14 UNK     1      19.915  -9.643  36.705  1.00  0.00     0.011 A 
HETATM   24  C19 UNK     1      20.462 -10.926  36.719  1.00  0.00     0.001 A 
HETATM   25  C21 UNK     1      21.497 -11.253  35.843  1.00  0.00     0.000 A 
HETATM   26  C20 UNK     1      21.985 -10.296  34.954  1.00  0.00     0.001 A 
HETATM   27  C15 UNK     1      21.439  -9.013  34.940  1.00  0.00     0.011 A 
ENDBRANCH   2  22
TORSDOF 6
ENDMDL
MODEL 10
REMARK VINA RESULT:      -7.8      3.204      3.593
REMARK  6 active torsions:
REMARK  status: ('A' for Active; 'I' for Inactive)
REMARK    1  A    between atoms: C7_12  and  N2_4 
REMARK       I    between atoms: C9_14  and  N2_4 
REMARK    2  A    between atoms: C1_6  and  C2_7 
REMARK    3  A    between atoms: C2_7  and  C5_10 
REMARK    4  A    between atoms: C6_11  and  C8_13 
REMARK    5  A    between atoms: C6_11  and  C9_14 
REMARK    6  A    between atoms: C10_15  and  C11_16 
ROOT
HETATM    1  C6  UNK     1      20.063  -4.653  37.302  1.00  0.00     0.043 C 
HETATM    2  C10 UNK     1      20.919  -4.974  38.294  1.00  0.00     0.029 C 
ENDROOT
BRANCH   1   3
HETATM    3  C8  UNK     1      19.296  -5.668  36.551  1.00  0.00    -0.021 A 
HETATM    4  C12 UNK     1      19.924  -6.378  35.542  1.00  0.00     0.012 A 
HETATM    5  C16 UNK     1      19.199  -7.336  34.832  1.00  0.00     0.001 A 
HETATM    6  C18 UNK     1      17.859  -7.568  35.142  1.00  0.00     0.000 A 
HETATM    7  C17 UNK     1      17.244  -6.843  36.162  1.00  0.00     0.001 A 
HETATM    8  C13 UNK     1      17.968  -5.885  36.872  1.00  0.00     0.012 A 
ENDBRANCH   1   3
BRANCH   1   9
HETATM    9  C9  UNK     1      19.957  -3.181  36.972  1.00  0.00     0.258 C 
HETATM   10  O1  UNK     1      20.804  -2.648  36.261  1.00  0.00    -0.267 OA
HETATM   11  N2  UNK     1      18.844  -2.550  37.557  1.00  0.00    -0.300 N 
HETATM   12  H10 UNK     1      18.206  -3.091  38.133  1.00  0.00     0.171 HD
BRANCH  11  13
HETATM   13  C7  UNK     1      18.492  -1.232  37.447  1.00  0.00     0.196 A 
HETATM   14  S1  UNK     1      18.263  -0.626  35.858  1.00  0.00    -0.033 SA
HETATM   15  C5  UNK     1      17.903   0.855  36.606  1.00  0.00     0.101 A 
HETATM   16  N1  UNK     1      17.950   0.887  37.902  1.00  0.00    -0.145 NA
HETATM   17  N3  UNK     1      18.300  -0.353  38.405  1.00  0.00    -0.123 NA
BRANCH  15  18
HETATM   18  C2  UNK     1      17.552   2.045  35.744  1.00  0.00     0.073 C 
BRANCH  18  19
HETATM   19  C1  UNK     1      18.763   2.620  34.981  1.00  0.00    -0.017 C 
HETATM   20  C3  UNK     1      19.889   3.050  35.925  1.00  0.00     0.010 C 
HETATM   21  C4  UNK     1      18.319   3.815  34.134  1.00  0.00     0.010 C 
ENDBRANCH  18  19
ENDBRANCH  15  18
ENDBRANCH  11  13
ENDBRANCH   1   9
BRANCH   2  22
HETATM   22  C11 UNK     1      21.230  -6.332  38.763  1.00  0.00    -0.035 A 
HETATM   23  C14 UNK     1      22.540  -6.786  38.715  1.00  0.00     0.011 A 
HETATM   24  C19 UNK     1      22.834  -8.075  39.160  1.00  0.00     0.001 A 
HETATM   25  C21 UNK     1      21.816  -8.895  39.648  1.00  0.00     0.000 A 
HETATM   26  C20 UNK     1      20.504  -8.426  39.689  1.00  0.00     0.001 A 
HETATM   27  C15 UNK     1      20.208  -7.137  39.245  1.00  0.00     0.011 A 
ENDBRANCH   2  22
TORSDOF 6
ENDMDL
