MODEL 1
REMARK VINA RESULT:      -8.1      0.000      0.000
REMARK  4 active torsions:
REMARK  status: ('A' for Active; 'I' for Inactive)
REMARK    1  A    between atoms: C15_20  and  N1_3 
REMARK       I    between atoms: C5_10  and  N1_3 
REMARK    2  A    between atoms: C1_6  and  C2_7 
REMARK    3  A    between atoms: C1_6  and  C5_10 
REMARK    4  A    between atoms: C3_8  and  C4_9 
ROOT
HETATM    1  C1  UNK     1      18.384   4.804  33.317  1.00  0.00     0.043 C 
HETATM    2  C3  UNK     1      17.892   5.688  34.222  1.00  0.00     0.029 C 
ENDROOT
BRANCH   1   3
HETATM    3  C2  UNK     1      19.053   5.241  32.074  1.00  0.00    -0.021 A 
HETATM    4  C6  UNK     1      18.305   5.395  30.921  1.00  0.00     0.012 A 
HETATM    5  C10 UNK     1      18.937   5.809  29.749  1.00  0.00     0.001 A 
HETATM    6  C12 UNK     1      20.309   6.062  29.749  1.00  0.00     0.000 A 
HETATM    7  C11 UNK     1      21.048   5.900  30.921  1.00  0.00     0.001 A 
HETATM    8  C7  UNK     1      20.415   5.487  32.093  1.00  0.00     0.012 A 
ENDBRANCH   1   3
BRANCH   1   9
HETATM    9  C5  UNK     1      18.180   3.338  33.629  1.00  0.00     0.258 C 
HETATM   10  O1  UNK     1      17.632   2.605  32.811  1.00  0.00    -0.267 OA
HETATM   11  N1  UNK     1      18.660   2.987  34.884  1.00  0.00    -0.300 N 
HETATM   12  H8  UNK     1      19.097   3.676  35.486  1.00  0.00     0.171 HD
BRANCH  11  13
HETATM   13  C15 UNK     1      18.607   1.712  35.456  1.00  0.00     0.196 A 
HETATM   14  S1  UNK     1      17.790   1.603  36.946  1.00  0.00    -0.034 SA
HETATM   15  C17 UNK     1      18.172  -0.069  36.895  1.00  0.00     0.097 A 
HETATM   16  N3  UNK     1      18.850  -0.448  35.833  1.00  0.00    -0.145 NA
HETATM   17  C18 UNK     1      17.741  -0.958  37.993  1.00  0.00     0.081 C 
HETATM   18  N2  UNK     1      19.106   0.613  34.982  1.00  0.00    -0.123 NA
ENDBRANCH  11  13
ENDBRANCH   1   9
BRANCH   2  19
HETATM   19  C4  UNK     1      17.923   7.139  34.123  1.00  0.00    -0.035 A 
HETATM   20  C8  UNK     1      16.790   7.833  33.695  1.00  0.00     0.011 A 
HETATM   21  C13 UNK     1      16.820   9.225  33.601  1.00  0.00     0.001 A 
HETATM   22  C16 UNK     1      17.981   9.922  33.933  1.00  0.00     0.000 A 
HETATM   23  C14 UNK     1      19.113   9.228  34.361  1.00  0.00     0.001 A 
HETATM   24  C9  UNK     1      19.083   7.836  34.456  1.00  0.00     0.011 A 
ENDBRANCH   2  19
TORSDOF 4
ENDMDL
MODEL 2
REMARK VINA RESULT:      -7.9     17.469     20.369
REMARK  4 active torsions:
REMARK  status: ('A' for Active; 'I' for Inactive)
REMARK    1  A    between atoms: C15_20  and  N1_3 
REMARK       I    between atoms: C5_10  and  N1_3 
REMARK    2  A    between atoms: C1_6  and  C2_7 
REMARK    3  A    between atoms: C1_6  and  C5_10 
REMARK    4  A    between atoms: C3_8  and  C4_9 
ROOT
HETATM    1  C1  UNK     1      19.164  -2.090  15.169  1.00  0.00     0.043 C 
HETATM    2  C3  UNK     1      19.174  -1.441  13.976  1.00  0.00     0.029 C 
ENDROOT
BRANCH   1   3
HETATM    3  C2  UNK     1      19.625  -3.487  15.308  1.00  0.00    -0.021 A 
HETATM    4  C6  UNK     1      18.694  -4.510  15.284  1.00  0.00     0.012 A 
HETATM    5  C10 UNK     1      19.129  -5.829  15.415  1.00  0.00     0.001 A 
HETATM    6  C12 UNK     1      20.489  -6.102  15.568  1.00  0.00     0.000 A 
HETATM    7  C11 UNK     1      21.413  -5.058  15.590  1.00  0.00     0.001 A 
HETATM    8  C7  UNK     1      20.977  -3.740  15.459  1.00  0.00     0.012 A 
ENDBRANCH   1   3
BRANCH   1   9
HETATM    9  C5  UNK     1      18.622  -1.316  16.350  1.00  0.00     0.258 C 
HETATM   10  O1  UNK     1      17.577  -1.669  16.890  1.00  0.00    -0.267 OA
HETATM   11  N1  UNK     1      19.420  -0.231  16.691  1.00  0.00    -0.300 N 
HETATM   12  H8  UNK     1      20.269  -0.026  16.173  1.00  0.00     0.171 HD
BRANCH  11  13
HETATM   13  C15 UNK     1      19.176   0.674  17.728  1.00  0.00     0.196 A 
HETATM   14  S1  UNK     1      19.548   0.122  19.295  1.00  0.00    -0.034 SA
HETATM   15  C17 UNK     1      19.011   1.660  19.833  1.00  0.00     0.097 A 
HETATM   16  N3  UNK     1      18.603   2.468  18.878  1.00  0.00    -0.145 NA
HETATM   17  C18 UNK     1      19.032   1.986  21.273  1.00  0.00     0.081 C 
HETATM   18  N2  UNK     1      18.702   1.878  17.630  1.00  0.00    -0.123 NA
ENDBRANCH  11  13
ENDBRANCH   1   9
BRANCH   2  19
HETATM   19  C4  UNK     1      19.601  -1.985  12.696  1.00  0.00    -0.035 A 
HETATM   20  C8  UNK     1      20.704  -1.438  12.039  1.00  0.00     0.011 A 
HETATM   21  C13 UNK     1      21.114  -1.961  10.812  1.00  0.00     0.001 A 
HETATM   22  C16 UNK     1      20.421  -3.028  10.242  1.00  0.00     0.000 A 
HETATM   23  C14 UNK     1      19.319  -3.575  10.899  1.00  0.00     0.001 A 
HETATM   24  C9  UNK     1      18.909  -3.053  12.127  1.00  0.00     0.011 A 
ENDBRANCH   2  19
TORSDOF 4
ENDMDL
MODEL 3
REMARK VINA RESULT:      -7.9      6.830     11.939
REMARK  4 active torsions:
REMARK  status: ('A' for Active; 'I' for Inactive)
REMARK    1  A    between atoms: C15_20  and  N1_3 
REMARK       I    between atoms: C5_10  and  N1_3 
REMARK    2  A    between atoms: C1_6  and  C2_7 
REMARK    3  A    between atoms: C1_6  and  C5_10 
REMARK    4  A    between atoms: C3_8  and  C4_9 
ROOT
HETATM    1  C1  UNK     1      20.174  -4.342  36.561  1.00  0.00     0.043 C 
HETATM    2  C3  UNK     1      21.099  -4.434  37.552  1.00  0.00     0.029 C 
ENDROOT
BRANCH   1   3
HETATM    3  C2  UNK     1      19.322  -5.485  36.172  1.00  0.00    -0.021 A 
HETATM    4  C6  UNK     1      18.020  -5.546  36.637  1.00  0.00     0.012 A 
HETATM    5  C10 UNK     1      17.216  -6.625  36.269  1.00  0.00     0.001 A 
HETATM    6  C12 UNK     1      17.728  -7.625  35.442  1.00  0.00     0.000 A 
HETATM    7  C11 UNK     1      19.043  -7.548  34.984  1.00  0.00     0.001 A 
HETATM    8  C7  UNK     1      19.846  -6.469  35.352  1.00  0.00     0.012 A 
ENDBRANCH   1   3
BRANCH   1   9
HETATM    9  C5  UNK     1      20.084  -3.012  35.848  1.00  0.00     0.258 C 
HETATM   10  O1  UNK     1      20.129  -1.965  36.489  1.00  0.00    -0.267 OA
HETATM   11  N1  UNK     1      19.943  -3.150  34.473  1.00  0.00    -0.300 N 
HETATM   12  H8  UNK     1      19.915  -4.068  34.042  1.00  0.00     0.171 HD
BRANCH  11  13
HETATM   13  C15 UNK     1      19.825  -2.106  33.550  1.00  0.00     0.196 A 
HETATM   14  S1  UNK     1      20.763  -2.257  32.138  1.00  0.00    -0.034 SA
HETATM   15  C17 UNK     1      20.080  -0.755  31.668  1.00  0.00     0.097 A 
HETATM   16  N3  UNK     1      19.234  -0.239  32.534  1.00  0.00    -0.145 NA
HETATM   17  C18 UNK     1      20.458  -0.144  30.378  1.00  0.00     0.081 C 
HETATM   18  N2  UNK     1      19.087  -1.044  33.650  1.00  0.00    -0.123 NA
ENDBRANCH  11  13
ENDBRANCH   1   9
BRANCH   2  19
HETATM   19  C4  UNK     1      21.404  -5.614  38.346  1.00  0.00    -0.035 A 
HETATM   20  C8  UNK     1      22.732  -5.986  38.560  1.00  0.00     0.011 A 
HETATM   21  C13 UNK     1      23.024  -7.118  39.322  1.00  0.00     0.001 A 
HETATM   22  C16 UNK     1      21.990  -7.876  39.870  1.00  0.00     0.000 A 
HETATM   23  C14 UNK     1      20.663  -7.504  39.656  1.00  0.00     0.001 A 
HETATM   24  C9  UNK     1      20.370  -6.373  38.894  1.00  0.00     0.011 A 
ENDBRANCH   2  19
TORSDOF 4
ENDMDL
MODEL 4
REMARK VINA RESULT:      -7.8      5.560     11.905
REMARK  4 active torsions:
REMARK  status: ('A' for Active; 'I' for Inactive)
REMARK    1  A    between atoms: C15_20  and  N1_3 
REMARK       I    between atoms: C5_10  and  N1_3 
REMARK    2  A    between atoms: C1_6  and  C2_7 
REMARK    3  A    between atoms: C1_6  and  C5_10 
REMARK    4  A    between atoms: C3_8  and  C4_9 
ROOT
HETATM    1  C1  UNK     1      20.180  -4.505  36.911  1.00  0.00     0.043 C 
HETATM    2  C3  UNK     1      21.058  -4.765  37.914  1.00  0.00     0.029 C 
ENDROOT
BRANCH   1   3
HETATM    3  C2  UNK     1      19.306  -5.551  36.339  1.00  0.00    -0.021 A 
HETATM    4  C6  UNK     1      19.812  -6.397  35.369  1.00  0.00     0.012 A 
HETATM    5  C10 UNK     1      18.988  -7.384  34.830  1.00  0.00     0.001 A 
HETATM    6  C12 UNK     1      17.670  -7.509  35.271  1.00  0.00     0.000 A 
HETATM    7  C11 UNK     1      17.177  -6.647  36.249  1.00  0.00     0.001 A 
HETATM    8  C7  UNK     1      18.002  -5.660  36.788  1.00  0.00     0.012 A 
ENDBRANCH   1   3
BRANCH   1   9
HETATM    9  C5  UNK     1      20.164  -3.088  36.382  1.00  0.00     0.258 C 
HETATM   10  O1  UNK     1      21.192  -2.587  35.934  1.00  0.00    -0.267 OA
HETATM   11  N1  UNK     1      18.914  -2.492  36.484  1.00  0.00    -0.300 N 
HETATM   12  H8  UNK     1      18.126  -2.998  36.875  1.00  0.00     0.171 HD
BRANCH  11  13
HETATM   13  C15 UNK     1      18.590  -1.190  36.089  1.00  0.00     0.196 A 
HETATM   14  S1  UNK     1      18.635  -0.892  34.413  1.00  0.00    -0.034 SA
HETATM   15  C17 UNK     1      18.167   0.711  34.809  1.00  0.00     0.097 A 
HETATM   16  N3  UNK     1      18.008   0.937  36.095  1.00  0.00    -0.145 NA
HETATM   17  C18 UNK     1      17.976   1.708  33.737  1.00  0.00     0.081 C 
HETATM   18  N2  UNK     1      18.260  -0.194  36.851  1.00  0.00    -0.123 NA
ENDBRANCH  11  13
ENDBRANCH   1   9
BRANCH   2  19
HETATM   19  C4  UNK     1      21.290  -6.052  38.552  1.00  0.00    -0.035 A 
HETATM   20  C8  UNK     1      20.214  -6.784  39.055  1.00  0.00     0.011 A 
HETATM   21  C13 UNK     1      20.436  -8.018  39.666  1.00  0.00     0.001 A 
HETATM   22  C16 UNK     1      21.732  -8.520  39.775  1.00  0.00     0.000 A 
HETATM   23  C14 UNK     1      22.808  -7.788  39.271  1.00  0.00     0.001 A 
HETATM   24  C9  UNK     1      22.586  -6.554  38.660  1.00  0.00     0.011 A 
ENDBRANCH   2  19
TORSDOF 4
ENDMDL
MODEL 5
REMARK VINA RESULT:      -7.4     14.508     17.077
REMARK  4 active torsions:
REMARK  status: ('A' for Active; 'I' for Inactive)
REMARK    1  A    between atoms: C15_20  and  N1_3 
REMARK       I    between atoms: C5_10  and  N1_3 
REMARK    2  A    between atoms: C1_6  and  C2_7 
REMARK    3  A    between atoms: C1_6  and  C5_10 
REMARK    4  A    between atoms: C3_8  and  C4_9 
ROOT
HETATM    1  C1  UNK     1      30.278  -6.040  37.915  1.00  0.00     0.043 C 
HETATM    2  C3  UNK     1      31.181  -5.028  37.834  1.00  0.00     0.029 C 
ENDROOT
BRANCH   1   3
HETATM    3  C2  UNK     1      30.542  -7.378  37.346  1.00  0.00    -0.021 A 
HETATM    4  C6  UNK     1      30.916  -8.409  38.189  1.00  0.00     0.012 A 
HETATM    5  C10 UNK     1      31.165  -9.671  37.652  1.00  0.00     0.001 A 
HETATM    6  C12 UNK     1      31.037  -9.882  36.279  1.00  0.00     0.000 A 
HETATM    7  C11 UNK     1      30.660  -8.830  35.443  1.00  0.00     0.001 A 
HETATM    8  C7  UNK     1      30.411  -7.568  35.981  1.00  0.00     0.012 A 
ENDBRANCH   1   3
BRANCH   1   9
HETATM    9  C5  UNK     1      28.965  -5.716  38.592  1.00  0.00     0.258 C 
HETATM   10  O1  UNK     1      28.938  -4.941  39.544  1.00  0.00    -0.267 OA
HETATM   11  N1  UNK     1      27.889  -6.383  38.021  1.00  0.00    -0.300 N 
HETATM   12  H8  UNK     1      28.023  -7.008  37.232  1.00  0.00     0.171 HD
BRANCH  11  13
HETATM   13  C15 UNK     1      26.556  -6.296  38.433  1.00  0.00     0.196 A 
HETATM   14  S1  UNK     1      25.738  -7.778  38.613  1.00  0.00    -0.034 SA
HETATM   15  C17 UNK     1      24.381  -6.834  39.073  1.00  0.00     0.097 A 
HETATM   16  N3  UNK     1      24.587  -5.534  39.072  1.00  0.00    -0.145 NA
HETATM   17  C18 UNK     1      23.109  -7.495  39.430  1.00  0.00     0.081 C 
HETATM   18  N2  UNK     1      25.879  -5.220  38.690  1.00  0.00    -0.123 NA
ENDBRANCH  11  13
ENDBRANCH   1   9
BRANCH   2  19
HETATM   19  C4  UNK     1      32.486  -5.080  37.193  1.00  0.00    -0.035 A 
HETATM   20  C8  UNK     1      32.726  -4.335  36.039  1.00  0.00     0.011 A 
HETATM   21  C13 UNK     1      33.978  -4.384  35.424  1.00  0.00     0.001 A 
HETATM   22  C16 UNK     1      34.988  -5.179  35.964  1.00  0.00     0.000 A 
HETATM   23  C14 UNK     1      34.748  -5.925  37.118  1.00  0.00     0.001 A 
HETATM   24  C9  UNK     1      33.497  -5.875  37.733  1.00  0.00     0.011 A 
ENDBRANCH   2  19
TORSDOF 4
ENDMDL
MODEL 6
REMARK VINA RESULT:      -7.3      1.331      2.027
REMARK  4 active torsions:
REMARK  status: ('A' for Active; 'I' for Inactive)
REMARK    1  A    between atoms: C15_20  and  N1_3 
REMARK       I    between atoms: C5_10  and  N1_3 
REMARK    2  A    between atoms: C1_6  and  C2_7 
REMARK    3  A    between atoms: C1_6  and  C5_10 
REMARK    4  A    between atoms: C3_8  and  C4_9 
ROOT
HETATM    1  C1  UNK     1      18.304   4.820  33.624  1.00  0.00     0.043 C 
HETATM    2  C3  UNK     1      17.348   5.596  34.198  1.00  0.00     0.029 C 
ENDROOT
BRANCH   1   3
HETATM    3  C2  UNK     1      18.956   5.188  32.351  1.00  0.00    -0.021 A 
HETATM    4  C6  UNK     1      20.123   5.931  32.380  1.00  0.00     0.012 A 
HETATM    5  C10 UNK     1      20.738   6.279  31.178  1.00  0.00     0.001 A 
HETATM    6  C12 UNK     1      20.177   5.877  29.966  1.00  0.00     0.000 A 
HETATM    7  C11 UNK     1      19.000   5.129  29.955  1.00  0.00     0.001 A 
HETATM    8  C7  UNK     1      18.385   4.782  31.158  1.00  0.00     0.012 A 
ENDBRANCH   1   3
BRANCH   1   9
HETATM    9  C5  UNK     1      18.644   3.532  34.342  1.00  0.00     0.258 C 
HETATM   10  O1  UNK     1      19.442   3.540  35.275  1.00  0.00    -0.267 OA
HETATM   11  N1  UNK     1      17.976   2.434  33.816  1.00  0.00    -0.300 N 
HETATM   12  H8  UNK     1      17.335   2.539  33.036  1.00  0.00     0.171 HD
BRANCH  11  13
HETATM   13  C15 UNK     1      18.091   1.113  34.259  1.00  0.00     0.196 A 
HETATM   14  S1  UNK     1      17.364   0.770  35.760  1.00  0.00    -0.034 SA
HETATM   15  C17 UNK     1      17.923  -0.836  35.527  1.00  0.00     0.097 A 
HETATM   16  N3  UNK     1      18.587  -1.032  34.408  1.00  0.00    -0.145 NA
HETATM   17  C18 UNK     1      17.646  -1.868  36.545  1.00  0.00     0.081 C 
HETATM   18  N2  UNK     1      18.684   0.128  33.659  1.00  0.00    -0.123 NA
ENDBRANCH  11  13
ENDBRANCH   1   9
BRANCH   2  19
HETATM   19  C4  UNK     1      16.820   6.848  33.678  1.00  0.00    -0.035 A 
HETATM   20  C8  UNK     1      17.350   8.063  34.115  1.00  0.00     0.011 A 
HETATM   21  C13 UNK     1      16.843   9.263  33.616  1.00  0.00     0.001 A 
HETATM   22  C16 UNK     1      15.809   9.249  32.681  1.00  0.00     0.000 A 
HETATM   23  C14 UNK     1      15.279   8.034  32.245  1.00  0.00     0.001 A 
HETATM   24  C9  UNK     1      15.786   6.834  32.744  1.00  0.00     0.011 A 
ENDBRANCH   2  19
TORSDOF 4
ENDMDL
MODEL 7
REMARK VINA RESULT:      -7.2      3.444      4.655
REMARK  4 active torsions:
REMARK  status: ('A' for Active; 'I' for Inactive)
REMARK    1  A    between atoms: C15_20  and  N1_3 
REMARK       I    between atoms: C5_10  and  N1_3 
REMARK    2  A    between atoms: C1_6  and  C2_7 
REMARK    3  A    between atoms: C1_6  and  C5_10 
REMARK    4  A    between atoms: C3_8  and  C4_9 
ROOT
HETATM    1  C1  UNK     1      17.968   6.003  33.197  1.00  0.00     0.043 C 
HETATM    2  C3  UNK     1      19.076   6.739  33.468  1.00  0.00     0.029 C 
ENDROOT
BRANCH   1   3
HETATM    3  C2  UNK     1      16.618   6.602  33.148  1.00  0.00    -0.021 A 
HETATM    4  C6  UNK     1      16.018   6.816  31.921  1.00  0.00     0.012 A 
HETATM    5  C10 UNK     1      14.744   7.382  31.875  1.00  0.00     0.001 A 
HETATM    6  C12 UNK     1      14.091   7.725  33.060  1.00  0.00     0.000 A 
HETATM    7  C11 UNK     1      14.712   7.502  34.289  1.00  0.00     0.001 A 
HETATM    8  C7  UNK     1      15.986   6.936  34.333  1.00  0.00     0.012 A 
ENDBRANCH   1   3
BRANCH   1   9
HETATM    9  C5  UNK     1      18.182   4.521  32.979  1.00  0.00     0.258 C 
HETATM   10  O1  UNK     1      18.296   3.768  33.942  1.00  0.00    -0.267 OA
HETATM   11  N1  UNK     1      18.234   4.180  31.634  1.00  0.00    -0.300 N 
HETATM   12  H8  UNK     1      18.130   4.887  30.913  1.00  0.00     0.171 HD
BRANCH  11  13
HETATM   13  C15 UNK     1      18.430   2.895  31.119  1.00  0.00     0.196 A 
HETATM   14  S1  UNK     1      18.660   2.799  29.435  1.00  0.00    -0.034 SA
HETATM   15  C17 UNK     1      18.800   1.106  29.672  1.00  0.00     0.097 A 
HETATM   16  N3  UNK     1      18.677   0.712  30.922  1.00  0.00    -0.145 NA
HETATM   17  C18 UNK     1      19.039   0.216  28.518  1.00  0.00     0.081 C 
HETATM   18  N2  UNK     1      18.457   1.777  31.776  1.00  0.00    -0.123 NA
ENDBRANCH  11  13
ENDBRANCH   1   9
BRANCH   2  19
HETATM   19  C4  UNK     1      19.122   8.164  33.759  1.00  0.00    -0.035 A 
HETATM   20  C8  UNK     1      20.266   8.723  34.328  1.00  0.00     0.011 A 
HETATM   21  C13 UNK     1      20.309  10.089  34.606  1.00  0.00     0.001 A 
HETATM   22  C16 UNK     1      19.210  10.896  34.315  1.00  0.00     0.000 A 
HETATM   23  C14 UNK     1      18.066  10.337  33.745  1.00  0.00     0.001 A 
HETATM   24  C9  UNK     1      18.023   8.970  33.467  1.00  0.00     0.011 A 
ENDBRANCH   2  19
TORSDOF 4
ENDMDL
MODEL 8
REMARK VINA RESULT:      -7.2      5.115      8.265
REMARK  4 active torsions:
REMARK  status: ('A' for Active; 'I' for Inactive)
REMARK    1  A    between atoms: C15_20  and  N1_3 
REMARK       I    between atoms: C5_10  and  N1_3 
REMARK    2  A    between atoms: C1_6  and  C2_7 
REMARK    3  A    between atoms: C1_6  and  C5_10 
REMARK    4  A    between atoms: C3_8  and  C4_9 
ROOT
HETATM    1  C1  UNK     1      17.838   8.303  33.266  1.00  0.00     0.043 C 
HETATM    2  C3  UNK     1      18.874   7.497  32.918  1.00  0.00     0.029 C 
ENDROOT
BRANCH   1   3
HETATM    3  C2  UNK     1      16.430   7.909  33.053  1.00  0.00    -0.021 A 
HETATM    4  C6  UNK     1      15.630   7.643  34.150  1.00  0.00     0.012 A 
HETATM    5  C10 UNK     1      14.301   7.271  33.949  1.00  0.00     0.001 A 
HETATM    6  C12 UNK     1      13.793   7.173  32.654  1.00  0.00     0.000 A 
HETATM    7  C11 UNK     1      14.614   7.444  31.559  1.00  0.00     0.001 A 
HETATM    8  C7  UNK     1      15.943   7.816  31.761  1.00  0.00     0.012 A 
ENDBRANCH   1   3
BRANCH   1   9
HETATM    9  C5  UNK     1      18.201   9.648  33.854  1.00  0.00     0.258 C 
HETATM   10  O1  UNK     1      19.324   9.835  34.316  1.00  0.00    -0.267 OA
HETATM   11  N1  UNK     1      17.151  10.555  33.804  1.00  0.00    -0.300 N 
HETATM   12  H8  UNK     1      16.257  10.296  33.401  1.00  0.00     0.171 HD
BRANCH  11  13
HETATM   13  C15 UNK     1      17.178  11.871  34.278  1.00  0.00     0.196 A 
HETATM   14  S1  UNK     1      15.829  12.356  35.195  1.00  0.00    -0.034 SA
HETATM   15  C17 UNK     1      16.617  13.874  35.329  1.00  0.00     0.097 A 
HETATM   16  N3  UNK     1      17.782  13.946  34.720  1.00  0.00    -0.145 NA
HETATM   17  C18 UNK     1      15.981  14.972  36.084  1.00  0.00     0.081 C 
HETATM   18  N2  UNK     1      18.110  12.755  34.097  1.00  0.00    -0.123 NA
ENDBRANCH  11  13
ENDBRANCH   1   9
BRANCH   2  19
HETATM   19  C4  UNK     1      18.781   6.186  32.295  1.00  0.00    -0.035 A 
HETATM   20  C8  UNK     1      18.277   5.105  33.018  1.00  0.00     0.011 A 
HETATM   21  C13 UNK     1      18.188   3.847  32.420  1.00  0.00     0.001 A 
HETATM   22  C16 UNK     1      18.603   3.671  31.101  1.00  0.00     0.000 A 
HETATM   23  C14 UNK     1      19.108   4.752  30.378  1.00  0.00     0.001 A 
HETATM   24  C9  UNK     1      19.197   6.009  30.976  1.00  0.00     0.011 A 
ENDBRANCH   2  19
TORSDOF 4
ENDMDL
MODEL 9
REMARK VINA RESULT:      -7.2      2.520      3.603
REMARK  4 active torsions:
REMARK  status: ('A' for Active; 'I' for Inactive)
REMARK    1  A    between atoms: C15_20  and  N1_3 
REMARK       I    between atoms: C5_10  and  N1_3 
REMARK    2  A    between atoms: C1_6  and  C2_7 
REMARK    3  A    between atoms: C1_6  and  C5_10 
REMARK    4  A    between atoms: C3_8  and  C4_9 
ROOT
HETATM    1  C1  UNK     1      18.127   2.182  33.114  1.00  0.00     0.043 C 
HETATM    2  C3  UNK     1      18.108   3.446  33.610  1.00  0.00     0.029 C 
ENDROOT
BRANCH   1   3
HETATM    3  C2  UNK     1      18.431   1.897  31.697  1.00  0.00    -0.021 A 
HETATM    4  C6  UNK     1      19.311   0.876  31.386  1.00  0.00     0.012 A 
HETATM    5  C10 UNK     1      19.598   0.608  30.048  1.00  0.00     0.001 A 
HETATM    6  C12 UNK     1      19.000   1.366  29.042  1.00  0.00     0.000 A 
HETATM    7  C11 UNK     1      18.115   2.392  29.373  1.00  0.00     0.001 A 
HETATM    8  C7  UNK     1      17.829   2.660  30.711  1.00  0.00     0.012 A 
ENDBRANCH   1   3
BRANCH   1   9
HETATM    9  C5  UNK     1      17.785   1.074  34.086  1.00  0.00     0.258 C 
HETATM   10  O1  UNK     1      16.619   0.715  34.224  1.00  0.00    -0.267 OA
HETATM   11  N1  UNK     1      18.901   0.579  34.747  1.00  0.00    -0.300 N 
HETATM   12  H8  UNK     1      19.826   0.951  34.559  1.00  0.00     0.171 HD
BRANCH  11  13
HETATM   13  C15 UNK     1      18.903  -0.437  35.708  1.00  0.00     0.196 A 
HETATM   14  S1  UNK     1      19.868  -1.793  35.349  1.00  0.00    -0.034 SA
HETATM   15  C17 UNK     1      19.335  -2.419  36.855  1.00  0.00     0.097 A 
HETATM   16  N3  UNK     1      18.511  -1.636  37.518  1.00  0.00    -0.145 NA
HETATM   17  C18 UNK     1      19.805  -3.743  37.311  1.00  0.00     0.081 C 
HETATM   18  N2  UNK     1      18.257  -0.461  36.832  1.00  0.00    -0.123 NA
ENDBRANCH  11  13
ENDBRANCH   1   9
BRANCH   2  19
HETATM   19  C4  UNK     1      18.354   4.673  32.867  1.00  0.00    -0.035 A 
HETATM   20  C8  UNK     1      19.662   5.054  32.566  1.00  0.00     0.011 A 
HETATM   21  C13 UNK     1      19.898   6.230  31.853  1.00  0.00     0.001 A 
HETATM   22  C16 UNK     1      18.828   7.024  31.442  1.00  0.00     0.000 A 
HETATM   23  C14 UNK     1      17.520   6.642  31.743  1.00  0.00     0.001 A 
HETATM   24  C9  UNK     1      17.284   5.466  32.456  1.00  0.00     0.011 A 
ENDBRANCH   2  19
TORSDOF 4
ENDMDL
MODEL 10
REMARK VINA RESULT:      -7.1      5.151      7.814
REMARK  4 active torsions:
REMARK  status: ('A' for Active; 'I' for Inactive)
REMARK    1  A    between atoms: C15_20  and  N1_3 
REMARK       I    between atoms: C5_10  and  N1_3 
REMARK    2  A    between atoms: C1_6  and  C2_7 
REMARK    3  A    between atoms: C1_6  and  C5_10 
REMARK    4  A    between atoms: C3_8  and  C4_9 
ROOT
HETATM    1  C1  UNK     1      16.446   8.094  33.562  1.00  0.00     0.043 C 
HETATM    2  C3  UNK     1      16.245   7.099  32.661  1.00  0.00     0.029 C 
ENDROOT
BRANCH   1   3
HETATM    3  C2  UNK     1      17.800   8.551  33.940  1.00  0.00    -0.021 A 
HETATM    4  C6  UNK     1      18.658   7.669  34.572  1.00  0.00     0.012 A 
HETATM    5  C10 UNK     1      19.936   8.101  34.928  1.00  0.00     0.001 A 
HETATM    6  C12 UNK     1      20.334   9.407  34.646  1.00  0.00     0.000 A 
HETATM    7  C11 UNK     1      19.455  10.283  34.009  1.00  0.00     0.001 A 
HETATM    8  C7  UNK     1      18.178   9.851  33.653  1.00  0.00     0.012 A 
ENDBRANCH   1   3
BRANCH   1   9
HETATM    9  C5  UNK     1      15.207   8.694  34.190  1.00  0.00     0.258 C 
HETATM   10  O1  UNK     1      14.138   8.093  34.134  1.00  0.00    -0.267 OA
HETATM   11  N1  UNK     1      15.449   9.928  34.778  1.00  0.00    -0.300 N 
HETATM   12  H8  UNK     1      16.377  10.338  34.766  1.00  0.00     0.171 HD
BRANCH  11  13
HETATM   13  C15 UNK     1      14.503  10.728  35.427  1.00  0.00     0.196 A 
HETATM   14  S1  UNK     1      13.418  11.561  34.414  1.00  0.00    -0.034 SA
HETATM   15  C17 UNK     1      12.736  12.184  35.860  1.00  0.00     0.097 A 
HETATM   16  N3  UNK     1      13.314  11.768  36.966  1.00  0.00    -0.145 NA
HETATM   17  C18 UNK     1      11.589  13.112  35.793  1.00  0.00     0.081 C 
HETATM   18  N2  UNK     1      14.362  10.905  36.704  1.00  0.00    -0.123 NA
ENDBRANCH  11  13
ENDBRANCH   1   9
BRANCH   2  19
HETATM   19  C4  UNK     1      17.271   6.340  31.962  1.00  0.00    -0.035 A 
HETATM   20  C8  UNK     1      17.935   6.905  30.873  1.00  0.00     0.011 A 
HETATM   21  C13 UNK     1      18.919   6.178  30.203  1.00  0.00     0.001 A 
HETATM   22  C16 UNK     1      19.240   4.887  30.622  1.00  0.00     0.000 A 
HETATM   23  C14 UNK     1      18.576   4.323  31.712  1.00  0.00     0.001 A 
HETATM   24  C9  UNK     1      17.592   5.050  32.382  1.00  0.00     0.011 A 
ENDBRANCH   2  19
TORSDOF 4
ENDMDL
