MODEL 1
REMARK VINA RESULT:      -8.4      0.000      0.000
REMARK  2 active torsions:
REMARK  status: ('A' for Active; 'I' for Inactive)
REMARK    1  A    between atoms: C10_13  and  O2_2 
REMARK    2  A    between atoms: C4_7  and  C9_12 
ROOT
HETATM    1  O1  UNK     1      18.044  -0.332  33.246  1.00  0.00    -0.309 OA
HETATM    2  O3  UNK     1      20.129  -2.421  36.052  1.00  0.00    -0.287 OA
HETATM    3  C1  UNK     1      18.272  -1.048  35.554  1.00  0.00     0.054 A 
HETATM    4  C2  UNK     1      17.608  -0.352  34.545  1.00  0.00     0.093 A 
HETATM    5  C3  UNK     1      17.783  -1.034  36.863  1.00  0.00    -0.042 A 
HETATM    6  C4  UNK     1      19.190  -1.040  32.921  1.00  0.00     0.090 A 
HETATM    7  C5  UNK     1      19.494  -1.794  35.216  1.00  0.00     0.188 A 
HETATM    8  C6  UNK     1      16.447   0.364  34.841  1.00  0.00     0.074 A 
HETATM    9  C7  UNK     1      19.919  -1.742  33.803  1.00  0.00     0.093 A 
HETATM   10  C8  UNK     1      16.622  -0.316  37.155  1.00  0.00     0.044 A 
HETATM   11  C10 UNK     1      15.956   0.381  36.146  1.00  0.00     0.068 A 
HETATM   12  C11 UNK     1      18.438  -1.752  37.998  1.00  0.00     0.049 C 
ENDROOT
BRANCH   6  13
HETATM   13  C9  UNK     1      19.572  -0.945  31.498  1.00  0.00    -0.002 A 
HETATM   14  C12 UNK     1      20.108  -2.054  30.839  1.00  0.00     0.014 A 
HETATM   15  C14 UNK     1      20.469  -1.965  29.494  1.00  0.00     0.001 A 
HETATM   16  C16 UNK     1      20.295  -0.766  28.804  1.00  0.00     0.000 A 
HETATM   17  C15 UNK     1      19.759   0.344  29.459  1.00  0.00     0.001 A 
HETATM   18  C13 UNK     1      19.398   0.255  30.802  1.00  0.00     0.014 A 
ENDBRANCH   6  13
BRANCH  11  19
HETATM   19  O2  UNK     1      14.823   1.080  36.436  1.00  0.00    -0.361 OA
HETATM   20  H12 UNK     1      15.071   1.967  36.745  1.00  0.00     0.217 HD
ENDBRANCH  11  19
TORSDOF 2
ENDMDL
MODEL 2
REMARK VINA RESULT:      -8.4      1.304      3.022
REMARK  2 active torsions:
REMARK  status: ('A' for Active; 'I' for Inactive)
REMARK    1  A    between atoms: C10_13  and  O2_2 
REMARK    2  A    between atoms: C4_7  and  C9_12 
ROOT
HETATM    1  O1  UNK     1      19.456  -1.438  33.661  1.00  0.00    -0.309 OA
HETATM    2  O3  UNK     1      17.419   1.725  35.221  1.00  0.00    -0.287 OA
HETATM    3  C1  UNK     1      18.436  -0.376  35.591  1.00  0.00     0.054 A 
HETATM    4  C2  UNK     1      19.130  -1.426  34.992  1.00  0.00     0.093 A 
HETATM    5  C3  UNK     1      18.129  -0.416  36.953  1.00  0.00    -0.042 A 
HETATM    6  C4  UNK     1      19.087  -0.355  32.880  1.00  0.00     0.090 A 
HETATM    7  C5  UNK     1      18.034   0.772  34.763  1.00  0.00     0.188 A 
HETATM    8  C6  UNK     1      19.521  -2.527  35.755  1.00  0.00     0.074 A 
HETATM    9  C7  UNK     1      18.412   0.712  33.337  1.00  0.00     0.093 A 
HETATM   10  C8  UNK     1      18.522  -1.519  37.713  1.00  0.00     0.044 A 
HETATM   11  C10 UNK     1      19.216  -2.571  37.115  1.00  0.00     0.068 A 
HETATM   12  C11 UNK     1      17.389   0.668  37.666  1.00  0.00     0.049 C 
ENDROOT
BRANCH   6  13
HETATM   13  C9  UNK     1      19.483  -0.474  31.462  1.00  0.00    -0.002 A 
HETATM   14  C12 UNK     1      19.309   0.605  30.591  1.00  0.00     0.014 A 
HETATM   15  C14 UNK     1      19.683   0.492  29.251  1.00  0.00     0.001 A 
HETATM   16  C16 UNK     1      20.232  -0.699  28.779  1.00  0.00     0.000 A 
HETATM   17  C15 UNK     1      20.408  -1.779  29.646  1.00  0.00     0.001 A 
HETATM   18  C13 UNK     1      20.034  -1.666  30.984  1.00  0.00     0.014 A 
ENDBRANCH   6  13
BRANCH  11  19
HETATM   19  O2  UNK     1      19.597  -3.645  37.862  1.00  0.00    -0.361 OA
HETATM   20  H12 UNK     1      19.137  -4.436  37.535  1.00  0.00     0.217 HD
ENDBRANCH  11  19
TORSDOF 2
ENDMDL
MODEL 3
REMARK VINA RESULT:      -8.2      2.168      6.767
REMARK  2 active torsions:
REMARK  status: ('A' for Active; 'I' for Inactive)
REMARK    1  A    between atoms: C10_13  and  O2_2 
REMARK    2  A    between atoms: C4_7  and  C9_12 
ROOT
HETATM    1  O1  UNK     1      18.951  -0.041  33.292  1.00  0.00    -0.309 OA
HETATM    2  O3  UNK     1      17.814   3.544  31.729  1.00  0.00    -0.287 OA
HETATM    3  C1  UNK     1      18.797   1.427  31.364  1.00  0.00     0.054 A 
HETATM    4  C2  UNK     1      19.163   0.223  31.963  1.00  0.00     0.093 A 
HETATM    5  C3  UNK     1      19.038   1.642  30.005  1.00  0.00    -0.042 A 
HETATM    6  C4  UNK     1      18.339   0.930  34.069  1.00  0.00     0.090 A 
HETATM    7  C5  UNK     1      18.156   2.463  32.188  1.00  0.00     0.188 A 
HETATM    8  C6  UNK     1      19.774  -0.776  31.204  1.00  0.00     0.074 A 
HETATM    9  C7  UNK     1      17.947   2.129  33.611  1.00  0.00     0.093 A 
HETATM   10  C8  UNK     1      19.649   0.641  29.248  1.00  0.00     0.044 A 
HETATM   11  C10 UNK     1      20.016  -0.565  29.847  1.00  0.00     0.068 A 
HETATM   12  C11 UNK     1      18.676   2.904  29.291  1.00  0.00     0.049 C 
ENDROOT
BRANCH   6  13
HETATM   13  C9  UNK     1      18.165   0.544  35.484  1.00  0.00    -0.002 A 
HETATM   14  C12 UNK     1      18.367  -0.780  35.881  1.00  0.00     0.014 A 
HETATM   15  C14 UNK     1      18.203  -1.144  37.218  1.00  0.00     0.001 A 
HETATM   16  C16 UNK     1      17.836  -0.186  38.162  1.00  0.00     0.000 A 
HETATM   17  C15 UNK     1      17.634   1.138  37.769  1.00  0.00     0.001 A 
HETATM   18  C13 UNK     1      17.798   1.502  36.433  1.00  0.00     0.014 A 
ENDBRANCH   6  13
BRANCH  11  19
HETATM   19  O2  UNK     1      20.612  -1.539  29.104  1.00  0.00    -0.361 OA
HETATM   20  H12 UNK     1      20.357  -1.425  28.173  1.00  0.00     0.217 HD
ENDBRANCH  11  19
TORSDOF 2
ENDMDL
MODEL 4
REMARK VINA RESULT:      -8.2      3.600      7.182
REMARK  2 active torsions:
REMARK  status: ('A' for Active; 'I' for Inactive)
REMARK    1  A    between atoms: C10_13  and  O2_2 
REMARK    2  A    between atoms: C4_7  and  C9_12 
ROOT
HETATM    1  O1  UNK     1      17.943   1.853  32.784  1.00  0.00    -0.309 OA
HETATM    2  O3  UNK     1      19.010   5.756  33.252  1.00  0.00    -0.287 OA
HETATM    3  C1  UNK     1      18.556   3.973  31.770  1.00  0.00     0.054 A 
HETATM    4  C2  UNK     1      18.189   2.631  31.682  1.00  0.00     0.093 A 
HETATM    5  C3  UNK     1      18.795   4.718  30.613  1.00  0.00    -0.042 A 
HETATM    6  C4  UNK     1      18.056   2.430  34.039  1.00  0.00     0.090 A 
HETATM    7  C5  UNK     1      18.687   4.586  33.101  1.00  0.00     0.188 A 
HETATM    8  C6  UNK     1      18.060   2.025  30.431  1.00  0.00     0.074 A 
HETATM    9  C7  UNK     1      18.408   3.708  34.254  1.00  0.00     0.093 A 
HETATM   10  C8  UNK     1      18.665   4.109  29.364  1.00  0.00     0.044 A 
HETATM   11  C10 UNK     1      18.298   2.766  29.274  1.00  0.00     0.068 A 
HETATM   12  C11 UNK     1      19.193   6.158  30.625  1.00  0.00     0.049 C 
ENDROOT
BRANCH   6  13
HETATM   13  C9  UNK     1      17.775   1.503  35.153  1.00  0.00    -0.002 A 
HETATM   14  C12 UNK     1      17.994   1.905  36.473  1.00  0.00     0.014 A 
HETATM   15  C14 UNK     1      17.728   1.029  37.527  1.00  0.00     0.001 A 
HETATM   16  C16 UNK     1      17.243  -0.251  37.263  1.00  0.00     0.000 A 
HETATM   17  C15 UNK     1      17.023  -0.656  35.946  1.00  0.00     0.001 A 
HETATM   18  C13 UNK     1      17.288   0.219  34.893  1.00  0.00     0.014 A 
ENDBRANCH   6  13
BRANCH  11  19
HETATM   19  O2  UNK     1      18.172   2.176  28.053  1.00  0.00    -0.361 OA
HETATM   20  H12 UNK     1      18.345   2.840  27.364  1.00  0.00     0.217 HD
ENDBRANCH  11  19
TORSDOF 2
ENDMDL
MODEL 5
REMARK VINA RESULT:      -8.1      2.018      6.273
REMARK  2 active torsions:
REMARK  status: ('A' for Active; 'I' for Inactive)
REMARK    1  A    between atoms: C10_13  and  O2_2 
REMARK    2  A    between atoms: C4_7  and  C9_12 
ROOT
HETATM    1  O1  UNK     1      18.356   1.209  33.045  1.00  0.00    -0.309 OA
HETATM    2  O3  UNK     1      20.002  -2.163  31.461  1.00  0.00    -0.287 OA
HETATM    3  C1  UNK     1      19.242   0.046  31.107  1.00  0.00     0.054 A 
HETATM    4  C2  UNK     1      18.675   1.166  31.713  1.00  0.00     0.093 A 
HETATM    5  C3  UNK     1      19.547   0.058  29.743  1.00  0.00    -0.042 A 
HETATM    6  C4  UNK     1      18.616   0.092  33.824  1.00  0.00     0.090 A 
HETATM    7  C5  UNK     1      19.512  -1.145  31.928  1.00  0.00     0.188 A 
HETATM    8  C6  UNK     1      18.408   2.307  30.955  1.00  0.00     0.074 A 
HETATM    9  C7  UNK     1      19.153  -1.046  33.356  1.00  0.00     0.093 A 
HETATM   10  C8  UNK     1      19.279   1.201  28.989  1.00  0.00     0.044 A 
HETATM   11  C10 UNK     1      18.711   2.323  29.594  1.00  0.00     0.068 A 
HETATM   12  C11 UNK     1      20.154  -1.102  29.023  1.00  0.00     0.049 C 
ENDROOT
BRANCH   6  13
HETATM   13  C9  UNK     1      18.229   0.245  35.240  1.00  0.00    -0.002 A 
HETATM   14  C12 UNK     1      17.924  -0.881  36.010  1.00  0.00     0.014 A 
HETATM   15  C14 UNK     1      17.558  -0.737  37.349  1.00  0.00     0.001 A 
HETATM   16  C16 UNK     1      17.495   0.533  37.922  1.00  0.00     0.000 A 
HETATM   17  C15 UNK     1      17.799   1.659  37.156  1.00  0.00     0.001 A 
HETATM   18  C13 UNK     1      18.165   1.516  35.819  1.00  0.00     0.014 A 
ENDBRANCH   6  13
BRANCH  11  19
HETATM   19  O2  UNK     1      18.452   3.436  28.853  1.00  0.00    -0.361 OA
HETATM   20  H12 UNK     1      17.515   3.429  28.592  1.00  0.00     0.217 HD
ENDBRANCH  11  19
TORSDOF 2
ENDMDL
MODEL 6
REMARK VINA RESULT:      -7.9     24.614     27.622
REMARK  2 active torsions:
REMARK  status: ('A' for Active; 'I' for Inactive)
REMARK    1  A    between atoms: C10_13  and  O2_2 
REMARK    2  A    between atoms: C4_7  and  C9_12 
ROOT
HETATM    1  O1  UNK     1      11.349   7.693   9.567  1.00  0.00    -0.309 OA
HETATM    2  O3  UNK     1      12.078   6.275   5.819  1.00  0.00    -0.287 OA
HETATM    3  C1  UNK     1      10.480   6.900   7.443  1.00  0.00     0.054 A 
HETATM    4  C2  UNK     1      10.301   7.388   8.736  1.00  0.00     0.093 A 
HETATM    5  C3  UNK     1       9.375   6.605   6.640  1.00  0.00    -0.042 A 
HETATM    6  C4  UNK     1      12.640   7.517   9.095  1.00  0.00     0.090 A 
HETATM    7  C5  UNK     1      11.848   6.704   6.941  1.00  0.00     0.188 A 
HETATM    8  C6  UNK     1       9.013   7.582   9.236  1.00  0.00     0.074 A 
HETATM    9  C7  UNK     1      12.940   7.050   7.873  1.00  0.00     0.093 A 
HETATM   10  C8  UNK     1       8.088   6.800   7.143  1.00  0.00     0.044 A 
HETATM   11  C10 UNK     1       7.908   7.288   8.438  1.00  0.00     0.068 A 
HETATM   12  C11 UNK     1       9.484   6.080   5.246  1.00  0.00     0.049 C 
ENDROOT
BRANCH   6  13
HETATM   13  C9  UNK     1      13.689   7.871  10.072  1.00  0.00    -0.002 A 
HETATM   14  C12 UNK     1      14.922   7.214  10.047  1.00  0.00     0.014 A 
HETATM   15  C14 UNK     1      15.914   7.548  10.969  1.00  0.00     0.001 A 
HETATM   16  C16 UNK     1      15.676   8.540  11.920  1.00  0.00     0.000 A 
HETATM   17  C15 UNK     1      14.446   9.199  11.948  1.00  0.00     0.001 A 
HETATM   18  C13 UNK     1      13.455   8.866  11.025  1.00  0.00     0.014 A 
ENDBRANCH   6  13
BRANCH  11  19
HETATM   19  O2  UNK     1       6.650   7.477   8.924  1.00  0.00    -0.361 OA
HETATM   20  H12 UNK     1       6.011   7.346   8.203  1.00  0.00     0.217 HD
ENDBRANCH  11  19
TORSDOF 2
ENDMDL
MODEL 7
REMARK VINA RESULT:      -7.9     24.470     27.414
REMARK  2 active torsions:
REMARK  status: ('A' for Active; 'I' for Inactive)
REMARK    1  A    between atoms: C10_13  and  O2_2 
REMARK    2  A    between atoms: C4_7  and  C9_12 
ROOT
HETATM    1  O1  UNK     1      13.119   8.326   8.085  1.00  0.00    -0.309 OA
HETATM    2  O3  UNK     1      14.977   5.773  10.657  1.00  0.00    -0.287 OA
HETATM    3  C1  UNK     1      15.009   7.851   9.532  1.00  0.00     0.054 A 
HETATM    4  C2  UNK     1      14.321   8.675   8.644  1.00  0.00     0.093 A 
HETATM    5  C3  UNK     1      16.232   8.258  10.072  1.00  0.00    -0.042 A 
HETATM    6  C4  UNK     1      12.562   7.104   8.425  1.00  0.00     0.090 A 
HETATM    7  C5  UNK     1      14.426   6.548   9.889  1.00  0.00     0.188 A 
HETATM    8  C6  UNK     1      14.854   9.915   8.289  1.00  0.00     0.074 A 
HETATM    9  C7  UNK     1      13.129   6.221   9.262  1.00  0.00     0.093 A 
HETATM   10  C8  UNK     1      16.762   9.498   9.715  1.00  0.00     0.044 A 
HETATM   11  C10 UNK     1      16.074  10.324   8.825  1.00  0.00     0.068 A 
HETATM   12  C11 UNK     1      17.029   7.431  11.029  1.00  0.00     0.049 C 
ENDROOT
BRANCH   6  13
HETATM   13  C9  UNK     1      11.272   6.827   7.762  1.00  0.00    -0.002 A 
HETATM   14  C12 UNK     1      11.239   6.455   6.415  1.00  0.00     0.014 A 
HETATM   15  C14 UNK     1      10.020   6.193   5.789  1.00  0.00     0.001 A 
HETATM   16  C16 UNK     1       8.830   6.303   6.507  1.00  0.00     0.000 A 
HETATM   17  C15 UNK     1       8.858   6.674   7.851  1.00  0.00     0.001 A 
HETATM   18  C13 UNK     1      10.076   6.935   8.478  1.00  0.00     0.014 A 
ENDBRANCH   6  13
BRANCH  11  19
HETATM   19  O2  UNK     1      16.596  11.535   8.480  1.00  0.00    -0.361 OA
HETATM   20  H12 UNK     1      16.405  12.173   9.188  1.00  0.00     0.217 HD
ENDBRANCH  11  19
TORSDOF 2
ENDMDL
MODEL 8
REMARK VINA RESULT:      -7.9     24.472     27.425
REMARK  2 active torsions:
REMARK  status: ('A' for Active; 'I' for Inactive)
REMARK    1  A    between atoms: C10_13  and  O2_2 
REMARK    2  A    between atoms: C4_7  and  C9_12 
ROOT
HETATM    1  O1  UNK     1      13.118   8.331   8.083  1.00  0.00    -0.309 OA
HETATM    2  O3  UNK     1      14.972   5.778  10.659  1.00  0.00    -0.287 OA
HETATM    3  C1  UNK     1      15.007   7.854   9.531  1.00  0.00     0.054 A 
HETATM    4  C2  UNK     1      14.320   8.679   8.642  1.00  0.00     0.093 A 
HETATM    5  C3  UNK     1      16.231   8.260  10.071  1.00  0.00    -0.042 A 
HETATM    6  C4  UNK     1      12.559   7.110   8.425  1.00  0.00     0.090 A 
HETATM    7  C5  UNK     1      14.422   6.553   9.889  1.00  0.00     0.188 A 
HETATM    8  C6  UNK     1      14.855   9.918   8.285  1.00  0.00     0.074 A 
HETATM    9  C7  UNK     1      13.125   6.228   9.263  1.00  0.00     0.093 A 
HETATM   10  C8  UNK     1      16.763   9.499   9.711  1.00  0.00     0.044 A 
HETATM   11  C10 UNK     1      16.076  10.326   8.821  1.00  0.00     0.068 A 
HETATM   12  C11 UNK     1      17.026   7.434  11.028  1.00  0.00     0.049 C 
ENDROOT
BRANCH   6  13
HETATM   13  C9  UNK     1      11.268   6.834   7.762  1.00  0.00    -0.002 A 
HETATM   14  C12 UNK     1      10.074   6.941   8.479  1.00  0.00     0.014 A 
HETATM   15  C14 UNK     1       8.854   6.681   7.853  1.00  0.00     0.001 A 
HETATM   16  C16 UNK     1       8.825   6.312   6.509  1.00  0.00     0.000 A 
HETATM   17  C15 UNK     1      10.016   6.205   5.789  1.00  0.00     0.001 A 
HETATM   18  C13 UNK     1      11.235   6.466   6.414  1.00  0.00     0.014 A 
ENDBRANCH   6  13
BRANCH  11  19
HETATM   19  O2  UNK     1      16.600  11.535   8.475  1.00  0.00    -0.361 OA
HETATM   20  H12 UNK     1      15.882  12.111   8.163  1.00  0.00     0.217 HD
ENDBRANCH  11  19
TORSDOF 2
ENDMDL
MODEL 9
REMARK VINA RESULT:      -7.9     13.961     17.647
REMARK  2 active torsions:
REMARK  status: ('A' for Active; 'I' for Inactive)
REMARK    1  A    between atoms: C10_13  and  O2_2 
REMARK    2  A    between atoms: C4_7  and  C9_12 
ROOT
HETATM    1  O1  UNK     1      19.098  -1.203  16.856  1.00  0.00    -0.309 OA
HETATM    2  O3  UNK     1      19.381   2.635  15.523  1.00  0.00    -0.287 OA
HETATM    3  C1  UNK     1      19.232   1.166  17.368  1.00  0.00     0.054 A 
HETATM    4  C2  UNK     1      19.134  -0.169  17.755  1.00  0.00     0.093 A 
HETATM    5  C3  UNK     1      19.264   2.181  18.328  1.00  0.00    -0.042 A 
HETATM    6  C4  UNK     1      19.170  -0.907  15.504  1.00  0.00     0.090 A 
HETATM    7  C5  UNK     1      19.300   1.486  15.934  1.00  0.00     0.188 A 
HETATM    8  C6  UNK     1      19.066  -0.498  19.110  1.00  0.00     0.074 A 
HETATM    9  C7  UNK     1      19.260   0.337  15.007  1.00  0.00     0.093 A 
HETATM   10  C8  UNK     1      19.196   1.848  19.682  1.00  0.00     0.044 A 
HETATM   11  C10 UNK     1      19.098   0.511  20.071  1.00  0.00     0.068 A 
HETATM   12  C11 UNK     1      19.367   3.633  17.992  1.00  0.00     0.049 C 
ENDROOT
BRANCH   6  13
HETATM   13  C9  UNK     1      19.117  -2.093  14.626  1.00  0.00    -0.002 A 
HETATM   14  C12 UNK     1      19.837  -2.113  13.429  1.00  0.00     0.014 A 
HETATM   15  C14 UNK     1      19.788  -3.233  12.599  1.00  0.00     0.001 A 
HETATM   16  C16 UNK     1      19.018  -4.337  12.963  1.00  0.00     0.000 A 
HETATM   17  C15 UNK     1      18.298  -4.321  14.158  1.00  0.00     0.001 A 
HETATM   18  C13 UNK     1      18.348  -3.202  14.988  1.00  0.00     0.014 A 
ENDBRANCH   6  13
BRANCH  11  19
HETATM   19  O2  UNK     1      19.033   0.192  21.394  1.00  0.00    -0.361 OA
HETATM   20  H12 UNK     1      18.645  -0.695  21.485  1.00  0.00     0.217 HD
ENDBRANCH  11  19
TORSDOF 2
ENDMDL
MODEL 10
REMARK VINA RESULT:      -7.8     25.304     27.285
REMARK  2 active torsions:
REMARK  status: ('A' for Active; 'I' for Inactive)
REMARK    1  A    between atoms: C10_13  and  O2_2 
REMARK    2  A    between atoms: C4_7  and  C9_12 
ROOT
HETATM    1  O1  UNK     1      12.776   6.577   8.521  1.00  0.00    -0.309 OA
HETATM    2  O3  UNK     1      13.616  10.136  10.313  1.00  0.00    -0.287 OA
HETATM    3  C1  UNK     1      14.377   7.994   9.669  1.00  0.00     0.054 A 
HETATM    4  C2  UNK     1      14.023   6.800   9.044  1.00  0.00     0.093 A 
HETATM    5  C3  UNK     1      15.664   8.167  10.186  1.00  0.00    -0.042 A 
HETATM    6  C4  UNK     1      11.831   7.586   8.610  1.00  0.00     0.090 A 
HETATM    7  C5  UNK     1      13.375   9.065   9.774  1.00  0.00     0.188 A 
HETATM    8  C6  UNK     1      14.955   5.768   8.934  1.00  0.00     0.074 A 
HETATM    9  C7  UNK     1      12.049   8.777   9.192  1.00  0.00     0.093 A 
HETATM   10  C8  UNK     1      16.594   7.133  10.074  1.00  0.00     0.044 A 
HETATM   11  C10 UNK     1      16.240   5.936   9.448  1.00  0.00     0.068 A 
HETATM   12  C11 UNK     1      16.119   9.415  10.869  1.00  0.00     0.049 C 
ENDROOT
BRANCH   6  13
HETATM   13  C9  UNK     1      10.523   7.238   8.020  1.00  0.00    -0.002 A 
HETATM   14  C12 UNK     1       9.346   7.460   8.740  1.00  0.00     0.014 A 
HETATM   15  C14 UNK     1       8.110   7.131   8.183  1.00  0.00     0.001 A 
HETATM   16  C16 UNK     1       8.046   6.580   6.903  1.00  0.00     0.000 A 
HETATM   17  C15 UNK     1       9.219   6.358   6.181  1.00  0.00     0.001 A 
HETATM   18  C13 UNK     1      10.455   6.687   6.738  1.00  0.00     0.014 A 
ENDBRANCH   6  13
BRANCH  11  19
HETATM   19  O2  UNK     1      17.152   4.930   9.341  1.00  0.00    -0.361 OA
HETATM   20  H12 UNK     1      18.024   5.315   9.149  1.00  0.00     0.217 HD
ENDBRANCH  11  19
TORSDOF 2
ENDMDL
