MODEL 1
REMARK VINA RESULT:      -9.6      0.000      0.000
REMARK  1 active torsions:
REMARK  status: ('A' for Active; 'I' for Inactive)
REMARK    1  A    between atoms: C1_5  and  C3_7 
ROOT
HETATM    1  O1  UNK     1      19.222   0.890  14.846  1.00  0.00    -0.274 OA
HETATM    2  O2  UNK     1      18.990  -0.686  13.212  1.00  0.00    -0.259 OA
HETATM    3  C2  UNK     1      19.156   0.262  17.209  1.00  0.00     0.010 A 
HETATM    4  C3  UNK     1      18.935  -1.451  15.464  1.00  0.00     0.086 A 
HETATM    5  C5  UNK     1      19.211   0.664  18.576  1.00  0.00    -0.013 A 
HETATM    6  C6  UNK     1      18.986  -1.123  16.764  1.00  0.00     0.036 A 
HETATM    7  C7  UNK     1      19.271   1.232  16.212  1.00  0.00     0.090 A 
HETATM    8  C9  UNK     1      19.382   2.046  18.872  1.00  0.00    -0.025 A 
HETATM    9  C10 UNK     1      19.048  -0.417  14.408  1.00  0.00     0.302 A 
HETATM   10  C11 UNK     1      19.439   2.581  16.503  1.00  0.00     0.039 A 
HETATM   11  C13 UNK     1      19.495   2.982  17.832  1.00  0.00     0.015 A 
HETATM   12  C15 UNK     1      19.105  -0.220  19.677  1.00  0.00     0.013 A 
HETATM   13  C17 UNK     1      19.441   2.484  20.205  1.00  0.00     0.012 A 
HETATM   14  C19 UNK     1      19.165   0.232  20.998  1.00  0.00     0.001 A 
HETATM   15  C21 UNK     1      19.334   1.583  21.262  1.00  0.00     0.001 A 
ENDROOT
BRANCH   4  16
HETATM   16  C1  UNK     1      18.775  -2.824  15.094  1.00  0.00     0.147 A 
HETATM   17  N1  UNK     1      19.878  -3.536  14.709  1.00  0.00    -0.333 N 
HETATM   18  C12 UNK     1      21.241  -3.055  14.625  1.00  0.00     0.158 C 
HETATM   19  C4  UNK     1      19.473  -4.811  14.409  1.00  0.00     0.064 A 
HETATM   20  C14 UNK     1      20.168  -5.939  13.971  1.00  0.00     0.032 A 
HETATM   21  C8  UNK     1      18.100  -4.800  14.637  1.00  0.00     0.086 A 
HETATM   22  C18 UNK     1      19.416  -7.099  13.760  1.00  0.00     0.002 A 
HETATM   23  C20 UNK     1      18.037  -7.119  13.980  1.00  0.00     0.002 A 
HETATM   24  C16 UNK     1      17.360  -5.975  14.420  1.00  0.00     0.034 A 
HETATM   25  N2  UNK     1      17.684  -3.559  15.062  1.00  0.00    -0.228 NA
ENDBRANCH   4  16
TORSDOF 1
ENDMDL
MODEL 2
REMARK VINA RESULT:      -9.5     15.265     18.764
REMARK  1 active torsions:
REMARK  status: ('A' for Active; 'I' for Inactive)
REMARK    1  A    between atoms: C1_5  and  C3_7 
ROOT
HETATM    1  O1  UNK     1      18.981   3.698  29.988  1.00  0.00    -0.274 OA
HETATM    2  O2  UNK     1      18.771   5.945  29.657  1.00  0.00    -0.259 OA
HETATM    3  C2  UNK     1      18.461   2.697  32.158  1.00  0.00     0.010 A 
HETATM    4  C3  UNK     1      18.200   5.114  31.812  1.00  0.00     0.086 A 
HETATM    5  C5  UNK     1      18.388   1.529  32.972  1.00  0.00    -0.013 A 
HETATM    6  C6  UNK     1      18.110   4.044  32.615  1.00  0.00     0.036 A 
HETATM    7  C7  UNK     1      18.889   2.576  30.835  1.00  0.00     0.090 A 
HETATM    8  C9  UNK     1      18.757   0.279  32.401  1.00  0.00    -0.025 A 
HETATM    9  C10 UNK     1      18.665   4.982  30.410  1.00  0.00     0.302 A 
HETATM   10  C11 UNK     1      19.248   1.353  30.279  1.00  0.00     0.039 A 
HETATM   11  C13 UNK     1      19.179   0.210  31.065  1.00  0.00     0.015 A 
HETATM   12  C15 UNK     1      17.972   1.520  34.326  1.00  0.00     0.013 A 
HETATM   13  C17 UNK     1      18.700  -0.896  33.169  1.00  0.00     0.012 A 
HETATM   14  C19 UNK     1      17.922   0.342  35.077  1.00  0.00     0.001 A 
HETATM   15  C21 UNK     1      18.285  -0.865  34.498  1.00  0.00     0.001 A 
ENDROOT
BRANCH   4  16
HETATM   16  C1  UNK     1      17.835   6.402  32.317  1.00  0.00     0.147 A 
HETATM   17  N1  UNK     1      18.790   7.164  32.933  1.00  0.00    -0.333 N 
HETATM   18  C12 UNK     1      20.178   6.816  33.148  1.00  0.00     0.158 C 
HETATM   19  C4  UNK     1      18.203   8.340  33.323  1.00  0.00     0.064 A 
HETATM   20  C14 UNK     1      18.701   9.464  33.984  1.00  0.00     0.032 A 
HETATM   21  C8  UNK     1      16.881   8.222  32.907  1.00  0.00     0.086 A 
HETATM   22  C18 UNK     1      17.798  10.504  34.225  1.00  0.00     0.002 A 
HETATM   23  C20 UNK     1      16.464  10.414  33.820  1.00  0.00     0.002 A 
HETATM   24  C16 UNK     1      15.986   9.277  33.157  1.00  0.00     0.034 A 
HETATM   25  N2  UNK     1      16.670   7.013  32.284  1.00  0.00    -0.228 NA
ENDBRANCH   4  16
TORSDOF 1
ENDMDL
MODEL 3
REMARK VINA RESULT:      -9.2     16.733     20.227
REMARK  1 active torsions:
REMARK  status: ('A' for Active; 'I' for Inactive)
REMARK    1  A    between atoms: C1_5  and  C3_7 
ROOT
HETATM    1  O1  UNK     1      18.750  -1.286  36.304  1.00  0.00    -0.274 OA
HETATM    2  O2  UNK     1      19.034  -2.353  38.300  1.00  0.00    -0.259 OA
HETATM    3  C2  UNK     1      19.756  -2.168  34.257  1.00  0.00     0.010 A 
HETATM    4  C3  UNK     1      20.048  -3.347  36.391  1.00  0.00     0.086 A 
HETATM    5  C5  UNK     1      19.976  -2.035  32.855  1.00  0.00    -0.013 A 
HETATM    6  C6  UNK     1      20.278  -3.268  35.072  1.00  0.00     0.036 A 
HETATM    7  C7  UNK     1      18.996  -1.203  34.919  1.00  0.00     0.090 A 
HETATM    8  C9  UNK     1      19.408  -0.917  32.181  1.00  0.00    -0.025 A 
HETATM    9  C10 UNK     1      19.249  -2.314  37.092  1.00  0.00     0.302 A 
HETATM   10  C11 UNK     1      18.442  -0.113  34.259  1.00  0.00     0.039 A 
HETATM   11  C13 UNK     1      18.650   0.025  32.892  1.00  0.00     0.015 A 
HETATM   12  C15 UNK     1      20.728  -2.944  32.071  1.00  0.00     0.013 A 
HETATM   13  C17 UNK     1      19.601  -0.749  30.800  1.00  0.00     0.012 A 
HETATM   14  C19 UNK     1      20.911  -2.761  30.697  1.00  0.00     0.001 A 
HETATM   15  C21 UNK     1      20.347  -1.664  30.062  1.00  0.00     0.001 A 
ENDROOT
BRANCH   4  16
HETATM   16  C1  UNK     1      20.580  -4.451  37.130  1.00  0.00     0.147 A 
HETATM   17  N1  UNK     1      19.811  -5.573  37.284  1.00  0.00    -0.333 N 
HETATM   18  C12 UNK     1      18.474  -5.791  36.775  1.00  0.00     0.158 C 
HETATM   19  C4  UNK     1      20.532  -6.480  38.018  1.00  0.00     0.064 A 
HETATM   20  C14 UNK     1      20.241  -7.769  38.465  1.00  0.00     0.032 A 
HETATM   21  C8  UNK     1      21.738  -5.835  38.276  1.00  0.00     0.086 A 
HETATM   22  C18 UNK     1      21.234  -8.417  39.207  1.00  0.00     0.002 A 
HETATM   23  C20 UNK     1      22.455  -7.796  39.482  1.00  0.00     0.002 A 
HETATM   24  C16 UNK     1      22.725  -6.501  39.023  1.00  0.00     0.034 A 
HETATM   25  N2  UNK     1      21.750  -4.577  37.717  1.00  0.00    -0.228 NA
ENDBRANCH   4  16
TORSDOF 1
ENDMDL
MODEL 4
REMARK VINA RESULT:      -9.2     16.813     19.714
REMARK  1 active torsions:
REMARK  status: ('A' for Active; 'I' for Inactive)
REMARK    1  A    between atoms: C1_5  and  C3_7 
ROOT
HETATM    1  O1  UNK     1      18.532   2.101  31.773  1.00  0.00    -0.274 OA
HETATM    2  O2  UNK     1      18.486   4.170  30.814  1.00  0.00    -0.259 OA
HETATM    3  C2  UNK     1      18.170   1.825  34.176  1.00  0.00     0.010 A 
HETATM    4  C3  UNK     1      18.088   4.058  33.157  1.00  0.00     0.086 A 
HETATM    5  C5  UNK     1      18.085   0.953  35.301  1.00  0.00    -0.013 A 
HETATM    6  C6  UNK     1      17.993   3.278  34.244  1.00  0.00     0.036 A 
HETATM    7  C7  UNK     1      18.435   1.284  32.917  1.00  0.00     0.090 A 
HETATM    8  C9  UNK     1      18.275  -0.442  35.095  1.00  0.00    -0.025 A 
HETATM    9  C10 UNK     1      18.380   3.480  31.823  1.00  0.00     0.302 A 
HETATM   10  C11 UNK     1      18.620  -0.079  32.718  1.00  0.00     0.039 A 
HETATM   11  C13 UNK     1      18.538  -0.936  33.808  1.00  0.00     0.015 A 
HETATM   12  C15 UNK     1      17.824   1.378  36.627  1.00  0.00     0.013 A 
HETATM   13  C17 UNK     1      18.200  -1.335  36.176  1.00  0.00     0.012 A 
HETATM   14  C19 UNK     1      17.753   0.476  37.692  1.00  0.00     0.001 A 
HETATM   15  C21 UNK     1      17.940  -0.880  37.466  1.00  0.00     0.001 A 
ENDROOT
BRANCH   4  16
HETATM   16  C1  UNK     1      17.898   5.470  33.289  1.00  0.00     0.147 A 
HETATM   17  N1  UNK     1      18.959   6.246  33.666  1.00  0.00    -0.333 N 
HETATM   18  C12 UNK     1      20.304   5.800  33.961  1.00  0.00     0.158 C 
HETATM   19  C4  UNK     1      18.531   7.548  33.719  1.00  0.00     0.064 A 
HETATM   20  C14 UNK     1      19.184   8.738  34.042  1.00  0.00     0.032 A 
HETATM   21  C8  UNK     1      17.188   7.485  33.359  1.00  0.00     0.086 A 
HETATM   22  C18 UNK     1      18.420   9.908  33.991  1.00  0.00     0.002 A 
HETATM   23  C20 UNK     1      17.069   9.878  33.634  1.00  0.00     0.002 A 
HETATM   24  C16 UNK     1      16.435   8.671  33.313  1.00  0.00     0.034 A 
HETATM   25  N2  UNK     1      16.812   6.188  33.096  1.00  0.00    -0.228 NA
ENDBRANCH   4  16
TORSDOF 1
ENDMDL
MODEL 5
REMARK VINA RESULT:      -9.2     15.432     19.005
REMARK  1 active torsions:
REMARK  status: ('A' for Active; 'I' for Inactive)
REMARK    1  A    between atoms: C1_5  and  C3_7 
ROOT
HETATM    1  O1  UNK     1      18.904   4.128  30.093  1.00  0.00    -0.274 OA
HETATM    2  O2  UNK     1      18.798   6.388  29.802  1.00  0.00    -0.259 OA
HETATM    3  C2  UNK     1      18.447   3.123  32.276  1.00  0.00     0.010 A 
HETATM    4  C3  UNK     1      18.298   5.555  31.974  1.00  0.00     0.086 A 
HETATM    5  C5  UNK     1      18.354   1.948  33.078  1.00  0.00    -0.013 A 
HETATM    6  C6  UNK     1      18.193   4.479  32.768  1.00  0.00     0.036 A 
HETATM    7  C7  UNK     1      18.797   2.999  30.930  1.00  0.00     0.090 A 
HETATM    8  C9  UNK     1      18.625   0.689  32.472  1.00  0.00    -0.025 A 
HETATM    9  C10 UNK     1      18.681   5.421  30.548  1.00  0.00     0.302 A 
HETATM   10  C11 UNK     1      19.060   1.768  30.341  1.00  0.00     0.039 A 
HETATM   11  C13 UNK     1      18.972   0.618  31.114  1.00  0.00     0.015 A 
HETATM   12  C15 UNK     1      18.011   1.940  34.452  1.00  0.00     0.013 A 
HETATM   13  C17 UNK     1      18.545  -0.493  33.227  1.00  0.00     0.012 A 
HETATM   14  C19 UNK     1      17.937   0.755  35.189  1.00  0.00     0.001 A 
HETATM   15  C21 UNK     1      18.203  -0.461  34.577  1.00  0.00     0.001 A 
ENDROOT
BRANCH   4  16
HETATM   16  C1  UNK     1      18.030   6.853  32.514  1.00  0.00     0.147 A 
HETATM   17  N1  UNK     1      16.746   7.325  32.489  1.00  0.00    -0.333 N 
HETATM   18  C12 UNK     1      15.578   6.651  31.962  1.00  0.00     0.158 C 
HETATM   19  C4  UNK     1      16.744   8.573  33.058  1.00  0.00     0.064 A 
HETATM   20  C14 UNK     1      15.726   9.498  33.289  1.00  0.00     0.032 A 
HETATM   21  C8  UNK     1      18.073   8.794  33.409  1.00  0.00     0.086 A 
HETATM   22  C18 UNK     1      16.095  10.699  33.905  1.00  0.00     0.002 A 
HETATM   23  C20 UNK     1      17.420  10.950  34.269  1.00  0.00     0.002 A 
HETATM   24  C16 UNK     1      18.426  10.005  34.028  1.00  0.00     0.034 A 
HETATM   25  N2  UNK     1      18.856   7.716  33.064  1.00  0.00    -0.228 NA
ENDBRANCH   4  16
TORSDOF 1
ENDMDL
MODEL 6
REMARK VINA RESULT:      -8.8     12.611     14.783
REMARK  1 active torsions:
REMARK  status: ('A' for Active; 'I' for Inactive)
REMARK    1  A    between atoms: C1_5  and  C3_7 
ROOT
HETATM    1  O1  UNK     1      15.533   7.702  10.302  1.00  0.00    -0.274 OA
HETATM    2  O2  UNK     1      13.758   6.287  10.520  1.00  0.00    -0.259 OA
HETATM    3  C2  UNK     1      15.355   9.738   8.957  1.00  0.00     0.010 A 
HETATM    4  C3  UNK     1      13.424   8.241   9.205  1.00  0.00     0.086 A 
HETATM    5  C5  UNK     1      15.977  10.912   8.441  1.00  0.00    -0.013 A 
HETATM    6  C6  UNK     1      13.963   9.361   8.700  1.00  0.00     0.036 A 
HETATM    7  C7  UNK     1      16.099   8.877   9.766  1.00  0.00     0.090 A 
HETATM    8  C9  UNK     1      17.339  11.161   8.771  1.00  0.00    -0.025 A 
HETATM    9  C10 UNK     1      14.220   7.324  10.055  1.00  0.00     0.302 A 
HETATM   10  C11 UNK     1      17.428   9.123  10.089  1.00  0.00     0.039 A 
HETATM   11  C13 UNK     1      18.042  10.265   9.590  1.00  0.00     0.015 A 
HETATM   12  C15 UNK     1      15.333  11.861   7.609  1.00  0.00     0.013 A 
HETATM   13  C17 UNK     1      17.989  12.306   8.282  1.00  0.00     0.012 A 
HETATM   14  C19 UNK     1      15.995  12.995   7.131  1.00  0.00     0.001 A 
HETATM   15  C21 UNK     1      17.322  13.218   7.468  1.00  0.00     0.001 A 
ENDROOT
BRANCH   4  16
HETATM   16  C1  UNK     1      12.056   7.933   8.922  1.00  0.00     0.147 A 
HETATM   17  N1  UNK     1      11.766   7.165   7.828  1.00  0.00    -0.333 N 
HETATM   18  C12 UNK     1      12.707   6.604   6.881  1.00  0.00     0.158 C 
HETATM   19  C4  UNK     1      10.405   7.008   7.771  1.00  0.00     0.064 A 
HETATM   20  C14 UNK     1       9.574   6.331   6.879  1.00  0.00     0.032 A 
HETATM   21  C8  UNK     1       9.930   7.714   8.873  1.00  0.00     0.086 A 
HETATM   22  C18 UNK     1       8.199   6.385   7.133  1.00  0.00     0.002 A 
HETATM   23  C20 UNK     1       7.692   7.086   8.231  1.00  0.00     0.002 A 
HETATM   24  C16 UNK     1       8.546   7.758   9.114  1.00  0.00     0.034 A 
HETATM   25  N2  UNK     1      10.969   8.281   9.575  1.00  0.00    -0.228 NA
ENDBRANCH   4  16
TORSDOF 1
ENDMDL
MODEL 7
REMARK VINA RESULT:      -8.7     13.229     17.124
REMARK  1 active torsions:
REMARK  status: ('A' for Active; 'I' for Inactive)
REMARK    1  A    between atoms: C1_5  and  C3_7 
ROOT
HETATM    1  O1  UNK     1      18.645   2.136  28.583  1.00  0.00    -0.274 OA
HETATM    2  O2  UNK     1      18.009   4.306  28.880  1.00  0.00    -0.259 OA
HETATM    3  C2  UNK     1      19.386   0.777  30.478  1.00  0.00     0.010 A 
HETATM    4  C3  UNK     1      18.676   3.102  30.821  1.00  0.00     0.086 A 
HETATM    5  C5  UNK     1      19.872  -0.473  30.961  1.00  0.00    -0.013 A 
HETATM    6  C6  UNK     1      19.129   1.945  31.324  1.00  0.00     0.036 A 
HETATM    7  C7  UNK     1      19.126   0.922  29.114  1.00  0.00     0.090 A 
HETATM    8  C9  UNK     1      20.075  -1.529  30.030  1.00  0.00    -0.025 A 
HETATM    9  C10 UNK     1      18.411   3.255  29.370  1.00  0.00     0.302 A 
HETATM   10  C11 UNK     1      19.324  -0.112  28.206  1.00  0.00     0.039 A 
HETATM   11  C13 UNK     1      19.797  -1.333  28.668  1.00  0.00     0.015 A 
HETATM   12  C15 UNK     1      20.175  -0.745  32.318  1.00  0.00     0.013 A 
HETATM   13  C17 UNK     1      20.554  -2.776  30.465  1.00  0.00     0.012 A 
HETATM   14  C19 UNK     1      20.651  -1.991  32.734  1.00  0.00     0.001 A 
HETATM   15  C21 UNK     1      20.840  -3.006  31.808  1.00  0.00     0.001 A 
ENDROOT
BRANCH   4  16
HETATM   16  C1  UNK     1      18.438   4.204  31.702  1.00  0.00     0.147 A 
HETATM   17  N1  UNK     1      19.320   5.251  31.701  1.00  0.00    -0.333 N 
HETATM   18  C12 UNK     1      20.510   5.388  30.890  1.00  0.00     0.158 C 
HETATM   19  C4  UNK     1      18.881   6.172  32.617  1.00  0.00     0.064 A 
HETATM   20  C14 UNK     1      19.386   7.409  33.022  1.00  0.00     0.032 A 
HETATM   21  C8  UNK     1      17.718   5.613  33.139  1.00  0.00     0.086 A 
HETATM   22  C18 UNK     1      18.662   8.094  34.003  1.00  0.00     0.002 A 
HETATM   23  C20 UNK     1      17.491   7.559  34.546  1.00  0.00     0.002 A 
HETATM   24  C16 UNK     1      17.003   6.316  34.125  1.00  0.00     0.034 A 
HETATM   25  N2  UNK     1      17.459   4.393  32.560  1.00  0.00    -0.228 NA
ENDBRANCH   4  16
TORSDOF 1
ENDMDL
MODEL 8
REMARK VINA RESULT:      -8.7     19.632     21.845
REMARK  1 active torsions:
REMARK  status: ('A' for Active; 'I' for Inactive)
REMARK    1  A    between atoms: C1_5  and  C3_7 
ROOT
HETATM    1  O1  UNK     1      29.860  -5.852  35.264  1.00  0.00    -0.274 OA
HETATM    2  O2  UNK     1      30.239  -5.741  33.017  1.00  0.00    -0.259 OA
HETATM    3  C2  UNK     1      28.637  -7.734  36.236  1.00  0.00     0.010 A 
HETATM    4  C3  UNK     1      29.062  -7.646  33.820  1.00  0.00     0.086 A 
HETATM    5  C5  UNK     1      28.096  -8.364  37.395  1.00  0.00    -0.013 A 
HETATM    6  C6  UNK     1      28.541  -8.280  34.881  1.00  0.00     0.036 A 
HETATM    7  C7  UNK     1      29.308  -6.518  36.376  1.00  0.00     0.090 A 
HETATM    8  C9  UNK     1      28.263  -7.726  38.656  1.00  0.00    -0.025 A 
HETATM    9  C10 UNK     1      29.765  -6.350  33.971  1.00  0.00     0.302 A 
HETATM   10  C11 UNK     1      29.470  -5.897  37.609  1.00  0.00     0.039 A 
HETATM   11  C13 UNK     1      28.947  -6.504  38.744  1.00  0.00     0.015 A 
HETATM   12  C15 UNK     1      27.394  -9.594  37.385  1.00  0.00     0.013 A 
HETATM   13  C17 UNK     1      27.745  -8.313  39.822  1.00  0.00     0.012 A 
HETATM   14  C19 UNK     1      26.885 -10.165  38.555  1.00  0.00     0.001 A 
HETATM   15  C21 UNK     1      27.061  -9.525  39.773  1.00  0.00     0.001 A 
ENDROOT
BRANCH   4  16
HETATM   16  C1  UNK     1      28.941  -8.237  32.522  1.00  0.00     0.147 A 
HETATM   17  N1  UNK     1      29.920  -9.090  32.092  1.00  0.00    -0.333 N 
HETATM   18  C12 UNK     1      31.111  -9.486  32.812  1.00  0.00     0.158 C 
HETATM   19  C4  UNK     1      29.581  -9.521  30.834  1.00  0.00     0.064 A 
HETATM   20  C14 UNK     1      30.207 -10.388  29.938  1.00  0.00     0.032 A 
HETATM   21  C8  UNK     1      28.373  -8.883  30.564  1.00  0.00     0.086 A 
HETATM   22  C18 UNK     1      29.562 -10.602  28.716  1.00  0.00     0.002 A 
HETATM   23  C20 UNK     1      28.350  -9.976  28.415  1.00  0.00     0.002 A 
HETATM   24  C16 UNK     1      27.739  -9.110  29.331  1.00  0.00     0.034 A 
HETATM   25  N2  UNK     1      27.992  -8.090  31.623  1.00  0.00    -0.228 NA
ENDBRANCH   4  16
TORSDOF 1
ENDMDL
MODEL 9
REMARK VINA RESULT:      -8.7     22.779     24.943
REMARK  1 active torsions:
REMARK  status: ('A' for Active; 'I' for Inactive)
REMARK    1  A    between atoms: C1_5  and  C3_7 
ROOT
HETATM    1  O1  UNK     1      30.612  -4.178  37.363  1.00  0.00    -0.274 OA
HETATM    2  O2  UNK     1      32.428  -3.545  36.135  1.00  0.00    -0.259 OA
HETATM    3  C2  UNK     1      30.162  -6.541  37.807  1.00  0.00     0.010 A 
HETATM    4  C3  UNK     1      32.138  -5.877  36.509  1.00  0.00     0.086 A 
HETATM    5  C5  UNK     1      29.324  -7.528  38.403  1.00  0.00    -0.013 A 
HETATM    6  C6  UNK     1      31.384  -6.842  37.057  1.00  0.00     0.036 A 
HETATM    7  C7  UNK     1      29.820  -5.194  37.934  1.00  0.00     0.090 A 
HETATM    8  C9  UNK     1      28.165  -7.099  39.109  1.00  0.00    -0.025 A 
HETATM    9  C10 UNK     1      31.765  -4.448  36.637  1.00  0.00     0.302 A 
HETATM   10  C11 UNK     1      28.688  -4.777  38.624  1.00  0.00     0.039 A 
HETATM   11  C13 UNK     1      27.865  -5.732  39.209  1.00  0.00     0.015 A 
HETATM   12  C15 UNK     1      29.561  -8.924  38.344  1.00  0.00     0.013 A 
HETATM   13  C17 UNK     1      27.313  -8.039  39.710  1.00  0.00     0.012 A 
HETATM   14  C19 UNK     1      28.702  -9.846  38.948  1.00  0.00     0.001 A 
HETATM   15  C21 UNK     1      27.579  -9.404  39.632  1.00  0.00     0.001 A 
ENDROOT
BRANCH   4  16
HETATM   16  C1  UNK     1      33.325  -6.236  35.794  1.00  0.00     0.147 A 
HETATM   17  N1  UNK     1      33.250  -6.416  34.440  1.00  0.00    -0.333 N 
HETATM   18  C12 UNK     1      32.073  -6.286  33.607  1.00  0.00     0.158 C 
HETATM   19  C4  UNK     1      34.501  -6.748  33.989  1.00  0.00     0.064 A 
HETATM   20  C14 UNK     1      34.995  -7.038  32.717  1.00  0.00     0.032 A 
HETATM   21  C8  UNK     1      35.292  -6.750  35.135  1.00  0.00     0.086 A 
HETATM   22  C18 UNK     1      36.357  -7.343  32.624  1.00  0.00     0.002 A 
HETATM   23  C20 UNK     1      37.176  -7.353  33.756  1.00  0.00     0.002 A 
HETATM   24  C16 UNK     1      36.659  -7.058  35.024  1.00  0.00     0.034 A 
HETATM   25  N2  UNK     1      34.545  -6.430  36.246  1.00  0.00    -0.228 NA
ENDBRANCH   4  16
TORSDOF 1
ENDMDL
MODEL 10
REMARK VINA RESULT:      -8.6     22.613     24.616
REMARK  1 active torsions:
REMARK  status: ('A' for Active; 'I' for Inactive)
REMARK    1  A    between atoms: C1_5  and  C3_7 
ROOT
HETATM    1  O1  UNK     1      31.887  -3.932  36.763  1.00  0.00    -0.274 OA
HETATM    2  O2  UNK     1      33.689  -3.824  35.369  1.00  0.00    -0.259 OA
HETATM    3  C2  UNK     1      30.876  -6.084  37.338  1.00  0.00     0.010 A 
HETATM    4  C3  UNK     1      32.834  -5.989  35.860  1.00  0.00     0.086 A 
HETATM    5  C5  UNK     1      29.864  -6.803  38.040  1.00  0.00    -0.013 A 
HETATM    6  C6  UNK     1      31.905  -6.710  36.506  1.00  0.00     0.036 A 
HETATM    7  C7  UNK     1      30.910  -4.692  37.438  1.00  0.00     0.090 A 
HETATM    8  C9  UNK     1      28.925  -6.070  38.818  1.00  0.00    -0.025 A 
HETATM    9  C10 UNK     1      32.861  -4.510  35.959  1.00  0.00     0.302 A 
HETATM   10  C11 UNK     1      29.992  -3.978  38.198  1.00  0.00     0.039 A 
HETATM   11  C13 UNK     1      29.003  -4.670  38.886  1.00  0.00     0.015 A 
HETATM   12  C15 UNK     1      29.722  -8.212  38.020  1.00  0.00     0.013 A 
HETATM   13  C17 UNK     1      27.913  -6.740  39.524  1.00  0.00     0.012 A 
HETATM   14  C19 UNK     1      28.708  -8.863  38.728  1.00  0.00     0.001 A 
HETATM   15  C21 UNK     1      27.805  -8.128  39.480  1.00  0.00     0.001 A 
ENDROOT
BRANCH   4  16
HETATM   16  C1  UNK     1      33.817  -6.661  35.068  1.00  0.00     0.147 A 
HETATM   17  N1  UNK     1      33.511  -6.989  33.776  1.00  0.00    -0.333 N 
HETATM   18  C12 UNK     1      32.267  -6.733  33.082  1.00  0.00     0.158 C 
HETATM   19  C4  UNK     1      34.602  -7.617  33.230  1.00  0.00     0.064 A 
HETATM   20  C14 UNK     1      34.841  -8.154  31.965  1.00  0.00     0.032 A 
HETATM   21  C8  UNK     1      35.541  -7.634  34.258  1.00  0.00     0.086 A 
HETATM   22  C18 UNK     1      36.098  -8.732  31.754  1.00  0.00     0.002 A 
HETATM   23  C20 UNK     1      37.060  -8.764  32.766  1.00  0.00     0.002 A 
HETATM   24  C16 UNK     1      36.798  -8.218  34.028  1.00  0.00     0.034 A 
HETATM   25  N2  UNK     1      35.036  -7.036  35.391  1.00  0.00    -0.228 NA
ENDBRANCH   4  16
TORSDOF 1
ENDMDL
