MODEL 1
REMARK VINA RESULT:      -8.7      0.000      0.000
REMARK  3 active torsions:
REMARK  status: ('A' for Active; 'I' for Inactive)
REMARK    1  A    between atoms: C4_8  and  O1_2 
REMARK    2  A    between atoms: C8_12  and  O1_2 
REMARK    3  A    between atoms: C8_12  and  C9_13 
ROOT
HETATM    1  O2  UNK     1      16.497   6.472  33.084  1.00  0.00    -0.275 OA
HETATM    2  O3  UNK     1      15.191   7.742  34.466  1.00  0.00    -0.260 OA
HETATM    3  C1  UNK     1      18.903   6.889  32.996  1.00  0.00     0.004 A 
HETATM    4  C2  UNK     1      17.779   6.177  32.576  1.00  0.00     0.092 A 
HETATM    5  C3  UNK     1      18.727   7.962  33.985  1.00  0.00    -0.043 A 
HETATM    6  C4  UNK     1      19.096   4.806  31.105  1.00  0.00     0.071 A 
HETATM    7  C5  UNK     1      17.858   5.144  31.641  1.00  0.00     0.075 A 
HETATM    8  C6  UNK     1      20.141   6.535  32.443  1.00  0.00     0.017 A 
HETATM    9  C7  UNK     1      20.235   5.501  31.505  1.00  0.00     0.038 A 
HETATM   10  C10 UNK     1      17.497   8.220  34.450  1.00  0.00     0.090 A 
HETATM   11  C11 UNK     1      19.916   8.746  34.456  1.00  0.00     0.049 C 
HETATM   12  C12 UNK     1      16.302   7.478  34.017  1.00  0.00     0.288 A 
ENDROOT
BRANCH   6  13
HETATM   13  O1  UNK     1      19.194   3.802  30.192  1.00  0.00    -0.347 OA
BRANCH  13  14
HETATM   14  C8  UNK     1      18.209   2.772  30.250  1.00  0.00     0.214 C 
BRANCH  14  15
HETATM   15  C9  UNK     1      18.890   1.437  30.172  1.00  0.00    -0.034 A 
HETATM   16  C13 UNK     1      19.230   0.909  28.931  1.00  0.00     0.011 A 
HETATM   17  C15 UNK     1      19.863  -0.332  28.859  1.00  0.00     0.024 A 
HETATM   18  C17 UNK     1      20.151  -1.037  30.027  1.00  0.00     0.034 A 
HETATM   19  C16 UNK     1      19.807  -0.501  31.269  1.00  0.00     0.024 A 
HETATM   20 Cl1  UNK     1      20.931  -2.568  29.938  1.00  0.00    -0.084 Cl
HETATM   21  C14 UNK     1      19.175   0.740  31.341  1.00  0.00     0.011 A 
ENDBRANCH  14  15
ENDBRANCH  13  14
ENDBRANCH   6  13
TORSDOF 3
ENDMDL
MODEL 2
REMARK VINA RESULT:      -8.6      3.327      7.581
REMARK  3 active torsions:
REMARK  status: ('A' for Active; 'I' for Inactive)
REMARK    1  A    between atoms: C4_8  and  O1_2 
REMARK    2  A    between atoms: C8_12  and  O1_2 
REMARK    3  A    between atoms: C8_12  and  C9_13 
ROOT
HETATM    1  O2  UNK     1      19.073  -0.030  33.153  1.00  0.00    -0.275 OA
HETATM    2  O3  UNK     1      19.515  -1.750  34.593  1.00  0.00    -0.260 OA
HETATM    3  C1  UNK     1      19.634  -0.276  30.788  1.00  0.00     0.004 A 
HETATM    4  C2  UNK     1      19.114   0.480  31.839  1.00  0.00     0.092 A 
HETATM    5  C3  UNK     1      20.143  -1.624  31.076  1.00  0.00    -0.043 A 
HETATM    6  C4  UNK     1      18.622   2.324  30.378  1.00  0.00     0.071 A 
HETATM    7  C5  UNK     1      18.609   1.768  31.652  1.00  0.00     0.075 A 
HETATM    8  C6  UNK     1      19.638   0.302  29.511  1.00  0.00     0.017 A 
HETATM    9  C7  UNK     1      19.136   1.592  29.309  1.00  0.00     0.038 A 
HETATM   10  C10 UNK     1      20.092  -2.082  32.334  1.00  0.00     0.090 A 
HETATM   11  C11 UNK     1      20.709  -2.462  29.967  1.00  0.00     0.049 C 
HETATM   12  C12 UNK     1      19.546  -1.297  33.453  1.00  0.00     0.288 A 
ENDROOT
BRANCH   6  13
HETATM   13  O1  UNK     1      18.135   3.578  30.174  1.00  0.00    -0.347 OA
BRANCH  13  14
HETATM   14  C8  UNK     1      19.087   4.635  30.068  1.00  0.00     0.214 C 
BRANCH  14  15
HETATM   15  C9  UNK     1      19.108   5.407  31.356  1.00  0.00    -0.034 A 
HETATM   16  C13 UNK     1      20.282   6.028  31.766  1.00  0.00     0.011 A 
HETATM   17  C15 UNK     1      20.302   6.744  32.963  1.00  0.00     0.024 A 
HETATM   18  C17 UNK     1      19.148   6.834  33.741  1.00  0.00     0.034 A 
HETATM   19  C16 UNK     1      17.973   6.207  33.323  1.00  0.00     0.024 A 
HETATM   20 Cl1  UNK     1      19.173   7.716  35.218  1.00  0.00    -0.084 Cl
HETATM   21  C14 UNK     1      17.954   5.492  32.126  1.00  0.00     0.011 A 
ENDBRANCH  14  15
ENDBRANCH  13  14
ENDBRANCH   6  13
TORSDOF 3
ENDMDL
MODEL 3
REMARK VINA RESULT:      -8.6      3.706      8.123
REMARK  3 active torsions:
REMARK  status: ('A' for Active; 'I' for Inactive)
REMARK    1  A    between atoms: C4_8  and  O1_2 
REMARK    2  A    between atoms: C8_12  and  O1_2 
REMARK    3  A    between atoms: C8_12  and  C9_13 
ROOT
HETATM    1  O2  UNK     1      19.310  -0.314  32.773  1.00  0.00    -0.275 OA
HETATM    2  O3  UNK     1      20.068  -2.444  33.114  1.00  0.00    -0.260 OA
HETATM    3  C1  UNK     1      19.341   0.620  30.516  1.00  0.00     0.004 A 
HETATM    4  C2  UNK     1      19.059   0.745  31.876  1.00  0.00     0.092 A 
HETATM    5  C3  UNK     1      19.909  -0.645  30.028  1.00  0.00    -0.043 A 
HETATM    6  C4  UNK     1      18.248   2.989  31.586  1.00  0.00     0.071 A 
HETATM    7  C5  UNK     1      18.518   1.910  32.422  1.00  0.00     0.075 A 
HETATM    8  C6  UNK     1      19.062   1.717  29.690  1.00  0.00     0.017 A 
HETATM    9  C7  UNK     1      18.519   2.892  30.223  1.00  0.00     0.038 A 
HETATM   10  C10 UNK     1      20.138  -1.634  30.904  1.00  0.00     0.090 A 
HETATM   11  C11 UNK     1      20.224  -0.810  28.571  1.00  0.00     0.049 C 
HETATM   12  C12 UNK     1      19.846  -1.517  32.342  1.00  0.00     0.288 A 
ENDROOT
BRANCH   6  13
HETATM   13  O1  UNK     1      17.720   4.134  32.098  1.00  0.00    -0.347 OA
BRANCH  13  14
HETATM   14  C8  UNK     1      18.076   4.471  33.437  1.00  0.00     0.214 C 
BRANCH  14  15
HETATM   15  C9  UNK     1      18.205   5.963  33.549  1.00  0.00    -0.034 A 
HETATM   16  C13 UNK     1      19.405   6.520  33.975  1.00  0.00     0.011 A 
HETATM   17  C15 UNK     1      19.523   7.906  34.080  1.00  0.00     0.024 A 
HETATM   18  C17 UNK     1      18.441   8.725  33.758  1.00  0.00     0.034 A 
HETATM   19  C16 UNK     1      17.239   8.158  33.332  1.00  0.00     0.024 A 
HETATM   20 Cl1  UNK     1      18.587  10.435  33.889  1.00  0.00    -0.084 Cl
HETATM   21  C14 UNK     1      17.121   6.773  33.227  1.00  0.00     0.011 A 
ENDBRANCH  14  15
ENDBRANCH  13  14
ENDBRANCH   6  13
TORSDOF 3
ENDMDL
MODEL 4
REMARK VINA RESULT:      -8.4      1.294      1.764
REMARK  3 active torsions:
REMARK  status: ('A' for Active; 'I' for Inactive)
REMARK    1  A    between atoms: C4_8  and  O1_2 
REMARK    2  A    between atoms: C8_12  and  O1_2 
REMARK    3  A    between atoms: C8_12  and  C9_13 
ROOT
HETATM    1  O2  UNK     1      16.373   8.166  33.128  1.00  0.00    -0.275 OA
HETATM    2  O3  UNK     1      15.643  10.282  33.594  1.00  0.00    -0.260 OA
HETATM    3  C1  UNK     1      18.708   7.585  33.548  1.00  0.00     0.004 A 
HETATM    4  C2  UNK     1      17.430   7.234  33.111  1.00  0.00     0.092 A 
HETATM    5  C3  UNK     1      18.935   8.955  34.029  1.00  0.00    -0.043 A 
HETATM    6  C4  UNK     1      18.132   4.992  32.601  1.00  0.00     0.071 A 
HETATM    7  C5  UNK     1      17.130   5.955  32.640  1.00  0.00     0.075 A 
HETATM    8  C6  UNK     1      19.705   6.602  33.500  1.00  0.00     0.017 A 
HETATM    9  C7  UNK     1      19.418   5.316  33.031  1.00  0.00     0.038 A 
HETATM   10  C10 UNK     1      17.910   9.820  34.033  1.00  0.00     0.090 A 
HETATM   11  C11 UNK     1      20.298   9.364  34.505  1.00  0.00     0.049 C 
HETATM   12  C12 UNK     1      16.557   9.464  33.576  1.00  0.00     0.288 A 
ENDROOT
BRANCH   6  13
HETATM   13  O1  UNK     1      17.860   3.740  32.145  1.00  0.00    -0.347 OA
BRANCH  13  14
HETATM   14  C8  UNK     1      18.041   3.503  30.750  1.00  0.00     0.214 C 
BRANCH  14  15
HETATM   15  C9  UNK     1      18.653   2.145  30.560  1.00  0.00    -0.034 A 
HETATM   16  C13 UNK     1      18.896   1.338  31.666  1.00  0.00     0.011 A 
HETATM   17  C15 UNK     1      19.466   0.077  31.488  1.00  0.00     0.024 A 
HETATM   18  C17 UNK     1      19.787  -0.369  30.206  1.00  0.00     0.034 A 
HETATM   19  C16 UNK     1      19.540   0.446  29.101  1.00  0.00     0.024 A 
HETATM   20 Cl1  UNK     1      20.490  -1.924  29.988  1.00  0.00    -0.084 Cl
HETATM   21  C14 UNK     1      18.971   1.707  29.279  1.00  0.00     0.011 A 
ENDBRANCH  14  15
ENDBRANCH  13  14
ENDBRANCH   6  13
TORSDOF 3
ENDMDL
MODEL 5
REMARK VINA RESULT:      -8.4      7.524      9.570
REMARK  3 active torsions:
REMARK  status: ('A' for Active; 'I' for Inactive)
REMARK    1  A    between atoms: C4_8  and  O1_2 
REMARK    2  A    between atoms: C8_12  and  O1_2 
REMARK    3  A    between atoms: C8_12  and  C9_13 
ROOT
HETATM    1  O2  UNK     1      19.037  -0.424  33.973  1.00  0.00    -0.275 OA
HETATM    2  O3  UNK     1      18.260   1.379  32.800  1.00  0.00    -0.260 OA
HETATM    3  C1  UNK     1      18.376  -0.706  36.307  1.00  0.00     0.004 A 
HETATM    4  C2  UNK     1      19.077  -1.144  35.184  1.00  0.00     0.092 A 
HETATM    5  C3  UNK     1      17.588   0.530  36.207  1.00  0.00    -0.043 A 
HETATM    6  C4  UNK     1      19.926  -3.061  36.359  1.00  0.00     0.071 A 
HETATM    7  C5  UNK     1      19.849  -2.307  35.193  1.00  0.00     0.075 A 
HETATM    8  C6  UNK     1      18.467  -1.479  37.473  1.00  0.00     0.017 A 
HETATM    9  C7  UNK     1      19.236  -2.647  37.497  1.00  0.00     0.038 A 
HETATM   10  C10 UNK     1      17.568   1.195  35.043  1.00  0.00     0.090 A 
HETATM   11  C11 UNK     1      16.823   1.028  37.398  1.00  0.00     0.049 C 
HETATM   12  C12 UNK     1      18.302   0.745  33.849  1.00  0.00     0.288 A 
ENDROOT
BRANCH   6  13
HETATM   13  O1  UNK     1      20.673  -4.198  36.390  1.00  0.00    -0.347 OA
BRANCH  13  14
HETATM   14  C8  UNK     1      21.105  -4.657  37.669  1.00  0.00     0.214 C 
BRANCH  14  15
HETATM   15  C9  UNK     1      20.649  -6.075  37.860  1.00  0.00    -0.034 A 
HETATM   16  C13 UNK     1      20.550  -6.920  36.760  1.00  0.00     0.011 A 
HETATM   17  C15 UNK     1      20.125  -8.237  36.939  1.00  0.00     0.024 A 
HETATM   18  C17 UNK     1      19.803  -8.700  38.214  1.00  0.00     0.034 A 
HETATM   19  C16 UNK     1      19.904  -7.845  39.313  1.00  0.00     0.024 A 
HETATM   20 Cl1  UNK     1      19.277 -10.323  38.434  1.00  0.00    -0.084 Cl
HETATM   21  C14 UNK     1      20.329  -6.529  39.135  1.00  0.00     0.011 A 
ENDBRANCH  14  15
ENDBRANCH  13  14
ENDBRANCH   6  13
TORSDOF 3
ENDMDL
MODEL 6
REMARK VINA RESULT:      -8.2      3.876      7.701
REMARK  3 active torsions:
REMARK  status: ('A' for Active; 'I' for Inactive)
REMARK    1  A    between atoms: C4_8  and  O1_2 
REMARK    2  A    between atoms: C8_12  and  O1_2 
REMARK    3  A    between atoms: C8_12  and  C9_13 
ROOT
HETATM    1  O2  UNK     1      19.371  -0.707  33.093  1.00  0.00    -0.275 OA
HETATM    2  O3  UNK     1      19.452  -1.806  35.097  1.00  0.00    -0.260 OA
HETATM    3  C1  UNK     1      20.390  -1.734  31.125  1.00  0.00     0.004 A 
HETATM    4  C2  UNK     1      19.695  -0.682  31.721  1.00  0.00     0.092 A 
HETATM    5  C3  UNK     1      20.783  -2.880  31.958  1.00  0.00    -0.043 A 
HETATM    6  C4  UNK     1      19.574   0.523  29.645  1.00  0.00     0.071 A 
HETATM    7  C5  UNK     1      19.284   0.442  31.003  1.00  0.00     0.075 A 
HETATM    8  C6  UNK     1      20.674  -1.634  29.756  1.00  0.00     0.017 A 
HETATM    9  C7  UNK     1      20.268  -0.513  29.023  1.00  0.00     0.038 A 
HETATM   10  C10 UNK     1      20.462  -2.876  33.259  1.00  0.00     0.090 A 
HETATM   11  C11 UNK     1      21.532  -4.027  31.346  1.00  0.00     0.049 C 
HETATM   12  C12 UNK     1      19.729  -1.774  33.903  1.00  0.00     0.288 A 
ENDROOT
BRANCH   6  13
HETATM   13  O1  UNK     1      19.183   1.611  28.927  1.00  0.00    -0.347 OA
BRANCH  13  14
HETATM   14  C8  UNK     1      18.008   2.290  29.365  1.00  0.00     0.214 C 
BRANCH  14  15
HETATM   15  C9  UNK     1      18.409   3.466  30.210  1.00  0.00    -0.034 A 
HETATM   16  C13 UNK     1      19.157   4.494  29.647  1.00  0.00     0.011 A 
HETATM   17  C15 UNK     1      19.529   5.585  30.432  1.00  0.00     0.024 A 
HETATM   18  C17 UNK     1      19.151   5.641  31.774  1.00  0.00     0.034 A 
HETATM   19  C16 UNK     1      18.401   4.605  32.331  1.00  0.00     0.024 A 
HETATM   20 Cl1  UNK     1      19.612   6.987  32.742  1.00  0.00    -0.084 Cl
HETATM   21  C14 UNK     1      18.028   3.514  31.546  1.00  0.00     0.011 A 
ENDBRANCH  14  15
ENDBRANCH  13  14
ENDBRANCH   6  13
TORSDOF 3
ENDMDL
MODEL 7
REMARK VINA RESULT:      -8.1      1.587      2.525
REMARK  3 active torsions:
REMARK  status: ('A' for Active; 'I' for Inactive)
REMARK    1  A    between atoms: C4_8  and  O1_2 
REMARK    2  A    between atoms: C8_12  and  O1_2 
REMARK    3  A    between atoms: C8_12  and  C9_13 
ROOT
HETATM    1  O2  UNK     1      20.352   7.718  33.367  1.00  0.00    -0.275 OA
HETATM    2  O3  UNK     1      20.874   9.543  34.643  1.00  0.00    -0.260 OA
HETATM    3  C1  UNK     1      18.025   6.994  33.211  1.00  0.00     0.004 A 
HETATM    4  C2  UNK     1      19.369   6.838  32.872  1.00  0.00     0.092 A 
HETATM    5  C3  UNK     1      17.647   8.101  34.101  1.00  0.00    -0.043 A 
HETATM    6  C4  UNK     1      18.888   4.914  31.513  1.00  0.00     0.071 A 
HETATM    7  C5  UNK     1      19.812   5.814  32.033  1.00  0.00     0.075 A 
HETATM    8  C6  UNK     1      17.109   6.077  32.678  1.00  0.00     0.017 A 
HETATM    9  C7  UNK     1      17.538   5.046  31.836  1.00  0.00     0.038 A 
HETATM   10  C10 UNK     1      18.604   8.922  34.556  1.00  0.00     0.090 A 
HETATM   11  C11 UNK     1      16.210   8.295  34.484  1.00  0.00     0.049 C 
HETATM   12  C12 UNK     1      20.026   8.771  34.207  1.00  0.00     0.288 A 
ENDROOT
BRANCH   6  13
HETATM   13  O1  UNK     1      19.299   3.909  30.694  1.00  0.00    -0.347 OA
BRANCH  13  14
HETATM   14  C8  UNK     1      18.309   2.977  30.263  1.00  0.00     0.214 C 
BRANCH  14  15
HETATM   15  C9  UNK     1      18.924   1.608  30.191  1.00  0.00    -0.034 A 
HETATM   16  C13 UNK     1      19.211   0.921  31.366  1.00  0.00     0.011 A 
HETATM   17  C15 UNK     1      19.782  -0.350  31.299  1.00  0.00     0.024 A 
HETATM   18  C17 UNK     1      20.063  -0.925  30.059  1.00  0.00     0.034 A 
HETATM   19  C16 UNK     1      19.772  -0.228  28.885  1.00  0.00     0.024 A 
HETATM   20 Cl1  UNK     1      20.768  -2.492  29.977  1.00  0.00    -0.084 Cl
HETATM   21  C14 UNK     1      19.200   1.042  28.952  1.00  0.00     0.011 A 
ENDBRANCH  14  15
ENDBRANCH  13  14
ENDBRANCH   6  13
TORSDOF 3
ENDMDL
MODEL 8
REMARK VINA RESULT:      -8.1      3.620      8.198
REMARK  3 active torsions:
REMARK  status: ('A' for Active; 'I' for Inactive)
REMARK    1  A    between atoms: C4_8  and  O1_2 
REMARK    2  A    between atoms: C8_12  and  O1_2 
REMARK    3  A    between atoms: C8_12  and  C9_13 
ROOT
HETATM    1  O2  UNK     1      19.616   0.907  29.421  1.00  0.00    -0.275 OA
HETATM    2  O3  UNK     1      20.573  -0.740  28.156  1.00  0.00    -0.260 OA
HETATM    3  C1  UNK     1      19.112   0.470  31.771  1.00  0.00     0.004 A 
HETATM    4  C2  UNK     1      19.112   1.326  30.669  1.00  0.00     0.092 A 
HETATM    5  C3  UNK     1      19.653  -0.887  31.608  1.00  0.00    -0.043 A 
HETATM    6  C4  UNK     1      18.108   3.100  31.944  1.00  0.00     0.071 A 
HETATM    7  C5  UNK     1      18.619   2.630  30.738  1.00  0.00     0.075 A 
HETATM    8  C6  UNK     1      18.594   0.962  32.977  1.00  0.00     0.017 A 
HETATM    9  C7  UNK     1      18.096   2.267  33.061  1.00  0.00     0.038 A 
HETATM   10  C10 UNK     1      20.125  -1.257  30.410  1.00  0.00     0.090 A 
HETATM   11  C11 UNK     1      19.667  -1.830  32.774  1.00  0.00     0.049 C 
HETATM   12  C12 UNK     1      20.131  -0.366  29.238  1.00  0.00     0.288 A 
ENDROOT
BRANCH   6  13
HETATM   13  O1  UNK     1      17.622   4.368  32.032  1.00  0.00    -0.347 OA
BRANCH  13  14
HETATM   14  C8  UNK     1      18.462   5.420  31.561  1.00  0.00     0.214 C 
BRANCH  14  15
HETATM   15  C9  UNK     1      18.080   6.698  32.250  1.00  0.00    -0.034 A 
HETATM   16  C13 UNK     1      16.829   7.257  32.017  1.00  0.00     0.011 A 
HETATM   17  C15 UNK     1      16.474   8.445  32.656  1.00  0.00     0.024 A 
HETATM   18  C17 UNK     1      17.373   9.066  33.524  1.00  0.00     0.034 A 
HETATM   19  C16 UNK     1      18.627   8.498  33.753  1.00  0.00     0.024 A 
HETATM   20 Cl1  UNK     1      16.936  10.532  34.312  1.00  0.00    -0.084 Cl
HETATM   21  C14 UNK     1      18.981   7.310  33.113  1.00  0.00     0.011 A 
ENDBRANCH  14  15
ENDBRANCH  13  14
ENDBRANCH   6  13
TORSDOF 3
ENDMDL
MODEL 9
REMARK VINA RESULT:      -8.0     22.226     24.359
REMARK  3 active torsions:
REMARK  status: ('A' for Active; 'I' for Inactive)
REMARK    1  A    between atoms: C4_8  and  O1_2 
REMARK    2  A    between atoms: C8_12  and  O1_2 
REMARK    3  A    between atoms: C8_12  and  C9_13 
ROOT
HETATM    1  O2  UNK     1      10.333   5.288   9.809  1.00  0.00    -0.275 OA
HETATM    2  O3  UNK     1       8.103   5.193  10.304  1.00  0.00    -0.260 OA
HETATM    3  C1  UNK     1      11.033   5.987   7.575  1.00  0.00     0.004 A 
HETATM    4  C2  UNK     1      11.346   5.563   8.867  1.00  0.00     0.092 A 
HETATM    5  C3  UNK     1       9.618   6.146   7.209  1.00  0.00    -0.043 A 
HETATM    6  C4  UNK     1      13.704   5.644   8.411  1.00  0.00     0.071 A 
HETATM    7  C5  UNK     1      12.662   5.388   9.296  1.00  0.00     0.075 A 
HETATM    8  C6  UNK     1      12.097   6.240   6.698  1.00  0.00     0.017 A 
HETATM    9  C7  UNK     1      13.422   6.069   7.114  1.00  0.00     0.038 A 
HETATM   10  C10 UNK     1       8.677   5.877   8.126  1.00  0.00     0.090 A 
HETATM   11  C11 UNK     1       9.250   6.601   5.828  1.00  0.00     0.049 C 
HETATM   12  C12 UNK     1       8.992   5.428   9.492  1.00  0.00     0.288 A 
ENDROOT
BRANCH   6  13
HETATM   13  O1  UNK     1      14.995   5.479   8.809  1.00  0.00    -0.347 OA
BRANCH  13  14
HETATM   14  C8  UNK     1      15.291   5.744  10.179  1.00  0.00     0.214 C 
BRANCH  14  15
HETATM   15  C9  UNK     1      15.673   7.188  10.327  1.00  0.00    -0.034 A 
HETATM   16  C13 UNK     1      16.899   7.629   9.840  1.00  0.00     0.011 A 
HETATM   17  C15 UNK     1      17.255   8.970   9.979  1.00  0.00     0.024 A 
HETATM   18  C17 UNK     1      16.383   9.863  10.603  1.00  0.00     0.034 A 
HETATM   19  C16 UNK     1      15.155   9.413  11.089  1.00  0.00     0.024 A 
HETATM   20 Cl1  UNK     1      16.822  11.517  10.775  1.00  0.00    -0.084 Cl
HETATM   21  C14 UNK     1      14.799   8.072  10.950  1.00  0.00     0.011 A 
ENDBRANCH  14  15
ENDBRANCH  13  14
ENDBRANCH   6  13
TORSDOF 3
ENDMDL
MODEL 10
REMARK VINA RESULT:      -8.0      9.424     13.560
REMARK  3 active torsions:
REMARK  status: ('A' for Active; 'I' for Inactive)
REMARK    1  A    between atoms: C4_8  and  O1_2 
REMARK    2  A    between atoms: C8_12  and  O1_2 
REMARK    3  A    between atoms: C8_12  and  C9_13 
ROOT
HETATM    1  O2  UNK     1      21.377  -8.348  35.360  1.00  0.00    -0.275 OA
HETATM    2  O3  UNK     1      21.914 -10.280  34.261  1.00  0.00    -0.260 OA
HETATM    3  C1  UNK     1      20.212  -8.476  37.503  1.00  0.00     0.004 A 
HETATM    4  C2  UNK     1      20.789  -7.724  36.480  1.00  0.00     0.092 A 
HETATM    5  C3  UNK     1      20.226  -9.941  37.395  1.00  0.00    -0.043 A 
HETATM    6  C4  UNK     1      20.255  -5.657  37.584  1.00  0.00     0.071 A 
HETATM    7  C5  UNK     1      20.818  -6.329  36.505  1.00  0.00     0.075 A 
HETATM    8  C6  UNK     1      19.648  -7.781  38.582  1.00  0.00     0.017 A 
HETATM    9  C7  UNK     1      19.671  -6.382  38.621  1.00  0.00     0.038 A 
HETATM   10  C10 UNK     1      20.792 -10.506  36.319  1.00  0.00     0.090 A 
HETATM   11  C11 UNK     1      19.613 -10.777  38.479  1.00  0.00     0.049 C 
HETATM   12  C12 UNK     1      21.405  -9.727  35.231  1.00  0.00     0.288 A 
ENDROOT
BRANCH   6  13
HETATM   13  O1  UNK     1      20.272  -4.297  37.627  1.00  0.00    -0.347 OA
BRANCH  13  14
HETATM   14  C8  UNK     1      20.176  -3.606  36.384  1.00  0.00     0.214 C 
BRANCH  14  15
HETATM   15  C9  UNK     1      19.403  -2.335  36.588  1.00  0.00    -0.034 A 
HETATM   16  C13 UNK     1      19.414  -1.357  35.600  1.00  0.00     0.011 A 
HETATM   17  C15 UNK     1      18.698  -0.175  35.790  1.00  0.00     0.024 A 
HETATM   18  C17 UNK     1      17.974   0.020  36.967  1.00  0.00     0.034 A 
HETATM   19  C16 UNK     1      17.968  -0.967  37.954  1.00  0.00     0.024 A 
HETATM   20 Cl1  UNK     1      17.091   1.477  37.202  1.00  0.00    -0.084 Cl
HETATM   21  C14 UNK     1      18.685  -2.148  37.763  1.00  0.00     0.011 A 
ENDBRANCH  14  15
ENDBRANCH  13  14
ENDBRANCH   6  13
TORSDOF 3
ENDMDL
