MODEL 1
REMARK VINA RESULT:      -7.6      0.000      0.000
REMARK  1 active torsions:
REMARK  status: ('A' for Active; 'I' for Inactive)
REMARK    1  A    between atoms: C10_13  and  C4_7 
ROOT
HETATM    1  O1  UNK     1      19.082   3.178  30.069  1.00  0.00    -0.307 OA
HETATM    2  O3  UNK     1      17.774   2.774  33.905  1.00  0.00    -0.287 OA
HETATM    3  C1  UNK     1      18.275   4.222  32.107  1.00  0.00     0.048 A 
HETATM    4  C2  UNK     1      18.729   4.289  30.790  1.00  0.00     0.090 A 
HETATM    5  C3  UNK     1      17.928   5.388  32.794  1.00  0.00     0.025 A 
HETATM    6  C4  UNK     1      18.991   1.936  30.679  1.00  0.00     0.113 A 
HETATM    7  C5  UNK     1      18.038   6.622  32.154  1.00  0.00    -0.061 A 
HETATM    8  C6  UNK     1      18.167   2.906  32.755  1.00  0.00     0.187 A 
HETATM    9  C7  UNK     1      18.839   5.525  30.153  1.00  0.00     0.039 A 
HETATM   10  C8  UNK     1      18.563   1.742  31.936  1.00  0.00     0.095 A 
HETATM   11  C9  UNK     1      18.493   6.691  30.836  1.00  0.00     0.009 A 
HETATM   12  C11 UNK     1      17.671   7.873  32.880  1.00  0.00     0.048 C 
ENDROOT
BRANCH   6  13
HETATM   13  C10 UNK     1      19.390   0.810  29.812  1.00  0.00     0.108 A 
HETATM   14  O2  UNK     1      18.783   0.549  28.617  1.00  0.00    -0.320 OA
HETATM   15  C14 UNK     1      19.393  -0.544  28.088  1.00  0.00     0.142 A 
HETATM   16  C13 UNK     1      20.387  -0.993  28.925  1.00  0.00     0.027 A 
HETATM   17  C12 UNK     1      20.388  -0.122  30.039  1.00  0.00     0.042 A 
ENDBRANCH   6  13
TORSDOF 1
ENDMDL
MODEL 2
REMARK VINA RESULT:      -7.4      3.185      6.775
REMARK  1 active torsions:
REMARK  status: ('A' for Active; 'I' for Inactive)
REMARK    1  A    between atoms: C10_13  and  C4_7 
ROOT
HETATM    1  O1  UNK     1      18.957  -0.477  34.041  1.00  0.00    -0.307 OA
HETATM    2  O3  UNK     1      18.022   2.738  31.721  1.00  0.00    -0.287 OA
HETATM    3  C1  UNK     1      18.964   0.575  31.852  1.00  0.00     0.048 A 
HETATM    4  C2  UNK     1      19.255  -0.491  32.702  1.00  0.00     0.090 A 
HETATM    5  C3  UNK     1      19.290   0.506  30.496  1.00  0.00     0.025 A 
HETATM    6  C4  UNK     1      18.347   0.650  34.571  1.00  0.00     0.113 A 
HETATM    7  C5  UNK     1      19.910  -0.639  29.995  1.00  0.00    -0.061 A 
HETATM    8  C6  UNK     1      18.309   1.768  32.409  1.00  0.00     0.187 A 
HETATM    9  C7  UNK     1      19.874  -1.635  32.199  1.00  0.00     0.039 A 
HETATM   10  C8  UNK     1      18.013   1.735  33.855  1.00  0.00     0.095 A 
HETATM   11  C9  UNK     1      20.201  -1.708  30.845  1.00  0.00     0.009 A 
HETATM   12  C11 UNK     1      20.263  -0.723  28.548  1.00  0.00     0.048 C 
ENDROOT
BRANCH   6  13
HETATM   13  C10 UNK     1      18.067   0.556  36.018  1.00  0.00     0.108 A 
HETATM   14  O2  UNK     1      18.018  -0.635  36.683  1.00  0.00    -0.320 OA
HETATM   15  C14 UNK     1      17.742  -0.356  37.984  1.00  0.00     0.142 A 
HETATM   16  C13 UNK     1      17.611   1.000  38.169  1.00  0.00     0.027 A 
HETATM   17  C12 UNK     1      17.820   1.592  36.901  1.00  0.00     0.042 A 
ENDBRANCH   6  13
TORSDOF 1
ENDMDL
MODEL 3
REMARK VINA RESULT:      -7.3      4.117      5.764
REMARK  1 active torsions:
REMARK  status: ('A' for Active; 'I' for Inactive)
REMARK    1  A    between atoms: C10_13  and  C4_7 
ROOT
HETATM    1  O1  UNK     1      18.740  -0.102  32.843  1.00  0.00    -0.307 OA
HETATM    2  O3  UNK     1      20.507  -3.288  34.666  1.00  0.00    -0.287 OA
HETATM    3  C1  UNK     1      19.127  -1.381  34.871  1.00  0.00     0.048 A 
HETATM    4  C2  UNK     1      18.551  -0.312  34.185  1.00  0.00     0.090 A 
HETATM    5  C3  UNK     1      18.899  -1.547  36.239  1.00  0.00     0.025 A 
HETATM    6  C4  UNK     1      19.545  -0.987  32.142  1.00  0.00     0.113 A 
HETATM    7  C5  UNK     1      18.090  -0.634  36.917  1.00  0.00    -0.061 A 
HETATM    8  C6  UNK     1      19.973  -2.328  34.129  1.00  0.00     0.187 A 
HETATM    9  C7  UNK     1      17.743   0.599  34.865  1.00  0.00     0.039 A 
HETATM   10  C8  UNK     1      20.148  -2.055  32.688  1.00  0.00     0.095 A 
HETATM   11  C9  UNK     1      17.513   0.436  36.232  1.00  0.00     0.009 A 
HETATM   12  C11 UNK     1      17.842  -0.802  38.379  1.00  0.00     0.048 C 
ENDROOT
BRANCH   6  13
HETATM   13  C10 UNK     1      19.676  -0.671  30.706  1.00  0.00     0.108 A 
HETATM   14  O2  UNK     1      19.170   0.471  30.154  1.00  0.00    -0.320 OA
HETATM   15  C14 UNK     1      19.468   0.440  28.829  1.00  0.00     0.142 A 
HETATM   16  C13 UNK     1      20.160  -0.706  28.516  1.00  0.00     0.027 A 
HETATM   17  C12 UNK     1      20.295  -1.426  29.726  1.00  0.00     0.042 A 
ENDBRANCH   6  13
TORSDOF 1
ENDMDL
MODEL 4
REMARK VINA RESULT:      -7.3      3.044      4.864
REMARK  1 active torsions:
REMARK  status: ('A' for Active; 'I' for Inactive)
REMARK    1  A    between atoms: C10_13  and  C4_7 
ROOT
HETATM    1  O1  UNK     1      19.116  -0.556  33.103  1.00  0.00    -0.307 OA
HETATM    2  O3  UNK     1      17.867   3.304  33.468  1.00  0.00    -0.287 OA
HETATM    3  C1  UNK     1      18.252   1.221  34.515  1.00  0.00     0.048 A 
HETATM    4  C2  UNK     1      18.693  -0.087  34.320  1.00  0.00     0.090 A 
HETATM    5  C3  UNK     1      17.833   1.645  35.778  1.00  0.00     0.025 A 
HETATM    6  C4  UNK     1      19.095   0.308  32.018  1.00  0.00     0.113 A 
HETATM    7  C5  UNK     1      17.859   0.749  36.847  1.00  0.00    -0.061 A 
HETATM    8  C6  UNK     1      18.238   2.144  33.369  1.00  0.00     0.187 A 
HETATM    9  C7  UNK     1      18.717  -0.981  35.390  1.00  0.00     0.039 A 
HETATM   10  C8  UNK     1      18.699   1.589  32.080  1.00  0.00     0.095 A 
HETATM   11  C9  UNK     1      18.300  -0.561  36.654  1.00  0.00     0.009 A 
HETATM   12  C11 UNK     1      17.413   1.191  38.200  1.00  0.00     0.048 C 
ENDROOT
BRANCH   6  13
HETATM   13  C10 UNK     1      19.575  -0.297  30.760  1.00  0.00     0.108 A 
HETATM   14  O2  UNK     1      19.986  -1.596  30.677  1.00  0.00    -0.320 OA
HETATM   15  C14 UNK     1      20.356  -1.817  29.388  1.00  0.00     0.142 A 
HETATM   16  C13 UNK     1      20.190  -0.678  28.636  1.00  0.00     0.027 A 
HETATM   17  C12 UNK     1      19.686   0.306  29.519  1.00  0.00     0.042 A 
ENDBRANCH   6  13
TORSDOF 1
ENDMDL
MODEL 5
REMARK VINA RESULT:      -7.2      2.563      4.471
REMARK  1 active torsions:
REMARK  status: ('A' for Active; 'I' for Inactive)
REMARK    1  A    between atoms: C10_13  and  C4_7 
ROOT
HETATM    1  O1  UNK     1      16.543   5.861  32.330  1.00  0.00    -0.307 OA
HETATM    2  O3  UNK     1      19.085   7.595  34.999  1.00  0.00    -0.287 OA
HETATM    3  C1  UNK     1      16.947   7.583  33.994  1.00  0.00     0.048 A 
HETATM    4  C2  UNK     1      16.128   6.942  33.065  1.00  0.00     0.090 A 
HETATM    5  C3  UNK     1      16.471   8.680  34.716  1.00  0.00     0.025 A 
HETATM    6  C4  UNK     1      17.835   5.393  32.514  1.00  0.00     0.113 A 
HETATM    7  C5  UNK     1      15.169   9.132  34.502  1.00  0.00    -0.061 A 
HETATM    8  C6  UNK     1      18.315   7.083  34.199  1.00  0.00     0.187 A 
HETATM    9  C7  UNK     1      14.827   7.395  32.853  1.00  0.00     0.039 A 
HETATM   10  C8  UNK     1      18.714   5.920  33.381  1.00  0.00     0.095 A 
HETATM   11  C9  UNK     1      14.348   8.491  33.573  1.00  0.00     0.009 A 
HETATM   12  C11 UNK     1      14.652  10.303  35.267  1.00  0.00     0.048 C 
ENDROOT
BRANCH   6  13
HETATM   13  C10 UNK     1      18.175   4.224  31.677  1.00  0.00     0.108 A 
HETATM   14  O2  UNK     1      17.809   2.951  32.007  1.00  0.00    -0.320 OA
HETATM   15  C14 UNK     1      18.278   2.134  31.028  1.00  0.00     0.142 A 
HETATM   16  C13 UNK     1      18.943   2.861  30.070  1.00  0.00     0.027 A 
HETATM   17  C12 UNK     1      18.879   4.212  30.486  1.00  0.00     0.042 A 
ENDBRANCH   6  13
TORSDOF 1
ENDMDL
MODEL 6
REMARK VINA RESULT:      -7.1      2.813      5.087
REMARK  1 active torsions:
REMARK  status: ('A' for Active; 'I' for Inactive)
REMARK    1  A    between atoms: C10_13  and  C4_7 
ROOT
HETATM    1  O1  UNK     1      18.180   3.118  34.637  1.00  0.00    -0.307 OA
HETATM    2  O3  UNK     1      18.573   1.085  31.129  1.00  0.00    -0.287 OA
HETATM    3  C1  UNK     1      18.481   3.174  32.228  1.00  0.00     0.048 A 
HETATM    4  C2  UNK     1      18.342   3.807  33.463  1.00  0.00     0.090 A 
HETATM    5  C3  UNK     1      18.645   3.928  31.063  1.00  0.00     0.025 A 
HETATM    6  C4  UNK     1      18.144   1.732  34.591  1.00  0.00     0.113 A 
HETATM    7  C5  UNK     1      18.669   5.320  31.142  1.00  0.00    -0.061 A 
HETATM    8  C6  UNK     1      18.454   1.705  32.176  1.00  0.00     0.187 A 
HETATM    9  C7  UNK     1      18.366   5.199  33.539  1.00  0.00     0.039 A 
HETATM   10  C8  UNK     1      18.273   1.010  33.467  1.00  0.00     0.095 A 
HETATM   11  C9  UNK     1      18.530   5.955  32.377  1.00  0.00     0.009 A 
HETATM   12  C11 UNK     1      18.842   6.133  29.904  1.00  0.00     0.048 C 
ENDROOT
BRANCH   6  13
HETATM   13  C10 UNK     1      17.971   1.092  35.910  1.00  0.00     0.108 A 
HETATM   14  O2  UNK     1      18.078  -0.256  36.095  1.00  0.00    -0.320 OA
HETATM   15  C14 UNK     1      17.865  -0.498  37.415  1.00  0.00     0.142 A 
HETATM   16  C13 UNK     1      17.619   0.676  38.087  1.00  0.00     0.027 A 
HETATM   17  C12 UNK     1      17.687   1.705  37.118  1.00  0.00     0.042 A 
ENDBRANCH   6  13
TORSDOF 1
ENDMDL
MODEL 7
REMARK VINA RESULT:      -7.1      4.046      6.590
REMARK  1 active torsions:
REMARK  status: ('A' for Active; 'I' for Inactive)
REMARK    1  A    between atoms: C10_13  and  C4_7 
ROOT
HETATM    1  O1  UNK     1      18.774  -0.151  32.927  1.00  0.00    -0.307 OA
HETATM    2  O3  UNK     1      21.354  -3.249  32.346  1.00  0.00    -0.287 OA
HETATM    3  C1  UNK     1      19.962  -2.062  33.841  1.00  0.00     0.048 A 
HETATM    4  C2  UNK     1      19.086  -0.985  33.971  1.00  0.00     0.090 A 
HETATM    5  C3  UNK     1      20.242  -2.879  34.938  1.00  0.00     0.025 A 
HETATM    6  C4  UNK     1      19.362  -0.386  31.694  1.00  0.00     0.113 A 
HETATM    7  C5  UNK     1      19.640  -2.611  36.168  1.00  0.00    -0.061 A 
HETATM    8  C6  UNK     1      20.580  -2.321  32.532  1.00  0.00     0.187 A 
HETATM    9  C7  UNK     1      18.485  -0.719  35.201  1.00  0.00     0.039 A 
HETATM   10  C8  UNK     1      20.214  -1.392  31.443  1.00  0.00     0.095 A 
HETATM   11  C9  UNK     1      18.763  -1.533  36.299  1.00  0.00     0.009 A 
HETATM   12  C11 UNK     1      19.935  -3.477  37.346  1.00  0.00     0.048 C 
ENDROOT
BRANCH   6  13
HETATM   13  C10 UNK     1      18.953   0.566  30.642  1.00  0.00     0.108 A 
HETATM   14  O2  UNK     1      18.253   1.706  30.913  1.00  0.00    -0.320 OA
HETATM   15  C14 UNK     1      18.049   2.341  29.729  1.00  0.00     0.142 A 
HETATM   16  C13 UNK     1      18.607   1.626  28.696  1.00  0.00     0.027 A 
HETATM   17  C12 UNK     1      19.191   0.479  29.282  1.00  0.00     0.042 A 
ENDBRANCH   6  13
TORSDOF 1
ENDMDL
MODEL 8
REMARK VINA RESULT:      -7.1      5.004      9.190
REMARK  1 active torsions:
REMARK  status: ('A' for Active; 'I' for Inactive)
REMARK    1  A    between atoms: C10_13  and  C4_7 
ROOT
HETATM    1  O1  UNK     1      16.644   9.208  34.754  1.00  0.00    -0.307 OA
HETATM    2  O3  UNK     1      15.901   8.328  30.847  1.00  0.00    -0.287 OA
HETATM    3  C1  UNK     1      17.326   8.080  32.714  1.00  0.00     0.048 A 
HETATM    4  C2  UNK     1      17.519   8.418  34.053  1.00  0.00     0.090 A 
HETATM    5  C3  UNK     1      18.251   7.271  32.050  1.00  0.00     0.025 A 
HETATM    6  C4  UNK     1      15.524   9.696  34.099  1.00  0.00     0.113 A 
HETATM    7  C5  UNK     1      19.372   6.803  32.736  1.00  0.00    -0.061 A 
HETATM    8  C6  UNK     1      16.134   8.588  32.018  1.00  0.00     0.187 A 
HETATM    9  C7  UNK     1      18.641   7.949  34.736  1.00  0.00     0.039 A 
HETATM   10  C8  UNK     1      15.225   9.436  32.816  1.00  0.00     0.095 A 
HETATM   11  C9  UNK     1      19.567   7.140  34.076  1.00  0.00     0.009 A 
HETATM   12  C11 UNK     1      20.366   5.939  32.035  1.00  0.00     0.048 C 
ENDROOT
BRANCH   6  13
HETATM   13  C10 UNK     1      14.648  10.529  34.946  1.00  0.00     0.108 A 
HETATM   14  O2  UNK     1      14.806  10.624  36.299  1.00  0.00    -0.320 OA
HETATM   15  C14 UNK     1      13.841  11.465  36.756  1.00  0.00     0.142 A 
HETATM   16  C13 UNK     1      13.061  11.915  35.718  1.00  0.00     0.027 A 
HETATM   17  C12 UNK     1      13.579  11.312  34.547  1.00  0.00     0.042 A 
ENDBRANCH   6  13
TORSDOF 1
ENDMDL
MODEL 9
REMARK VINA RESULT:      -7.1      4.166      6.201
REMARK  1 active torsions:
REMARK  status: ('A' for Active; 'I' for Inactive)
REMARK    1  A    between atoms: C10_13  and  C4_7 
ROOT
HETATM    1  O1  UNK     1      17.526   8.567  32.796  1.00  0.00    -0.307 OA
HETATM    2  O3  UNK     1      13.725   7.112  32.644  1.00  0.00    -0.287 OA
HETATM    3  C1  UNK     1      15.186   8.808  33.399  1.00  0.00     0.048 A 
HETATM    4  C2  UNK     1      16.508   9.250  33.412  1.00  0.00     0.090 A 
HETATM    5  C3  UNK     1      14.189   9.545  34.043  1.00  0.00     0.025 A 
HETATM    6  C4  UNK     1      17.226   7.383  32.141  1.00  0.00     0.113 A 
HETATM    7  C5  UNK     1      14.525  10.729  34.700  1.00  0.00    -0.061 A 
HETATM    8  C6  UNK     1      14.862   7.557  32.697  1.00  0.00     0.187 A 
HETATM    9  C7  UNK     1      16.842  10.434  34.069  1.00  0.00     0.039 A 
HETATM   10  C8  UNK     1      15.994   6.858  32.054  1.00  0.00     0.095 A 
HETATM   11  C9  UNK     1      15.848  11.173  34.713  1.00  0.00     0.009 A 
HETATM   12  C11 UNK     1      13.468  11.523  35.391  1.00  0.00     0.048 C 
ENDROOT
BRANCH   6  13
HETATM   13  C10 UNK     1      18.393   6.734  31.510  1.00  0.00     0.108 A 
HETATM   14  O2  UNK     1      18.413   6.374  30.193  1.00  0.00    -0.320 OA
HETATM   15  C14 UNK     1      19.626   5.812  29.951  1.00  0.00     0.142 A 
HETATM   16  C13 UNK     1      20.391   5.802  31.093  1.00  0.00     0.027 A 
HETATM   17  C12 UNK     1      19.597   6.396  32.103  1.00  0.00     0.042 A 
ENDBRANCH   6  13
TORSDOF 1
ENDMDL
MODEL 10
REMARK VINA RESULT:      -6.9     22.068     23.816
REMARK  1 active torsions:
REMARK  status: ('A' for Active; 'I' for Inactive)
REMARK    1  A    between atoms: C10_13  and  C4_7 
ROOT
HETATM    1  O1  UNK     1      12.748   6.346   8.348  1.00  0.00    -0.307 OA
HETATM    2  O3  UNK     1      13.480  10.096   9.760  1.00  0.00    -0.287 OA
HETATM    3  C1  UNK     1      14.274   7.896   9.428  1.00  0.00     0.048 A 
HETATM    4  C2  UNK     1      13.959   6.635   8.924  1.00  0.00     0.090 A 
HETATM    5  C3  UNK     1      15.525   8.133  10.003  1.00  0.00     0.025 A 
HETATM    6  C4  UNK     1      11.795   7.351   8.273  1.00  0.00     0.113 A 
HETATM    7  C5  UNK     1      16.458   7.099  10.071  1.00  0.00    -0.061 A 
HETATM    8  C6  UNK     1      13.270   8.967   9.341  1.00  0.00     0.187 A 
HETATM    9  C7  UNK     1      14.894   5.602   8.993  1.00  0.00     0.039 A 
HETATM   10  C8  UNK     1      11.982   8.604   8.716  1.00  0.00     0.095 A 
HETATM   11  C9  UNK     1      16.144   5.836   9.567  1.00  0.00     0.009 A 
HETATM   12  C11 UNK     1      17.796   7.343  10.685  1.00  0.00     0.048 C 
ENDROOT
BRANCH   6  13
HETATM   13  C10 UNK     1      10.533   6.934   7.631  1.00  0.00     0.108 A 
HETATM   14  O2  UNK     1       9.327   6.992   8.270  1.00  0.00    -0.320 OA
HETATM   15  C14 UNK     1       8.390   6.539   7.397  1.00  0.00     0.142 A 
HETATM   16  C13 UNK     1       8.972   6.189   6.202  1.00  0.00     0.027 A 
HETATM   17  C12 UNK     1      10.356   6.442   6.350  1.00  0.00     0.042 A 
ENDBRANCH   6  13
TORSDOF 1
ENDMDL
