MODEL 1
REMARK VINA RESULT:      -8.8      0.000      0.000
REMARK  2 active torsions:
REMARK  status: ('A' for Active; 'I' for Inactive)
REMARK    1  A    between atoms: C4_8  and  N1_3 
REMARK    2  A    between atoms: C9_13  and  N2_4 
ROOT
HETATM    1  O1  UNK     1      17.082   8.935  34.561  1.00  0.00    -0.275 OA
HETATM    2  O2  UNK     1      15.411  10.211  35.469  1.00  0.00    -0.260 OA
HETATM    3  C1  UNK     1      16.492   7.075  33.105  1.00  0.00     0.000 A 
HETATM    4  C2  UNK     1      17.458   7.850  33.743  1.00  0.00     0.089 A 
HETATM    5  C3  UNK     1      16.904   6.009  32.302  1.00  0.00     0.047 A 
HETATM    6  C4  UNK     1      18.267   5.735  32.152  1.00  0.00     0.080 A 
HETATM    7  C5  UNK     1      18.819   7.587  33.601  1.00  0.00     0.040 A 
HETATM    8  C6  UNK     1      19.221   6.522  32.800  1.00  0.00     0.036 A 
HETATM    9  C7  UNK     1      15.091   7.405  33.297  1.00  0.00     0.020 A 
HETATM   10  C10 UNK     1      14.743   8.435  34.074  1.00  0.00     0.083 A 
HETATM   11  C15 UNK     1      15.746   9.269  34.759  1.00  0.00     0.288 A 
ENDROOT
BRANCH   6  12
HETATM   12  N1  UNK     1      18.676   4.665  31.347  1.00  0.00    -0.150 NA
HETATM   13  N2  UNK     1      17.957   3.663  31.571  1.00  0.00    -0.150 NA
BRANCH  13  14
HETATM   14  C9  UNK     1      18.367   2.588  30.762  1.00  0.00     0.079 A 
HETATM   15  C13 UNK     1      17.959   2.531  29.433  1.00  0.00     0.034 A 
HETATM   16  C11 UNK     1      18.365   1.465  28.630  1.00  0.00     0.009 A 
HETATM   17  C8  UNK     1      19.175   0.461  29.160  1.00  0.00    -0.062 A 
HETATM   18  C12 UNK     1      19.580   0.524  30.494  1.00  0.00     0.009 A 
HETATM   19  C16 UNK     1      19.610  -0.678  28.302  1.00  0.00     0.048 C 
HETATM   20  C14 UNK     1      19.174   1.590  31.297  1.00  0.00     0.034 A 
ENDBRANCH  13  14
ENDBRANCH   6  12
TORSDOF 2
ENDMDL
MODEL 2
REMARK VINA RESULT:      -8.4      1.591      2.313
REMARK  2 active torsions:
REMARK  status: ('A' for Active; 'I' for Inactive)
REMARK    1  A    between atoms: C4_8  and  N1_3 
REMARK    2  A    between atoms: C9_13  and  N2_4 
ROOT
HETATM    1  O1  UNK     1      17.131   8.317  31.891  1.00  0.00    -0.275 OA
HETATM    2  O2  UNK     1      16.052   9.961  33.064  1.00  0.00    -0.260 OA
HETATM    3  C1  UNK     1      17.369   6.110  32.892  1.00  0.00     0.000 A 
HETATM    4  C2  UNK     1      17.587   6.984  31.830  1.00  0.00     0.089 A 
HETATM    5  C3  UNK     1      17.836   4.798  32.795  1.00  0.00     0.047 A 
HETATM    6  C4  UNK     1      18.511   4.382  31.643  1.00  0.00     0.080 A 
HETATM    7  C5  UNK     1      18.258   6.582  30.677  1.00  0.00     0.040 A 
HETATM    8  C6  UNK     1      18.722   5.272  30.587  1.00  0.00     0.036 A 
HETATM    9  C7  UNK     1      16.662   6.597  34.065  1.00  0.00     0.020 A 
HETATM   10  C10 UNK     1      16.233   7.861  34.115  1.00  0.00     0.083 A 
HETATM   11  C15 UNK     1      16.452   8.803  33.003  1.00  0.00     0.288 A 
ENDROOT
BRANCH   6  12
HETATM   12  N1  UNK     1      18.978   3.066  31.549  1.00  0.00    -0.150 NA
HETATM   13  N2  UNK     1      18.744   2.610  30.405  1.00  0.00    -0.150 NA
BRANCH  13  14
HETATM   14  C9  UNK     1      19.214   1.289  30.309  1.00  0.00     0.079 A 
HETATM   15  C13 UNK     1      19.306   0.504  31.454  1.00  0.00     0.034 A 
HETATM   16  C11 UNK     1      19.773  -0.807  31.359  1.00  0.00     0.009 A 
HETATM   17  C8  UNK     1      20.145  -1.327  30.119  1.00  0.00    -0.062 A 
HETATM   18  C12 UNK     1      20.051  -0.535  28.975  1.00  0.00     0.009 A 
HETATM   19  C16 UNK     1      20.644  -2.729  30.018  1.00  0.00     0.048 C 
HETATM   20  C14 UNK     1      19.585   0.776  29.070  1.00  0.00     0.034 A 
ENDBRANCH  13  14
ENDBRANCH   6  12
TORSDOF 2
ENDMDL
MODEL 3
REMARK VINA RESULT:      -8.4     15.286     19.423
REMARK  2 active torsions:
REMARK  status: ('A' for Active; 'I' for Inactive)
REMARK    1  A    between atoms: C4_8  and  N1_3 
REMARK    2  A    between atoms: C9_13  and  N2_4 
ROOT
HETATM    1  O1  UNK     1      18.648  -4.091  11.862  1.00  0.00    -0.275 OA
HETATM    2  O2  UNK     1      18.961  -4.101   9.593  1.00  0.00    -0.260 OA
HETATM    3  C1  UNK     1      19.332  -2.136  13.142  1.00  0.00     0.000 A 
HETATM    4  C2  UNK     1      18.776  -3.412  13.091  1.00  0.00     0.089 A 
HETATM    5  C3  UNK     1      19.441  -1.496  14.378  1.00  0.00     0.047 A 
HETATM    6  C4  UNK     1      18.996  -2.137  15.538  1.00  0.00     0.080 A 
HETATM    7  C5  UNK     1      18.329  -4.062  14.239  1.00  0.00     0.040 A 
HETATM    8  C6  UNK     1      18.442  -3.418  15.468  1.00  0.00     0.036 A 
HETATM    9  C7  UNK     1      19.778  -1.517  11.905  1.00  0.00     0.020 A 
HETATM   10  C10 UNK     1      19.653  -2.167  10.745  1.00  0.00     0.083 A 
HETATM   11  C15 UNK     1      19.069  -3.517  10.666  1.00  0.00     0.288 A 
ENDROOT
BRANCH   6  12
HETATM   12  N1  UNK     1      19.108  -1.493  16.775  1.00  0.00    -0.150 NA
HETATM   13  N2  UNK     1      18.969  -0.256  16.627  1.00  0.00    -0.150 NA
BRANCH  13  14
HETATM   14  C9  UNK     1      19.080   0.392  17.869  1.00  0.00     0.079 A 
HETATM   15  C13 UNK     1      19.198  -0.362  19.033  1.00  0.00     0.034 A 
HETATM   16  C11 UNK     1      19.308   0.280  20.266  1.00  0.00     0.009 A 
HETATM   17  C8  UNK     1      19.297   1.674  20.330  1.00  0.00    -0.062 A 
HETATM   18  C12 UNK     1      19.178   2.424  19.160  1.00  0.00     0.009 A 
HETATM   19  C16 UNK     1      19.415   2.361  21.648  1.00  0.00     0.048 C 
HETATM   20  C14 UNK     1      19.068   1.782  17.927  1.00  0.00     0.034 A 
ENDBRANCH  13  14
ENDBRANCH   6  12
TORSDOF 2
ENDMDL
MODEL 4
REMARK VINA RESULT:      -8.3      3.969      8.418
REMARK  2 active torsions:
REMARK  status: ('A' for Active; 'I' for Inactive)
REMARK    1  A    between atoms: C4_8  and  N1_3 
REMARK    2  A    between atoms: C9_13  and  N2_4 
ROOT
HETATM    1  O1  UNK     1      19.762  -1.152  31.484  1.00  0.00    -0.275 OA
HETATM    2  O2  UNK     1      20.705  -2.778  30.174  1.00  0.00    -0.260 OA
HETATM    3  C1  UNK     1      19.252   1.014  30.497  1.00  0.00     0.000 A 
HETATM    4  C2  UNK     1      19.259   0.159  31.597  1.00  0.00     0.089 A 
HETATM    5  C3  UNK     1      18.745   2.306  30.648  1.00  0.00     0.047 A 
HETATM    6  C4  UNK     1      18.256   2.723  31.891  1.00  0.00     0.080 A 
HETATM    7  C5  UNK     1      18.775   0.562  32.840  1.00  0.00     0.040 A 
HETATM    8  C6  UNK     1      18.272   1.853  32.983  1.00  0.00     0.036 A 
HETATM    9  C7  UNK     1      19.773   0.528  29.230  1.00  0.00     0.020 A 
HETATM   10  C10 UNK     1      20.247  -0.716  29.131  1.00  0.00     0.083 A 
HETATM   11  C15 UNK     1      20.265  -1.638  30.281  1.00  0.00     0.288 A 
ENDROOT
BRANCH   6  12
HETATM   12  N1  UNK     1      17.749   4.019  32.039  1.00  0.00    -0.150 NA
HETATM   13  N2  UNK     1      18.257   4.563  33.047  1.00  0.00    -0.150 NA
BRANCH  13  14
HETATM   14  C9  UNK     1      17.750   5.866  33.197  1.00  0.00     0.079 A 
HETATM   15  C13 UNK     1      18.368   6.751  34.075  1.00  0.00     0.034 A 
HETATM   16  C11 UNK     1      17.865   8.043  34.224  1.00  0.00     0.009 A 
HETATM   17  C8  UNK     1      16.746   8.444  33.494  1.00  0.00    -0.062 A 
HETATM   18  C12 UNK     1      16.130   7.552  32.616  1.00  0.00     0.009 A 
HETATM   19  C16 UNK     1      16.208   9.826  33.652  1.00  0.00     0.048 C 
HETATM   20  C14 UNK     1      16.633   6.260  32.467  1.00  0.00     0.034 A 
ENDBRANCH  13  14
ENDBRANCH   6  12
TORSDOF 2
ENDMDL
MODEL 5
REMARK VINA RESULT:      -8.1      6.971      9.779
REMARK  2 active torsions:
REMARK  status: ('A' for Active; 'I' for Inactive)
REMARK    1  A    between atoms: C4_8  and  N1_3 
REMARK    2  A    between atoms: C9_13  and  N2_4 
ROOT
HETATM    1  O1  UNK     1      18.748   0.750  30.812  1.00  0.00    -0.275 OA
HETATM    2  O2  UNK     1      18.821   1.773  28.764  1.00  0.00    -0.260 OA
HETATM    3  C1  UNK     1      20.167  -1.186  31.218  1.00  0.00     0.000 A 
HETATM    4  C2  UNK     1      19.213  -0.274  31.662  1.00  0.00     0.089 A 
HETATM    5  C3  UNK     1      20.602  -2.186  32.090  1.00  0.00     0.047 A 
HETATM    6  C4  UNK     1      20.080  -2.258  33.386  1.00  0.00     0.080 A 
HETATM    7  C5  UNK     1      18.685  -0.335  32.950  1.00  0.00     0.040 A 
HETATM    8  C6  UNK     1      19.124  -1.335  33.814  1.00  0.00     0.036 A 
HETATM    9  C7  UNK     1      20.675  -1.064  29.862  1.00  0.00     0.020 A 
HETATM   10  C10 UNK     1      20.230  -0.092  29.063  1.00  0.00     0.083 A 
HETATM   11  C15 UNK     1      19.221   0.885  29.510  1.00  0.00     0.288 A 
ENDROOT
BRANCH   6  12
HETATM   12  N1  UNK     1      20.519  -3.262  34.257  1.00  0.00    -0.150 NA
HETATM   13  N2  UNK     1      19.748  -3.339  35.242  1.00  0.00    -0.150 NA
BRANCH  13  14
HETATM   14  C9  UNK     1      20.186  -4.348  36.117  1.00  0.00     0.079 A 
HETATM   15  C13 UNK     1      19.941  -5.683  35.810  1.00  0.00     0.034 A 
HETATM   16  C11 UNK     1      20.376  -6.685  36.678  1.00  0.00     0.009 A 
HETATM   17  C8  UNK     1      21.054  -6.346  37.850  1.00  0.00    -0.062 A 
HETATM   18  C12 UNK     1      21.296  -5.006  38.152  1.00  0.00     0.009 A 
HETATM   19  C16 UNK     1      21.519  -7.417  38.777  1.00  0.00     0.048 C 
HETATM   20  C14 UNK     1      20.861  -4.005  37.284  1.00  0.00     0.034 A 
ENDBRANCH  13  14
ENDBRANCH   6  12
TORSDOF 2
ENDMDL
MODEL 6
REMARK VINA RESULT:      -7.9      8.003     10.575
REMARK  2 active torsions:
REMARK  status: ('A' for Active; 'I' for Inactive)
REMARK    1  A    between atoms: C4_8  and  N1_3 
REMARK    2  A    between atoms: C9_13  and  N2_4 
ROOT
HETATM    1  O1  UNK     1      18.647   0.091  32.316  1.00  0.00    -0.275 OA
HETATM    2  O2  UNK     1      18.691   0.932  30.186  1.00  0.00    -0.260 OA
HETATM    3  C1  UNK     1      20.083  -1.795  32.873  1.00  0.00     0.000 A 
HETATM    4  C2  UNK     1      19.128  -0.852  33.246  1.00  0.00     0.089 A 
HETATM    5  C3  UNK     1      20.535  -2.712  33.823  1.00  0.00     0.047 A 
HETATM    6  C4  UNK     1      20.027  -2.675  35.126  1.00  0.00     0.080 A 
HETATM    7  C5  UNK     1      18.614  -0.804  34.541  1.00  0.00     0.040 A 
HETATM    8  C6  UNK     1      19.069  -1.723  35.483  1.00  0.00     0.036 A 
HETATM    9  C7  UNK     1      20.575  -1.788  31.506  1.00  0.00     0.020 A 
HETATM   10  C10 UNK     1      20.115  -0.891  30.630  1.00  0.00     0.083 A 
HETATM   11  C15 UNK     1      19.105   0.115  31.002  1.00  0.00     0.288 A 
ENDROOT
BRANCH   6  12
HETATM   12  N1  UNK     1      20.482  -3.596  36.076  1.00  0.00    -0.150 NA
HETATM   13  N2  UNK     1      20.105  -4.751  35.766  1.00  0.00    -0.150 NA
BRANCH  13  14
HETATM   14  C9  UNK     1      20.563  -5.677  36.719  1.00  0.00     0.079 A 
HETATM   15  C13 UNK     1      20.336  -7.037  36.524  1.00  0.00     0.034 A 
HETATM   16  C11 UNK     1      20.790  -7.957  37.469  1.00  0.00     0.009 A 
HETATM   17  C8  UNK     1      21.467  -7.513  38.605  1.00  0.00    -0.062 A 
HETATM   18  C12 UNK     1      21.690  -6.149  38.795  1.00  0.00     0.009 A 
HETATM   19  C16 UNK     1      21.952  -8.496  39.616  1.00  0.00     0.048 C 
HETATM   20  C14 UNK     1      21.236  -5.229  37.850  1.00  0.00     0.034 A 
ENDBRANCH  13  14
ENDBRANCH   6  12
TORSDOF 2
ENDMDL
MODEL 7
REMARK VINA RESULT:      -7.9      1.361      2.373
REMARK  2 active torsions:
REMARK  status: ('A' for Active; 'I' for Inactive)
REMARK    1  A    between atoms: C4_8  and  N1_3 
REMARK    2  A    between atoms: C9_13  and  N2_4 
ROOT
HETATM    1  O1  UNK     1      17.037   9.068  33.192  1.00  0.00    -0.275 OA
HETATM    2  O2  UNK     1      17.380  11.111  34.169  1.00  0.00    -0.260 OA
HETATM    3  C1  UNK     1      18.803   7.396  33.296  1.00  0.00     0.000 A 
HETATM    4  C2  UNK     1      17.528   7.782  32.890  1.00  0.00     0.089 A 
HETATM    5  C3  UNK     1      19.253   6.113  32.977  1.00  0.00     0.047 A 
HETATM    6  C4  UNK     1      18.428   5.242  32.260  1.00  0.00     0.080 A 
HETATM    7  C5  UNK     1      16.695   6.923  32.175  1.00  0.00     0.040 A 
HETATM    8  C6  UNK     1      17.152   5.646  31.860  1.00  0.00     0.036 A 
HETATM    9  C7  UNK     1      19.618   8.343  34.037  1.00  0.00     0.020 A 
HETATM   10  C10 UNK     1      19.146   9.559  34.321  1.00  0.00     0.083 A 
HETATM   11  C15 UNK     1      17.800   9.991  33.902  1.00  0.00     0.288 A 
ENDROOT
BRANCH   6  12
HETATM   12  N1  UNK     1      18.883   3.957  31.941  1.00  0.00    -0.150 NA
HETATM   13  N2  UNK     1      18.302   3.541  30.912  1.00  0.00    -0.150 NA
BRANCH  13  14
HETATM   14  C9  UNK     1      18.760   2.251  30.590  1.00  0.00     0.079 A 
HETATM   15  C13 UNK     1      19.112   1.370  31.608  1.00  0.00     0.034 A 
HETATM   16  C11 UNK     1      19.566   0.090  31.290  1.00  0.00     0.009 A 
HETATM   17  C8  UNK     1      19.666  -0.302  29.955  1.00  0.00    -0.062 A 
HETATM   18  C12 UNK     1      19.312   0.585  28.939  1.00  0.00     0.009 A 
HETATM   19  C16 UNK     1      20.151  -1.671  29.615  1.00  0.00     0.048 C 
HETATM   20  C14 UNK     1      18.858   1.865  29.258  1.00  0.00     0.034 A 
ENDBRANCH  13  14
ENDBRANCH   6  12
TORSDOF 2
ENDMDL
MODEL 8
REMARK VINA RESULT:      -7.9     16.084     17.242
REMARK  2 active torsions:
REMARK  status: ('A' for Active; 'I' for Inactive)
REMARK    1  A    between atoms: C4_8  and  N1_3 
REMARK    2  A    between atoms: C9_13  and  N2_4 
ROOT
HETATM    1  O1  UNK     1      30.686  -6.582  38.572  1.00  0.00    -0.275 OA
HETATM    2  O2  UNK     1      32.249  -4.925  38.811  1.00  0.00    -0.260 OA
HETATM    3  C1  UNK     1      28.324  -5.991  38.583  1.00  0.00     0.000 A 
HETATM    4  C2  UNK     1      29.328  -6.952  38.493  1.00  0.00     0.089 A 
HETATM    5  C3  UNK     1      26.991  -6.397  38.500  1.00  0.00     0.047 A 
HETATM    6  C4  UNK     1      26.683  -7.750  38.331  1.00  0.00     0.080 A 
HETATM    7  C5  UNK     1      29.035  -8.304  38.325  1.00  0.00     0.040 A 
HETATM    8  C6  UNK     1      27.702  -8.701  38.243  1.00  0.00     0.036 A 
HETATM    9  C7  UNK     1      28.702  -4.599  38.760  1.00  0.00     0.020 A 
HETATM   10  C10 UNK     1      29.991  -4.256  38.833  1.00  0.00     0.083 A 
HETATM   11  C15 UNK     1      31.070  -5.255  38.741  1.00  0.00     0.288 A 
ENDROOT
BRANCH   6  12
HETATM   12  N1  UNK     1      25.345  -8.154  38.248  1.00  0.00    -0.150 NA
HETATM   13  N2  UNK     1      24.603  -7.280  38.755  1.00  0.00    -0.150 NA
BRANCH  13  14
HETATM   14  C9  UNK     1      23.259  -7.684  38.672  1.00  0.00     0.079 A 
HETATM   15  C13 UNK     1      22.842  -8.478  37.608  1.00  0.00     0.034 A 
HETATM   16  C11 UNK     1      21.509  -8.879  37.525  1.00  0.00     0.009 A 
HETATM   17  C8  UNK     1      20.599  -8.483  38.505  1.00  0.00    -0.062 A 
HETATM   18  C12 UNK     1      21.023  -7.687  39.568  1.00  0.00     0.009 A 
HETATM   19  C16 UNK     1      19.174  -8.913  38.417  1.00  0.00     0.048 C 
HETATM   20  C14 UNK     1      22.356  -7.285  39.652  1.00  0.00     0.034 A 
ENDBRANCH  13  14
ENDBRANCH   6  12
TORSDOF 2
ENDMDL
MODEL 9
REMARK VINA RESULT:      -7.9     13.470     15.813
REMARK  2 active torsions:
REMARK  status: ('A' for Active; 'I' for Inactive)
REMARK    1  A    between atoms: C4_8  and  N1_3 
REMARK    2  A    between atoms: C9_13  and  N2_4 
ROOT
HETATM    1  O1  UNK     1      18.432  -6.814  37.764  1.00  0.00    -0.275 OA
HETATM    2  O2  UNK     1      16.675  -6.529  36.323  1.00  0.00    -0.260 OA
HETATM    3  C1  UNK     1      20.621  -7.383  36.862  1.00  0.00     0.000 A 
HETATM    4  C2  UNK     1      19.798  -7.109  37.952  1.00  0.00     0.089 A 
HETATM    5  C3  UNK     1      21.968  -7.670  37.089  1.00  0.00     0.047 A 
HETATM    6  C4  UNK     1      22.469  -7.681  38.395  1.00  0.00     0.080 A 
HETATM    7  C5  UNK     1      20.284  -7.117  39.258  1.00  0.00     0.040 A 
HETATM    8  C6  UNK     1      21.629  -7.405  39.476  1.00  0.00     0.036 A 
HETATM    9  C7  UNK     1      20.047  -7.358  35.528  1.00  0.00     0.020 A 
HETATM   10  C10 UNK     1      18.753  -7.077  35.358  1.00  0.00     0.083 A 
HETATM   11  C15 UNK     1      17.862  -6.785  36.495  1.00  0.00     0.288 A 
ENDROOT
BRANCH   6  12
HETATM   12  N1  UNK     1      23.820  -7.970  38.619  1.00  0.00    -0.150 NA
HETATM   13  N2  UNK     1      24.348  -8.390  37.562  1.00  0.00    -0.150 NA
BRANCH  13  14
HETATM   14  C9  UNK     1      25.706  -8.679  37.786  1.00  0.00     0.079 A 
HETATM   15  C13 UNK     1      26.266  -8.438  39.037  1.00  0.00     0.034 A 
HETATM   16  C11 UNK     1      27.612  -8.726  39.260  1.00  0.00     0.009 A 
HETATM   17  C8  UNK     1      28.393  -9.251  38.230  1.00  0.00    -0.062 A 
HETATM   18  C12 UNK     1      27.826  -9.490  36.978  1.00  0.00     0.009 A 
HETATM   19  C16 UNK     1      29.832  -9.559  38.468  1.00  0.00     0.048 C 
HETATM   20  C14 UNK     1      26.479  -9.203  36.755  1.00  0.00     0.034 A 
ENDBRANCH  13  14
ENDBRANCH   6  12
TORSDOF 2
ENDMDL
MODEL 10
REMARK VINA RESULT:      -7.8      8.850     10.738
REMARK  2 active torsions:
REMARK  status: ('A' for Active; 'I' for Inactive)
REMARK    1  A    between atoms: C4_8  and  N1_3 
REMARK    2  A    between atoms: C9_13  and  N2_4 
ROOT
HETATM    1  O1  UNK     1      18.696   0.057  33.890  1.00  0.00    -0.275 OA
HETATM    2  O2  UNK     1      17.544   1.994  33.482  1.00  0.00    -0.260 OA
HETATM    3  C1  UNK     1      18.379  -1.083  36.017  1.00  0.00     0.000 A 
HETATM    4  C2  UNK     1      18.986  -1.009  34.766  1.00  0.00     0.089 A 
HETATM    5  C3  UNK     1      18.692  -2.154  36.857  1.00  0.00     0.047 A 
HETATM    6  C4  UNK     1      19.602  -3.128  36.436  1.00  0.00     0.080 A 
HETATM    7  C5  UNK     1      19.894  -1.973  34.334  1.00  0.00     0.040 A 
HETATM    8  C6  UNK     1      20.201  -3.038  35.177  1.00  0.00     0.036 A 
HETATM    9  C7  UNK     1      17.442  -0.042  36.404  1.00  0.00     0.020 A 
HETATM   10  C10 UNK     1      17.173   0.964  35.568  1.00  0.00     0.083 A 
HETATM   11  C15 UNK     1      17.802   1.064  34.239  1.00  0.00     0.288 A 
ENDROOT
BRANCH   6  12
HETATM   12  N1  UNK     1      19.914  -4.200  37.280  1.00  0.00    -0.150 NA
HETATM   13  N2  UNK     1      21.131  -4.481  37.183  1.00  0.00    -0.150 NA
BRANCH  13  14
HETATM   14  C9  UNK     1      21.446  -5.556  38.031  1.00  0.00     0.079 A 
HETATM   15  C13 UNK     1      22.742  -5.695  38.519  1.00  0.00     0.034 A 
HETATM   16  C11 UNK     1      23.055  -6.761  39.362  1.00  0.00     0.009 A 
HETATM   17  C8  UNK     1      22.070  -7.686  39.711  1.00  0.00    -0.062 A 
HETATM   18  C12 UNK     1      20.773  -7.542  39.219  1.00  0.00     0.009 A 
HETATM   19  C16 UNK     1      22.404  -8.826  40.612  1.00  0.00     0.048 C 
HETATM   20  C14 UNK     1      20.460  -6.475  38.376  1.00  0.00     0.034 A 
ENDBRANCH  13  14
ENDBRANCH   6  12
TORSDOF 2
ENDMDL
