MODEL 1
REMARK VINA RESULT:      -9.6      0.000      0.000
REMARK  4 active torsions:
REMARK  status: ('A' for Active; 'I' for Inactive)
REMARK    1  A    between atoms: C1_8  and  N1_5 
REMARK       I    between atoms: C10_17  and  N2_6 
REMARK    2  A    between atoms: C3_10  and  N2_6 
REMARK    3  A    between atoms: C1_8  and  C2_9 
REMARK    4  A    between atoms: C10_17  and  C6_13 
ROOT
HETATM    1  O2  UNK     1      17.587   3.415  32.685  1.00  0.00    -0.267 OA
HETATM    2  N2  UNK     1      18.559   4.852  31.091  1.00  0.00    -0.320 N 
HETATM    3  C10 UNK     1      18.205   3.630  31.644  1.00  0.00     0.262 C 
HETATM    4  H4  UNK     1      19.058   4.873  30.205  1.00  0.00     0.169 HD
ENDROOT
BRANCH   2   5
HETATM    5  C3  UNK     1      18.285   6.126  31.609  1.00  0.00     0.071 A 
HETATM    6  C4  UNK     1      18.847   6.666  32.719  1.00  0.00     0.143 A 
HETATM    7  N1  UNK     1      18.284   7.904  32.830  1.00  0.00    -0.275 N 
HETATM    8  N3  UNK     1      17.399   8.186  31.860  1.00  0.00    -0.183 NA
HETATM    9  C9  UNK     1      17.407   7.081  31.110  1.00  0.00     0.169 A 
BRANCH   7  10
HETATM   10  C1  UNK     1      18.557   8.879  33.858  1.00  0.00     0.189 C 
BRANCH  10  11
HETATM   11  C2  UNK     1      17.318   9.650  34.225  1.00  0.00    -0.038 A 
HETATM   12  C11 UNK     1      17.299  11.029  34.068  1.00  0.00     0.010 A 
HETATM   13  C16 UNK     1      16.150  11.744  34.409  1.00  0.00     0.024 A 
HETATM   14  C20 UNK     1      15.032  11.072  34.903  1.00  0.00     0.034 A 
HETATM   15  C17 UNK     1      15.063   9.686  35.058  1.00  0.00     0.024 A 
HETATM   16 Cl1  UNK     1      13.615  11.953  35.322  1.00  0.00    -0.084 Cl
HETATM   17  C12 UNK     1      16.212   8.972  34.717  1.00  0.00     0.010 A 
ENDBRANCH  10  11
ENDBRANCH   7  10
ENDBRANCH   2   5
BRANCH   3  18
HETATM   18  C6  UNK     1      18.662   2.502  30.823  1.00  0.00     0.108 A 
HETATM   19  C13 UNK     1      18.635   2.545  29.344  1.00  0.00     0.304 A 
HETATM   20  O1  UNK     1      19.096   1.413  28.677  1.00  0.00    -0.274 OA
HETATM   21  O3  UNK     1      18.231   3.527  28.731  1.00  0.00    -0.259 OA
HETATM   22  C7  UNK     1      19.564   0.280  29.371  1.00  0.00     0.089 A 
HETATM   23  C15 UNK     1      20.004  -0.805  28.617  1.00  0.00     0.038 A 
HETATM   24  C5  UNK     1      19.580   0.261  30.762  1.00  0.00    -0.001 A 
HETATM   25  C19 UNK     1      20.473  -1.940  29.276  1.00  0.00     0.003 A 
HETATM   26  C18 UNK     1      20.497  -1.978  30.671  1.00  0.00     0.001 A 
HETATM   27  C14 UNK     1      20.051  -0.882  31.415  1.00  0.00     0.014 A 
HETATM   28  C8  UNK     1      19.106   1.429  31.488  1.00  0.00     0.037 A 
ENDBRANCH   3  18
TORSDOF 4
ENDMDL
MODEL 2
REMARK VINA RESULT:      -9.6      8.542     13.164
REMARK  4 active torsions:
REMARK  status: ('A' for Active; 'I' for Inactive)
REMARK    1  A    between atoms: C1_8  and  N1_5 
REMARK       I    between atoms: C10_17  and  N2_6 
REMARK    2  A    between atoms: C3_10  and  N2_6 
REMARK    3  A    between atoms: C1_8  and  C2_9 
REMARK    4  A    between atoms: C10_17  and  C6_13 
ROOT
HETATM    1  O2  UNK     1      18.666  -1.499  36.269  1.00  0.00    -0.267 OA
HETATM    2  N2  UNK     1      19.810  -3.261  35.203  1.00  0.00    -0.320 N 
HETATM    3  C10 UNK     1      19.193  -2.022  35.289  1.00  0.00     0.262 C 
HETATM    4  H4  UNK     1      20.223  -3.553  34.321  1.00  0.00     0.169 HD
ENDROOT
BRANCH   2   5
HETATM    5  C3  UNK     1      19.968  -4.201  36.231  1.00  0.00     0.071 A 
HETATM    6  C4  UNK     1      19.416  -5.440  36.262  1.00  0.00     0.143 A 
HETATM    7  N1  UNK     1      19.841  -5.984  37.438  1.00  0.00    -0.275 N 
HETATM    8  N3  UNK     1      20.631  -5.170  38.159  1.00  0.00    -0.183 NA
HETATM    9  C9  UNK     1      20.703  -4.070  37.403  1.00  0.00     0.169 A 
BRANCH   7  10
HETATM   10  C1  UNK     1      19.524  -7.300  37.937  1.00  0.00     0.189 C 
BRANCH  10  11
HETATM   11  C2  UNK     1      20.455  -8.340  37.375  1.00  0.00    -0.038 A 
HETATM   12  C11 UNK     1      21.812  -8.066  37.283  1.00  0.00     0.010 A 
HETATM   13  C16 UNK     1      22.675  -9.030  36.762  1.00  0.00     0.024 A 
HETATM   14  C20 UNK     1      22.172 -10.260  36.339  1.00  0.00     0.034 A 
HETATM   15  C17 UNK     1      20.805 -10.525  36.435  1.00  0.00     0.024 A 
HETATM   16 Cl1  UNK     1      23.236 -11.451  35.698  1.00  0.00    -0.084 Cl
HETATM   17  C12 UNK     1      19.943  -9.561  36.955  1.00  0.00     0.010 A 
ENDBRANCH  10  11
ENDBRANCH   7  10
ENDBRANCH   2   5
BRANCH   3  18
HETATM   18  C6  UNK     1      19.214  -1.307  34.006  1.00  0.00     0.108 A 
HETATM   19  C13 UNK     1      18.636   0.047  33.852  1.00  0.00     0.304 A 
HETATM   20  O1  UNK     1      18.718   0.621  32.587  1.00  0.00    -0.274 OA
HETATM   21  O3  UNK     1      18.112   0.639  34.790  1.00  0.00    -0.259 OA
HETATM   22  C7  UNK     1      19.319  -0.050  31.504  1.00  0.00     0.089 A 
HETATM   23  C15 UNK     1      19.353   0.607  30.275  1.00  0.00     0.038 A 
HETATM   24  C5  UNK     1      19.856  -1.322  31.670  1.00  0.00    -0.001 A 
HETATM   25  C19 UNK     1      19.941  -0.032  29.185  1.00  0.00     0.003 A 
HETATM   26  C18 UNK     1      20.485  -1.309  29.333  1.00  0.00     0.001 A 
HETATM   27  C14 UNK     1      20.443  -1.955  30.572  1.00  0.00     0.014 A 
HETATM   28  C8  UNK     1      19.787  -1.949  32.981  1.00  0.00     0.037 A 
ENDBRANCH   3  18
TORSDOF 4
ENDMDL
MODEL 3
REMARK VINA RESULT:      -9.4      3.764      9.602
REMARK  4 active torsions:
REMARK  status: ('A' for Active; 'I' for Inactive)
REMARK    1  A    between atoms: C1_8  and  N1_5 
REMARK       I    between atoms: C10_17  and  N2_6 
REMARK    2  A    between atoms: C3_10  and  N2_6 
REMARK    3  A    between atoms: C1_8  and  C2_9 
REMARK    4  A    between atoms: C10_17  and  C6_13 
ROOT
HETATM    1  O2  UNK     1      19.823   5.548  29.707  1.00  0.00    -0.267 OA
HETATM    2  N2  UNK     1      18.448   4.058  30.907  1.00  0.00    -0.320 N 
HETATM    3  C10 UNK     1      19.040   5.278  30.617  1.00  0.00     0.262 C 
HETATM    4  H4  UNK     1      17.799   3.992  31.687  1.00  0.00     0.169 HD
ENDROOT
BRANCH   2   5
HETATM    5  C3  UNK     1      18.617   2.849  30.217  1.00  0.00     0.071 A 
HETATM    6  C4  UNK     1      19.337   1.785  30.651  1.00  0.00     0.143 A 
HETATM    7  N1  UNK     1      19.216   0.853  29.663  1.00  0.00    -0.275 N 
HETATM    8  N3  UNK     1      18.464   1.257  28.625  1.00  0.00    -0.183 NA
HETATM    9  C9  UNK     1      18.098   2.492  28.978  1.00  0.00     0.169 A 
BRANCH   7  10
HETATM   10  C1  UNK     1      19.805  -0.464  29.651  1.00  0.00     0.189 C 
BRANCH  10  11
HETATM   11  C2  UNK     1      19.871  -1.048  31.036  1.00  0.00    -0.038 A 
HETATM   12  C11 UNK     1      18.932  -0.667  31.985  1.00  0.00     0.010 A 
HETATM   13  C16 UNK     1      18.993  -1.209  33.270  1.00  0.00     0.024 A 
HETATM   14  C20 UNK     1      19.992  -2.128  33.591  1.00  0.00     0.034 A 
HETATM   15  C17 UNK     1      20.931  -2.504  32.629  1.00  0.00     0.024 A 
HETATM   16 Cl1  UNK     1      20.068  -2.799  35.174  1.00  0.00    -0.084 Cl
HETATM   17  C12 UNK     1      20.869  -1.962  31.346  1.00  0.00     0.010 A 
ENDBRANCH  10  11
ENDBRANCH   7  10
ENDBRANCH   2   5
BRANCH   3  18
HETATM   18  C6  UNK     1      18.630   6.328  31.559  1.00  0.00     0.108 A 
HETATM   19  C13 UNK     1      19.499   6.768  32.672  1.00  0.00     0.304 A 
HETATM   20  O1  UNK     1      18.998   7.771  33.496  1.00  0.00    -0.274 OA
HETATM   21  O3  UNK     1      20.607   6.277  32.862  1.00  0.00    -0.259 OA
HETATM   22  C7  UNK     1      17.728   8.341  33.286  1.00  0.00     0.089 A 
HETATM   23  C15 UNK     1      17.313   9.340  34.165  1.00  0.00     0.038 A 
HETATM   24  C5  UNK     1      16.926   7.912  32.233  1.00  0.00    -0.001 A 
HETATM   25  C19 UNK     1      16.061   9.923  33.982  1.00  0.00     0.003 A 
HETATM   26  C18 UNK     1      15.242   9.506  32.931  1.00  0.00     0.001 A 
HETATM   27  C14 UNK     1      15.672   8.502  32.057  1.00  0.00     0.014 A 
HETATM   28  C8  UNK     1      17.422   6.866  31.353  1.00  0.00     0.037 A 
ENDBRANCH   3  18
TORSDOF 4
ENDMDL
MODEL 4
REMARK VINA RESULT:      -9.4      3.840      9.447
REMARK  4 active torsions:
REMARK  status: ('A' for Active; 'I' for Inactive)
REMARK    1  A    between atoms: C1_8  and  N1_5 
REMARK       I    between atoms: C10_17  and  N2_6 
REMARK    2  A    between atoms: C3_10  and  N2_6 
REMARK    3  A    between atoms: C1_8  and  C2_9 
REMARK    4  A    between atoms: C10_17  and  C6_13 
ROOT
HETATM    1  O2  UNK     1      17.893   3.416  33.150  1.00  0.00    -0.267 OA
HETATM    2  N2  UNK     1      18.438   4.082  30.957  1.00  0.00    -0.320 N 
HETATM    3  C10 UNK     1      18.114   4.269  32.292  1.00  0.00     0.262 C 
HETATM    4  H4  UNK     1      18.614   4.892  30.368  1.00  0.00     0.169 HD
ENDROOT
BRANCH   2   5
HETATM    5  C3  UNK     1      18.585   2.860  30.285  1.00  0.00     0.071 A 
HETATM    6  C4  UNK     1      19.380   1.833  30.677  1.00  0.00     0.143 A 
HETATM    7  N1  UNK     1      19.201   0.870  29.729  1.00  0.00    -0.275 N 
HETATM    8  N3  UNK     1      18.342   1.218  28.757  1.00  0.00    -0.183 NA
HETATM    9  C9  UNK     1      17.966   2.450  29.110  1.00  0.00     0.169 A 
BRANCH   7  10
HETATM   10  C1  UNK     1      19.833  -0.427  29.696  1.00  0.00     0.189 C 
BRANCH  10  11
HETATM   11  C2  UNK     1      19.894  -1.043  31.068  1.00  0.00    -0.038 A 
HETATM   12  C11 UNK     1      20.917  -1.929  31.375  1.00  0.00     0.010 A 
HETATM   13  C16 UNK     1      20.974  -2.500  32.647  1.00  0.00     0.024 A 
HETATM   14  C20 UNK     1      20.008  -2.176  33.599  1.00  0.00     0.034 A 
HETATM   15  C17 UNK     1      18.984  -1.283  33.280  1.00  0.00     0.024 A 
HETATM   16 Cl1  UNK     1      20.078  -2.878  35.169  1.00  0.00    -0.084 Cl
HETATM   17  C12 UNK     1      18.927  -0.714  32.008  1.00  0.00     0.010 A 
ENDBRANCH  10  11
ENDBRANCH   7  10
ENDBRANCH   2   5
BRANCH   3  18
HETATM   18  C6  UNK     1      18.046   5.693  32.648  1.00  0.00     0.108 A 
HETATM   19  C13 UNK     1      16.819   6.495  32.446  1.00  0.00     0.304 A 
HETATM   20  O1  UNK     1      16.879   7.833  32.824  1.00  0.00    -0.274 OA
HETATM   21  O3  UNK     1      15.796   6.009  31.973  1.00  0.00    -0.259 OA
HETATM   22  C7  UNK     1      18.047   8.401  33.369  1.00  0.00     0.089 A 
HETATM   23  C15 UNK     1      18.010   9.750  33.716  1.00  0.00     0.038 A 
HETATM   24  C5  UNK     1      19.190   7.628  33.550  1.00  0.00    -0.001 A 
HETATM   25  C19 UNK     1      19.151  10.339  34.258  1.00  0.00     0.003 A 
HETATM   26  C18 UNK     1      20.307   9.580  34.447  1.00  0.00     0.001 A 
HETATM   27  C14 UNK     1      20.329   8.227  34.093  1.00  0.00     0.014 A 
HETATM   28  C8  UNK     1      19.159   6.226  33.166  1.00  0.00     0.037 A 
ENDBRANCH   3  18
TORSDOF 4
ENDMDL
MODEL 5
REMARK VINA RESULT:      -9.4      9.835     14.897
REMARK  4 active torsions:
REMARK  status: ('A' for Active; 'I' for Inactive)
REMARK    1  A    between atoms: C1_8  and  N1_5 
REMARK       I    between atoms: C10_17  and  N2_6 
REMARK    2  A    between atoms: C3_10  and  N2_6 
REMARK    3  A    between atoms: C1_8  and  C2_9 
REMARK    4  A    between atoms: C10_17  and  C6_13 
ROOT
HETATM    1  O2  UNK     1      21.272  -4.276  36.966  1.00  0.00    -0.267 OA
HETATM    2  N2  UNK     1      19.077  -5.037  36.571  1.00  0.00    -0.320 N 
HETATM    3  C10 UNK     1      20.100  -4.103  36.634  1.00  0.00     0.262 C 
HETATM    4  H4  UNK     1      18.155  -4.746  36.256  1.00  0.00     0.169 HD
ENDROOT
BRANCH   2   5
HETATM    5  C3  UNK     1      19.158  -6.403  36.878  1.00  0.00     0.071 A 
HETATM    6  C4  UNK     1      19.645  -7.369  36.059  1.00  0.00     0.143 A 
HETATM    7  N1  UNK     1      19.526  -8.525  36.773  1.00  0.00    -0.275 N 
HETATM    8  N3  UNK     1      18.995  -8.356  37.995  1.00  0.00    -0.183 NA
HETATM    9  C9  UNK     1      18.771  -7.040  38.050  1.00  0.00     0.169 A 
BRANCH   7  10
HETATM   10  C1  UNK     1      19.911  -9.845  36.335  1.00  0.00     0.189 C 
BRANCH  10  11
HETATM   11  C2  UNK     1      21.406 -10.017  36.357  1.00  0.00    -0.038 A 
HETATM   12  C11 UNK     1      22.196  -9.061  36.979  1.00  0.00     0.010 A 
HETATM   13  C16 UNK     1      23.582  -9.221  36.999  1.00  0.00     0.024 A 
HETATM   14  C20 UNK     1      24.163 -10.337  36.398  1.00  0.00     0.034 A 
HETATM   15  C17 UNK     1      23.359 -11.292  35.775  1.00  0.00     0.024 A 
HETATM   16 Cl1  UNK     1      25.872 -10.536  36.423  1.00  0.00    -0.084 Cl
HETATM   17  C12 UNK     1      21.974 -11.131  35.755  1.00  0.00     0.010 A 
ENDBRANCH  10  11
ENDBRANCH   7  10
ENDBRANCH   2   5
BRANCH   3  18
HETATM   18  C6  UNK     1      19.647  -2.762  36.239  1.00  0.00     0.108 A 
HETATM   19  C13 UNK     1      19.957  -2.187  34.912  1.00  0.00     0.304 A 
HETATM   20  O1  UNK     1      19.471  -0.909  34.655  1.00  0.00    -0.274 OA
HETATM   21  O3  UNK     1      20.609  -2.804  34.074  1.00  0.00    -0.259 OA
HETATM   22  C7  UNK     1      18.721  -0.193  35.609  1.00  0.00     0.089 A 
HETATM   23  C15 UNK     1      18.278   1.081  35.260  1.00  0.00     0.038 A 
HETATM   24  C5  UNK     1      18.441  -0.753  36.851  1.00  0.00    -0.001 A 
HETATM   25  C19 UNK     1      17.533   1.813  36.183  1.00  0.00     0.003 A 
HETATM   26  C18 UNK     1      17.242   1.268  37.435  1.00  0.00     0.001 A 
HETATM   27  C14 UNK     1      17.694  -0.012  37.771  1.00  0.00     0.014 A 
HETATM   28  C8  UNK     1      18.935  -2.088  37.150  1.00  0.00     0.037 A 
ENDBRANCH   3  18
TORSDOF 4
ENDMDL
MODEL 6
REMARK VINA RESULT:      -9.3      6.688     11.086
REMARK  4 active torsions:
REMARK  status: ('A' for Active; 'I' for Inactive)
REMARK    1  A    between atoms: C1_8  and  N1_5 
REMARK       I    between atoms: C10_17  and  N2_6 
REMARK    2  A    between atoms: C3_10  and  N2_6 
REMARK    3  A    between atoms: C1_8  and  C2_9 
REMARK    4  A    between atoms: C10_17  and  C6_13 
ROOT
HETATM    1  O2  UNK     1      16.793   0.660  34.541  1.00  0.00    -0.267 OA
HETATM    2  N2  UNK     1      19.040  -0.038  34.408  1.00  0.00    -0.320 N 
HETATM    3  C10 UNK     1      17.929   0.722  34.073  1.00  0.00     0.262 C 
HETATM    4  H4  UNK     1      19.926   0.143  33.944  1.00  0.00     0.169 HD
ENDROOT
BRANCH   2   5
HETATM    5  C3  UNK     1      19.109  -1.058  35.367  1.00  0.00     0.071 A 
HETATM    6  C4  UNK     1      20.230  -1.735  35.721  1.00  0.00     0.143 A 
HETATM    7  N1  UNK     1      19.818  -2.618  36.676  1.00  0.00    -0.275 N 
HETATM    8  N3  UNK     1      18.506  -2.545  36.953  1.00  0.00    -0.183 NA
HETATM    9  C9  UNK     1      18.076  -1.577  36.138  1.00  0.00     0.169 A 
BRANCH   7  10
HETATM   10  C1  UNK     1      20.646  -3.571  37.374  1.00  0.00     0.189 C 
BRANCH  10  11
HETATM   11  C2  UNK     1      20.133  -4.975  37.200  1.00  0.00    -0.038 A 
HETATM   12  C11 UNK     1      20.000  -5.797  38.311  1.00  0.00     0.010 A 
HETATM   13  C16 UNK     1      19.524  -7.099  38.150  1.00  0.00     0.024 A 
HETATM   14  C20 UNK     1      19.184  -7.564  36.879  1.00  0.00     0.034 A 
HETATM   15  C17 UNK     1      19.321  -6.729  35.770  1.00  0.00     0.024 A 
HETATM   16 Cl1  UNK     1      18.595  -9.169  36.680  1.00  0.00    -0.084 Cl
HETATM   17  C12 UNK     1      19.798  -5.429  35.932  1.00  0.00     0.010 A 
ENDBRANCH  10  11
ENDBRANCH   7  10
ENDBRANCH   2   5
BRANCH   3  18
HETATM   18  C6  UNK     1      18.229   1.701  33.020  1.00  0.00     0.108 A 
HETATM   19  C13 UNK     1      18.713   1.293  31.683  1.00  0.00     0.304 A 
HETATM   20  O1  UNK     1      18.962   2.314  30.769  1.00  0.00    -0.274 OA
HETATM   21  O3  UNK     1      18.887   0.115  31.387  1.00  0.00    -0.259 OA
HETATM   22  C7  UNK     1      18.765   3.669  31.098  1.00  0.00     0.089 A 
HETATM   23  C15 UNK     1      19.041   4.619  30.116  1.00  0.00     0.038 A 
HETATM   24  C5  UNK     1      18.309   4.031  32.361  1.00  0.00    -0.001 A 
HETATM   25  C19 UNK     1      18.855   5.969  30.412  1.00  0.00     0.003 A 
HETATM   26  C18 UNK     1      18.399   6.351  31.675  1.00  0.00     0.001 A 
HETATM   27  C14 UNK     1      18.126   5.386  32.649  1.00  0.00     0.014 A 
HETATM   28  C8  UNK     1      18.039   2.987  33.338  1.00  0.00     0.037 A 
ENDBRANCH   3  18
TORSDOF 4
ENDMDL
MODEL 7
REMARK VINA RESULT:      -9.3      1.761      2.618
REMARK  4 active torsions:
REMARK  status: ('A' for Active; 'I' for Inactive)
REMARK    1  A    between atoms: C1_8  and  N1_5 
REMARK       I    between atoms: C10_17  and  N2_6 
REMARK    2  A    between atoms: C3_10  and  N2_6 
REMARK    3  A    between atoms: C1_8  and  C2_9 
REMARK    4  A    between atoms: C10_17  and  C6_13 
ROOT
HETATM    1  O2  UNK     1      18.734   4.985  30.258  1.00  0.00    -0.267 OA
HETATM    2  N2  UNK     1      17.564   4.820  32.296  1.00  0.00    -0.320 N 
HETATM    3  C10 UNK     1      18.320   4.356  31.230  1.00  0.00     0.262 C 
HETATM    4  H4  UNK     1      17.311   4.179  33.044  1.00  0.00     0.169 HD
ENDROOT
BRANCH   2   5
HETATM    5  C3  UNK     1      17.100   6.127  32.499  1.00  0.00     0.071 A 
HETATM    6  C4  UNK     1      16.740   6.662  33.692  1.00  0.00     0.143 A 
HETATM    7  N1  UNK     1      16.361   7.940  33.403  1.00  0.00    -0.275 N 
HETATM    8  N3  UNK     1      16.457   8.253  32.100  1.00  0.00    -0.183 NA
HETATM    9  C9  UNK     1      16.915   7.125  31.550  1.00  0.00     0.169 A 
BRANCH   7  10
HETATM   10  C1  UNK     1      15.892   8.927  34.344  1.00  0.00     0.189 C 
BRANCH  10  11
HETATM   11  C2  UNK     1      16.619  10.234  34.178  1.00  0.00    -0.038 A 
HETATM   12  C11 UNK     1      15.896  11.418  34.123  1.00  0.00     0.010 A 
HETATM   13  C16 UNK     1      16.570  12.630  33.969  1.00  0.00     0.024 A 
HETATM   14  C20 UNK     1      17.962  12.645  33.873  1.00  0.00     0.034 A 
HETATM   15  C17 UNK     1      18.679  11.449  33.930  1.00  0.00     0.024 A 
HETATM   16 Cl1  UNK     1      18.795  14.139  33.685  1.00  0.00    -0.084 Cl
HETATM   17  C12 UNK     1      18.004  10.238  34.083  1.00  0.00     0.010 A 
ENDBRANCH  10  11
ENDBRANCH   7  10
ENDBRANCH   2   5
BRANCH   3  18
HETATM   18  C6  UNK     1      18.624   2.924  31.352  1.00  0.00     0.108 A 
HETATM   19  C13 UNK     1      18.381   2.174  32.604  1.00  0.00     0.304 A 
HETATM   20  O1  UNK     1      18.708   0.821  32.596  1.00  0.00    -0.274 OA
HETATM   21  O3  UNK     1      17.913   2.712  33.603  1.00  0.00    -0.259 OA
HETATM   22  C7  UNK     1      19.245   0.193  31.455  1.00  0.00     0.089 A 
HETATM   23  C15 UNK     1      19.541  -1.166  31.543  1.00  0.00     0.038 A 
HETATM   24  C5  UNK     1      19.465   0.917  30.288  1.00  0.00    -0.001 A 
HETATM   25  C19 UNK     1      20.073  -1.814  30.430  1.00  0.00     0.003 A 
HETATM   26  C18 UNK     1      20.302  -1.104  29.250  1.00  0.00     0.001 A 
HETATM   27  C14 UNK     1      19.999   0.259  29.177  1.00  0.00     0.014 A 
HETATM   28  C8  UNK     1      19.133   2.333  30.265  1.00  0.00     0.037 A 
ENDBRANCH   3  18
TORSDOF 4
ENDMDL
MODEL 8
REMARK VINA RESULT:      -9.2      1.027      1.847
REMARK  4 active torsions:
REMARK  status: ('A' for Active; 'I' for Inactive)
REMARK    1  A    between atoms: C1_8  and  N1_5 
REMARK       I    between atoms: C10_17  and  N2_6 
REMARK    2  A    between atoms: C3_10  and  N2_6 
REMARK    3  A    between atoms: C1_8  and  C2_9 
REMARK    4  A    between atoms: C10_17  and  C6_13 
ROOT
HETATM    1  O2  UNK     1      18.639   4.543  29.857  1.00  0.00    -0.267 OA
HETATM    2  N2  UNK     1      18.277   4.740  32.177  1.00  0.00    -0.320 N 
HETATM    3  C10 UNK     1      18.566   4.078  30.993  1.00  0.00     0.262 C 
HETATM    4  H4  UNK     1      18.272   4.221  33.050  1.00  0.00     0.169 HD
ENDROOT
BRANCH   2   5
HETATM    5  C3  UNK     1      18.000   6.106  32.336  1.00  0.00     0.071 A 
HETATM    6  C4  UNK     1      18.454   6.891  33.345  1.00  0.00     0.143 A 
HETATM    7  N1  UNK     1      17.936   8.126  33.087  1.00  0.00    -0.275 N 
HETATM    8  N3  UNK     1      17.181   8.177  31.977  1.00  0.00    -0.183 NA
HETATM    9  C9  UNK     1      17.227   6.923  31.520  1.00  0.00     0.169 A 
BRANCH   7  10
HETATM   10  C1  UNK     1      18.131   9.318  33.876  1.00  0.00     0.189 C 
BRANCH  10  11
HETATM   11  C2  UNK     1      16.820   9.975  34.212  1.00  0.00    -0.038 A 
HETATM   12  C11 UNK     1      16.663  11.338  34.001  1.00  0.00     0.010 A 
HETATM   13  C16 UNK     1      15.447  11.947  34.313  1.00  0.00     0.024 A 
HETATM   14  C20 UNK     1      14.400  11.186  34.831  1.00  0.00     0.034 A 
HETATM   15  C17 UNK     1      14.568   9.816  35.039  1.00  0.00     0.024 A 
HETATM   16 Cl1  UNK     1      12.898  11.935  35.214  1.00  0.00    -0.084 Cl
HETATM   17  C12 UNK     1      15.784   9.208  34.728  1.00  0.00     0.010 A 
ENDBRANCH  10  11
ENDBRANCH   7  10
ENDBRANCH   2   5
BRANCH   3  18
HETATM   18  C6  UNK     1      18.802   2.644  31.208  1.00  0.00     0.108 A 
HETATM   19  C13 UNK     1      18.428   1.967  32.469  1.00  0.00     0.304 A 
HETATM   20  O1  UNK     1      18.701   0.605  32.553  1.00  0.00    -0.274 OA
HETATM   21  O3  UNK     1      17.900   2.571  33.398  1.00  0.00    -0.259 OA
HETATM   22  C7  UNK     1      19.305  -0.098  31.492  1.00  0.00     0.089 A 
HETATM   23  C15 UNK     1      19.540  -1.460  31.669  1.00  0.00     0.038 A 
HETATM   24  C5  UNK     1      19.649   0.558  30.315  1.00  0.00    -0.001 A 
HETATM   25  C19 UNK     1      20.136  -2.182  30.637  1.00  0.00     0.003 A 
HETATM   26  C18 UNK     1      20.489  -1.541  29.448  1.00  0.00     0.001 A 
HETATM   27  C14 UNK     1      20.247  -0.174  29.285  1.00  0.00     0.014 A 
HETATM   28  C8  UNK     1      19.375   1.982  30.197  1.00  0.00     0.037 A 
ENDBRANCH   3  18
TORSDOF 4
ENDMDL
MODEL 9
REMARK VINA RESULT:      -9.1      7.542      9.963
REMARK  4 active torsions:
REMARK  status: ('A' for Active; 'I' for Inactive)
REMARK    1  A    between atoms: C1_8  and  N1_5 
REMARK       I    between atoms: C10_17  and  N2_6 
REMARK    2  A    between atoms: C3_10  and  N2_6 
REMARK    3  A    between atoms: C1_8  and  C2_9 
REMARK    4  A    between atoms: C10_17  and  C6_13 
ROOT
HETATM    1  O2  UNK     1      20.258  -3.465  35.105  1.00  0.00    -0.267 OA
HETATM    2  N2  UNK     1      18.625  -2.862  36.693  1.00  0.00    -0.320 N 
HETATM    3  C10 UNK     1      19.614  -3.658  36.135  1.00  0.00     0.262 C 
HETATM    4  H4  UNK     1      18.191  -3.145  37.568  1.00  0.00     0.169 HD
ENDROOT
BRANCH   2   5
HETATM    5  C3  UNK     1      18.137  -1.645  36.196  1.00  0.00     0.071 A 
HETATM    6  C4  UNK     1      18.860  -0.507  36.044  1.00  0.00     0.143 A 
HETATM    7  N1  UNK     1      17.980   0.401  35.534  1.00  0.00    -0.275 N 
HETATM    8  N3  UNK     1      16.741  -0.087  35.351  1.00  0.00    -0.183 NA
HETATM    9  C9  UNK     1      16.850  -1.353  35.763  1.00  0.00     0.169 A 
BRANCH   7  10
HETATM   10  C1  UNK     1      18.266   1.774  35.194  1.00  0.00     0.189 C 
BRANCH  10  11
HETATM   11  C2  UNK     1      18.355   1.963  33.703  1.00  0.00    -0.038 A 
HETATM   12  C11 UNK     1      18.111   3.215  33.157  1.00  0.00     0.010 A 
HETATM   13  C16 UNK     1      18.194   3.391  31.775  1.00  0.00     0.024 A 
HETATM   14  C20 UNK     1      18.521   2.312  30.955  1.00  0.00     0.034 A 
HETATM   15  C17 UNK     1      18.765   1.057  31.514  1.00  0.00     0.024 A 
HETATM   16 Cl1  UNK     1      18.625   2.527  29.250  1.00  0.00    -0.084 Cl
HETATM   17  C12 UNK     1      18.682   0.883  32.895  1.00  0.00     0.010 A 
ENDBRANCH  10  11
ENDBRANCH   7  10
ENDBRANCH   2   5
BRANCH   3  18
HETATM   18  C6  UNK     1      19.865  -4.865  36.934  1.00  0.00     0.108 A 
HETATM   19  C13 UNK     1      18.847  -5.928  37.092  1.00  0.00     0.304 A 
HETATM   20  O1  UNK     1      19.204  -7.023  37.873  1.00  0.00    -0.274 OA
HETATM   21  O3  UNK     1      17.743  -5.853  36.562  1.00  0.00    -0.259 OA
HETATM   22  C7  UNK     1      20.469  -7.120  38.485  1.00  0.00     0.089 A 
HETATM   23  C15 UNK     1      20.734  -8.255  39.248  1.00  0.00     0.038 A 
HETATM   24  C5  UNK     1      21.411  -6.109  38.323  1.00  0.00    -0.001 A 
HETATM   25  C19 UNK     1      21.977  -8.378  39.866  1.00  0.00     0.003 A 
HETATM   26  C18 UNK     1      22.935  -7.374  39.716  1.00  0.00     0.001 A 
HETATM   27  C14 UNK     1      22.655  -6.240  38.947  1.00  0.00     0.014 A 
HETATM   28  C8  UNK     1      21.068  -4.951  37.512  1.00  0.00     0.037 A 
ENDBRANCH   3  18
TORSDOF 4
ENDMDL
MODEL 10
REMARK VINA RESULT:      -9.0     15.314     17.654
REMARK  4 active torsions:
REMARK  status: ('A' for Active; 'I' for Inactive)
REMARK    1  A    between atoms: C1_8  and  N1_5 
REMARK       I    between atoms: C10_17  and  N2_6 
REMARK    2  A    between atoms: C3_10  and  N2_6 
REMARK    3  A    between atoms: C1_8  and  C2_9 
REMARK    4  A    between atoms: C10_17  and  C6_13 
ROOT
HETATM    1  O2  UNK     1      25.494  -8.390  39.305  1.00  0.00    -0.267 OA
HETATM    2  N2  UNK     1      26.236  -8.850  37.116  1.00  0.00    -0.320 N 
HETATM    3  C10 UNK     1      26.247  -8.213  38.349  1.00  0.00     0.262 C 
HETATM    4  H4  UNK     1      26.942  -8.609  36.425  1.00  0.00     0.169 HD
ENDROOT
BRANCH   2   5
HETATM    5  C3  UNK     1      25.351  -9.848  36.688  1.00  0.00     0.071 A 
HETATM    6  C4  UNK     1      24.027  -9.680  36.445  1.00  0.00     0.143 A 
HETATM    7  N1  UNK     1      23.582 -10.909  36.055  1.00  0.00    -0.275 N 
HETATM    8  N3  UNK     1      24.541 -11.850  36.033  1.00  0.00    -0.183 NA
HETATM    9  C9  UNK     1      25.630 -11.184  36.426  1.00  0.00     0.169 A 
BRANCH   7  10
HETATM   10  C1  UNK     1      22.232 -11.252  35.683  1.00  0.00     0.189 C 
BRANCH  10  11
HETATM   11  C2  UNK     1      21.249 -10.222  36.168  1.00  0.00    -0.038 A 
HETATM   12  C11 UNK     1      20.582 -10.424  37.369  1.00  0.00     0.010 A 
HETATM   13  C16 UNK     1      19.671  -9.468  37.819  1.00  0.00     0.024 A 
HETATM   14  C20 UNK     1      19.437  -8.319  37.064  1.00  0.00     0.034 A 
HETATM   15  C17 UNK     1      20.113  -8.125  35.859  1.00  0.00     0.024 A 
HETATM   16 Cl1  UNK     1      18.315  -7.138  37.620  1.00  0.00    -0.084 Cl
HETATM   17  C12 UNK     1      21.023  -9.081  35.409  1.00  0.00     0.010 A 
ENDBRANCH  10  11
ENDBRANCH   7  10
ENDBRANCH   2   5
BRANCH   3  18
HETATM   18  C6  UNK     1      27.322  -7.216  38.444  1.00  0.00     0.108 A 
HETATM   19  C13 UNK     1      27.045  -5.784  38.691  1.00  0.00     0.304 A 
HETATM   20  O1  UNK     1      28.148  -4.938  38.761  1.00  0.00    -0.274 OA
HETATM   21  O3  UNK     1      25.903  -5.358  38.830  1.00  0.00    -0.259 OA
HETATM   22  C7  UNK     1      29.463  -5.416  38.604  1.00  0.00     0.089 A 
HETATM   23  C15 UNK     1      30.503  -4.492  38.691  1.00  0.00     0.038 A 
HETATM   24  C5  UNK     1      29.701  -6.767  38.373  1.00  0.00    -0.001 A 
HETATM   25  C19 UNK     1      31.815  -4.936  38.540  1.00  0.00     0.003 A 
HETATM   26  C18 UNK     1      32.073  -6.288  38.306  1.00  0.00     0.001 A 
HETATM   27  C14 UNK     1      31.020  -7.203  38.222  1.00  0.00     0.014 A 
HETATM   28  C8  UNK     1      28.569  -7.677  38.294  1.00  0.00     0.037 A 
ENDBRANCH   3  18
TORSDOF 4
ENDMDL
