MODEL 1
REMARK VINA RESULT:      -8.1      0.000      0.000
REMARK  8 active torsions:
REMARK  status: ('A' for Active; 'I' for Inactive)
REMARK    1  A    between atoms: C15_24  and  O5_5 
REMARK    2  A    between atoms: C18_27  and  O6_6 
REMARK    3  A    between atoms: C25_34  and  O6_6 
REMARK    4  A    between atoms: C13_22  and  N1_7 
REMARK    5  A    between atoms: C14_23  and  N1_7 
REMARK       I    between atoms: C7_16  and  N1_7 
REMARK    6  A    between atoms: C6_15  and  N2_8 
REMARK    7  A    between atoms: C1_10  and  C4_13 
REMARK    8  A    between atoms: C3_12  and  C7_16 
ROOT
HETATM    1  N3  UNK     1      24.946  -7.646  38.607  1.00  0.00    -0.195 NA
HETATM    2  C25 UNK     1      27.086  -9.153  38.776  1.00  0.00     0.299 C 
HETATM    3  C26 UNK     1      25.894  -8.311  38.682  1.00  0.00     0.085 C 
ENDROOT
BRANCH   2   4
HETATM    4  O6  UNK     1      28.261  -8.347  38.834  1.00  0.00    -0.335 OA
BRANCH   4   5
HETATM    5  C18 UNK     1      28.742  -7.866  37.653  1.00  0.00     0.103 A 
HETATM    6  C15 UNK     1      29.011  -6.507  37.499  1.00  0.00     0.102 A 
HETATM    7  C10 UNK     1      29.503  -6.026  36.285  1.00  0.00     0.047 A 
HETATM    8  C4  UNK     1      29.723  -6.909  35.234  1.00  0.00    -0.042 A 
HETATM    9  C11 UNK     1      29.457  -8.266  35.380  1.00  0.00     0.011 A 
HETATM   10  C17 UNK     1      28.965  -8.746  36.594  1.00  0.00     0.040 A 
BRANCH   6  11
HETATM   11  O5  UNK     1      28.797  -5.637  38.526  1.00  0.00    -0.353 OA
HETATM   12  C24 UNK     1      29.506  -4.400  38.487  1.00  0.00     0.210 C 
ENDBRANCH   6  11
BRANCH   8  13
HETATM   13  C1  UNK     1      30.254  -6.393  33.928  1.00  0.00     0.103 C 
HETATM   14  C2  UNK     1      29.523  -7.043  32.767  1.00  0.00     0.066 A 
HETATM   15  C9  UNK     1      28.094  -6.701  32.547  1.00  0.00     0.298 A 
HETATM   16  C5  UNK     1      30.164  -7.885  31.943  1.00  0.00     0.104 A 
HETATM   17  O2  UNK     1      27.449  -7.349  31.499  1.00  0.00    -0.274 OA
HETATM   18  O4  UNK     1      27.500  -5.889  33.251  1.00  0.00    -0.259 OA
HETATM   19  C12 UNK     1      28.116  -8.255  30.653  1.00  0.00     0.092 A 
HETATM   20  C8  UNK     1      29.465  -8.541  30.841  1.00  0.00     0.033 A 
HETATM   21  C19 UNK     1      27.369  -8.838  29.629  1.00  0.00     0.038 A 
HETATM   22  C16 UNK     1      30.077  -9.445  29.963  1.00  0.00     0.017 A 
HETATM   23  C20 UNK     1      29.341 -10.039  28.932  1.00  0.00     0.001 A 
HETATM   24  C23 UNK     1      27.990  -9.736  28.765  1.00  0.00     0.003 A 
HETATM   25  O1  UNK     1      31.506  -8.194  32.075  1.00  0.00    -0.292 OA
HETATM   26  C6  UNK     1      32.310  -7.482  32.968  1.00  0.00     0.154 C 
HETATM   27  C3  UNK     1      31.754  -6.620  33.845  1.00  0.00     0.074 C 
BRANCH  26  28
HETATM   28  N2  UNK     1      33.642  -7.758  32.835  1.00  0.00    -0.379 N 
HETATM   29  H10 UNK     1      34.271  -7.513  33.589  1.00  0.00     0.158 HD
HETATM   30  H11 UNK     1      33.994  -8.202  31.997  1.00  0.00     0.158 HD
ENDBRANCH  26  28
BRANCH  27  31
HETATM   31  C7  UNK     1      32.588  -5.820  34.760  1.00  0.00     0.255 C 
HETATM   32  O3  UNK     1      32.760  -4.627  34.495  1.00  0.00    -0.268 OA
HETATM   33  N1  UNK     1      33.118  -6.467  35.878  1.00  0.00    -0.349 N 
BRANCH  33  34
HETATM   34  C13 UNK     1      33.945  -5.772  36.860  1.00  0.00     0.121 C 
HETATM   35  C21 UNK     1      35.372  -5.618  36.374  1.00  0.00     0.026 C 
ENDBRANCH  33  34
BRANCH  33  36
HETATM   36  C14 UNK     1      32.880  -7.881  36.141  1.00  0.00     0.121 C 
HETATM   37  C22 UNK     1      32.519  -8.121  37.592  1.00  0.00     0.026 C 
ENDBRANCH  33  36
ENDBRANCH  27  31
ENDBRANCH   8  13
ENDBRANCH   4   5
ENDBRANCH   2   4
TORSDOF 8
ENDMDL
MODEL 2
REMARK VINA RESULT:      -8.1      1.748      2.076
REMARK  8 active torsions:
REMARK  status: ('A' for Active; 'I' for Inactive)
REMARK    1  A    between atoms: C15_24  and  O5_5 
REMARK    2  A    between atoms: C18_27  and  O6_6 
REMARK    3  A    between atoms: C25_34  and  O6_6 
REMARK    4  A    between atoms: C13_22  and  N1_7 
REMARK    5  A    between atoms: C14_23  and  N1_7 
REMARK       I    between atoms: C7_16  and  N1_7 
REMARK    6  A    between atoms: C6_15  and  N2_8 
REMARK    7  A    between atoms: C1_10  and  C4_13 
REMARK    8  A    between atoms: C3_12  and  C7_16 
ROOT
HETATM    1  N3  UNK     1      28.495 -10.604  39.841  1.00  0.00    -0.195 NA
HETATM    2  C25 UNK     1      26.461  -8.987  39.485  1.00  0.00     0.299 C 
HETATM    3  C26 UNK     1      27.595  -9.889  39.682  1.00  0.00     0.085 C 
ENDROOT
BRANCH   2   4
HETATM    4  O6  UNK     1      26.039  -9.007  38.123  1.00  0.00    -0.335 OA
BRANCH   4   5
HETATM    5  C18 UNK     1      26.970  -8.688  37.181  1.00  0.00     0.103 A 
HETATM    6  C15 UNK     1      27.399  -7.371  37.026  1.00  0.00     0.102 A 
HETATM    7  C10 UNK     1      28.353  -7.056  36.059  1.00  0.00     0.047 A 
HETATM    8  C4  UNK     1      28.872  -8.062  35.251  1.00  0.00    -0.042 A 
HETATM    9  C11 UNK     1      28.449  -9.379  35.399  1.00  0.00     0.011 A 
HETATM   10  C17 UNK     1      27.496  -9.693  36.368  1.00  0.00     0.040 A 
BRANCH   6  11
HETATM   11  O5  UNK     1      26.893  -6.381  37.814  1.00  0.00    -0.353 OA
HETATM   12  C24 UNK     1      27.822  -5.644  38.608  1.00  0.00     0.210 C 
ENDBRANCH   6  11
BRANCH   8  13
HETATM   13  C1  UNK     1      29.899  -7.725  34.211  1.00  0.00     0.103 C 
HETATM   14  C2  UNK     1      29.409  -8.131  32.833  1.00  0.00     0.066 A 
HETATM   15  C9  UNK     1      28.272  -7.383  32.236  1.00  0.00     0.298 A 
HETATM   16  C5  UNK     1      30.009  -9.124  32.160  1.00  0.00     0.104 A 
HETATM   17  O2  UNK     1      27.825  -7.812  30.991  1.00  0.00    -0.274 OA
HETATM   18  O4  UNK     1      27.743  -6.433  32.805  1.00  0.00    -0.259 OA
HETATM   19  C12 UNK     1      28.437  -8.874  30.299  1.00  0.00     0.092 A 
HETATM   20  C8  UNK     1      29.527  -9.545  30.847  1.00  0.00     0.033 A 
HETATM   21  C19 UNK     1      27.908  -9.212  29.053  1.00  0.00     0.038 A 
HETATM   22  C16 UNK     1      30.099 -10.588  30.109  1.00  0.00     0.017 A 
HETATM   23  C20 UNK     1      29.580 -10.939  28.858  1.00  0.00     0.001 A 
HETATM   24  C23 UNK     1      28.486 -10.252  28.331  1.00  0.00     0.003 A 
HETATM   25  O1  UNK     1      31.103  -9.814  32.651  1.00  0.00    -0.292 OA
HETATM   26  C6  UNK     1      31.760  -9.370  33.801  1.00  0.00     0.154 C 
HETATM   27  C3  UNK     1      31.226  -8.383  34.550  1.00  0.00     0.074 C 
BRANCH  26  28
HETATM   28  N2  UNK     1      32.934 -10.027  34.039  1.00  0.00    -0.379 N 
HETATM   29  H10 UNK     1      32.965 -10.726  34.770  1.00  0.00     0.158 HD
HETATM   30  H11 UNK     1      33.760  -9.818  33.494  1.00  0.00     0.158 HD
ENDBRANCH  26  28
BRANCH  27  31
HETATM   31  C7  UNK     1      31.929  -7.865  35.738  1.00  0.00     0.255 C 
HETATM   32  O3  UNK     1      31.847  -8.511  36.787  1.00  0.00    -0.268 OA
HETATM   33  N1  UNK     1      32.653  -6.682  35.592  1.00  0.00    -0.349 N 
BRANCH  33  34
HETATM   34  C13 UNK     1      33.401  -6.084  36.695  1.00  0.00     0.121 C 
HETATM   35  C21 UNK     1      34.895  -6.162  36.458  1.00  0.00     0.026 C 
ENDBRANCH  33  34
BRANCH  33  36
HETATM   36  C14 UNK     1      32.714  -5.961  34.326  1.00  0.00     0.121 C 
HETATM   37  C22 UNK     1      32.176  -4.552  34.465  1.00  0.00     0.026 C 
ENDBRANCH  33  36
ENDBRANCH  27  31
ENDBRANCH   8  13
ENDBRANCH   4   5
ENDBRANCH   2   4
TORSDOF 8
ENDMDL
MODEL 3
REMARK VINA RESULT:      -8.0      2.027      6.387
REMARK  8 active torsions:
REMARK  status: ('A' for Active; 'I' for Inactive)
REMARK    1  A    between atoms: C15_24  and  O5_5 
REMARK    2  A    between atoms: C18_27  and  O6_6 
REMARK    3  A    between atoms: C25_34  and  O6_6 
REMARK    4  A    between atoms: C13_22  and  N1_7 
REMARK    5  A    between atoms: C14_23  and  N1_7 
REMARK       I    between atoms: C7_16  and  N1_7 
REMARK    6  A    between atoms: C6_15  and  N2_8 
REMARK    7  A    between atoms: C1_10  and  C4_13 
REMARK    8  A    between atoms: C3_12  and  C7_16 
ROOT
HETATM    1  N3  UNK     1      30.808  -9.881  27.434  1.00  0.00    -0.195 NA
HETATM    2  C25 UNK     1      29.405  -8.366  29.051  1.00  0.00     0.299 C 
HETATM    3  C26 UNK     1      30.188  -9.210  28.150  1.00  0.00     0.085 C 
ENDROOT
BRANCH   2   4
HETATM    4  O6  UNK     1      30.209  -7.307  29.566  1.00  0.00    -0.335 OA
BRANCH   4   5
HETATM    5  C18 UNK     1      30.434  -7.296  30.910  1.00  0.00     0.103 A 
HETATM    6  C15 UNK     1      29.558  -6.636  31.770  1.00  0.00     0.102 A 
HETATM    7  C10 UNK     1      29.798  -6.632  33.144  1.00  0.00     0.047 A 
HETATM    8  C4  UNK     1      30.914  -7.291  33.649  1.00  0.00    -0.042 A 
HETATM    9  C11 UNK     1      31.792  -7.952  32.798  1.00  0.00     0.011 A 
HETATM   10  C17 UNK     1      31.551  -7.956  31.424  1.00  0.00     0.040 A 
BRANCH   6  11
HETATM   11  O5  UNK     1      28.463  -5.988  31.280  1.00  0.00    -0.353 OA
HETATM   12  C24 UNK     1      27.195  -6.608  31.490  1.00  0.00     0.210 C 
ENDBRANCH   6  11
BRANCH   8  13
HETATM   13  C1  UNK     1      31.173  -7.289  35.127  1.00  0.00     0.103 C 
HETATM   14  C2  UNK     1      29.945  -7.768  35.879  1.00  0.00     0.066 A 
HETATM   15  C9  UNK     1      29.546  -9.194  35.751  1.00  0.00     0.298 A 
HETATM   16  C5  UNK     1      29.252  -6.928  36.663  1.00  0.00     0.104 A 
HETATM   17  O2  UNK     1      28.392  -9.584  36.421  1.00  0.00    -0.274 OA
HETATM   18  O4  UNK     1      30.195  -9.997  35.087  1.00  0.00    -0.259 OA
HETATM   19  C12 UNK     1      27.650  -8.694  37.220  1.00  0.00     0.092 A 
HETATM   20  C8  UNK     1      28.051  -7.369  37.366  1.00  0.00     0.033 A 
HETATM   21  C19 UNK     1      26.514  -9.199  37.852  1.00  0.00     0.038 A 
HETATM   22  C16 UNK     1      27.278  -6.531  38.180  1.00  0.00     0.017 A 
HETATM   23  C20 UNK     1      26.135  -7.023  38.820  1.00  0.00     0.001 A 
HETATM   24  C23 UNK     1      25.754  -8.355  38.656  1.00  0.00     0.003 A 
HETATM   25  O1  UNK     1      29.614  -5.606  36.855  1.00  0.00    -0.292 OA
HETATM   26  C6  UNK     1      30.843  -5.135  36.388  1.00  0.00     0.154 C 
HETATM   27  C3  UNK     1      31.605  -5.905  35.582  1.00  0.00     0.074 C 
BRANCH  26  28
HETATM   28  N2  UNK     1      31.144  -3.879  36.832  1.00  0.00    -0.379 N 
HETATM   29  H10 UNK     1      31.981  -3.425  36.489  1.00  0.00     0.158 HD
HETATM   30  H11 UNK     1      30.541  -3.409  37.494  1.00  0.00     0.158 HD
ENDBRANCH  26  28
BRANCH  27  31
HETATM   31  C7  UNK     1      32.928  -5.447  35.121  1.00  0.00     0.255 C 
HETATM   32  O3  UNK     1      32.978  -4.432  34.420  1.00  0.00    -0.268 OA
HETATM   33  N1  UNK     1      34.040  -6.188  35.522  1.00  0.00    -0.349 N 
BRANCH  33  34
HETATM   34  C13 UNK     1      35.400  -5.820  35.138  1.00  0.00     0.121 C 
HETATM   35  C21 UNK     1      36.175  -7.017  34.624  1.00  0.00     0.026 C 
ENDBRANCH  33  34
BRANCH  33  36
HETATM   36  C14 UNK     1      33.920  -7.381  36.351  1.00  0.00     0.121 C 
HETATM   37  C22 UNK     1      34.071  -7.050  37.822  1.00  0.00     0.026 C 
ENDBRANCH  33  36
ENDBRANCH  27  31
ENDBRANCH   8  13
ENDBRANCH   4   5
ENDBRANCH   2   4
TORSDOF 8
ENDMDL
MODEL 4
REMARK VINA RESULT:      -7.9      2.161      5.815
REMARK  8 active torsions:
REMARK  status: ('A' for Active; 'I' for Inactive)
REMARK    1  A    between atoms: C15_24  and  O5_5 
REMARK    2  A    between atoms: C18_27  and  O6_6 
REMARK    3  A    between atoms: C25_34  and  O6_6 
REMARK    4  A    between atoms: C13_22  and  N1_7 
REMARK    5  A    between atoms: C14_23  and  N1_7 
REMARK       I    between atoms: C7_16  and  N1_7 
REMARK    6  A    between atoms: C6_15  and  N2_8 
REMARK    7  A    between atoms: C1_10  and  C4_13 
REMARK    8  A    between atoms: C3_12  and  C7_16 
ROOT
HETATM    1  N3  UNK     1      28.656 -10.334  39.485  1.00  0.00    -0.195 NA
HETATM    2  C25 UNK     1      26.458  -8.939  39.161  1.00  0.00     0.299 C 
HETATM    3  C26 UNK     1      27.684  -9.717  39.341  1.00  0.00     0.085 C 
ENDROOT
BRANCH   2   4
HETATM    4  O6  UNK     1      26.026  -8.997  37.804  1.00  0.00    -0.335 OA
BRANCH   4   5
HETATM    5  C18 UNK     1      26.958  -8.743  36.844  1.00  0.00     0.103 A 
HETATM    6  C15 UNK     1      27.514  -7.470  36.716  1.00  0.00     0.102 A 
HETATM    7  C10 UNK     1      28.468  -7.221  35.729  1.00  0.00     0.047 A 
HETATM    8  C4  UNK     1      28.861  -8.248  34.878  1.00  0.00    -0.042 A 
HETATM    9  C11 UNK     1      28.312  -9.520  35.000  1.00  0.00     0.011 A 
HETATM   10  C17 UNK     1      27.358  -9.768  35.987  1.00  0.00     0.040 A 
BRANCH   6  11
HETATM   11  O5  UNK     1      27.131  -6.461  37.547  1.00  0.00    -0.353 OA
HETATM   12  C24 UNK     1      28.161  -5.803  38.284  1.00  0.00     0.210 C 
ENDBRANCH   6  11
BRANCH   8  13
HETATM   13  C1  UNK     1      29.889  -7.982  33.817  1.00  0.00     0.103 C 
HETATM   14  C2  UNK     1      31.228  -7.652  34.451  1.00  0.00     0.066 A 
HETATM   15  C9  UNK     1      31.959  -8.730  35.168  1.00  0.00     0.298 A 
HETATM   16  C5  UNK     1      31.751  -6.421  34.341  1.00  0.00     0.104 A 
HETATM   17  O2  UNK     1      33.162  -8.376  35.770  1.00  0.00    -0.274 OA
HETATM   18  O4  UNK     1      31.532  -9.878  35.233  1.00  0.00    -0.259 OA
HETATM   19  C12 UNK     1      33.695  -7.076  35.679  1.00  0.00     0.092 A 
HETATM   20  C8  UNK     1      33.023  -6.082  34.973  1.00  0.00     0.033 A 
HETATM   21  C19 UNK     1      34.913  -6.841  36.316  1.00  0.00     0.038 A 
HETATM   22  C16 UNK     1      33.605  -4.810  34.910  1.00  0.00     0.017 A 
HETATM   23  C20 UNK     1      34.826  -4.557  35.545  1.00  0.00     0.001 A 
HETATM   24  C23 UNK     1      35.479  -5.571  36.247  1.00  0.00     0.003 A 
HETATM   25  O1  UNK     1      31.134  -5.400  33.641  1.00  0.00    -0.292 OA
HETATM   26  C6  UNK     1      30.018  -5.665  32.843  1.00  0.00     0.154 C 
HETATM   27  C3  UNK     1      29.416  -6.871  32.895  1.00  0.00     0.074 C 
BRANCH  26  28
HETATM   28  N2  UNK     1      29.652  -4.608  32.058  1.00  0.00    -0.379 N 
HETATM   29  H10 UNK     1      28.701  -4.557  31.717  1.00  0.00     0.158 HD
HETATM   30  H11 UNK     1      30.321  -3.886  31.823  1.00  0.00     0.158 HD
ENDBRANCH  26  28
BRANCH  27  31
HETATM   31  C7  UNK     1      28.270  -7.188  32.024  1.00  0.00     0.255 C 
HETATM   32  O3  UNK     1      27.167  -6.722  32.325  1.00  0.00    -0.268 OA
HETATM   33  N1  UNK     1      28.514  -7.985  30.904  1.00  0.00    -0.349 N 
BRANCH  33  34
HETATM   34  C13 UNK     1      27.458  -8.349  29.963  1.00  0.00     0.121 C 
HETATM   35  C21 UNK     1      27.871  -9.520  29.094  1.00  0.00     0.026 C 
ENDBRANCH  33  34
BRANCH  33  36
HETATM   36  C14 UNK     1      29.839  -8.507  30.598  1.00  0.00     0.121 C 
HETATM   37  C22 UNK     1      30.606  -7.572  29.686  1.00  0.00     0.026 C 
ENDBRANCH  33  36
ENDBRANCH  27  31
ENDBRANCH   8  13
ENDBRANCH   4   5
ENDBRANCH   2   4
TORSDOF 8
ENDMDL
MODEL 5
REMARK VINA RESULT:      -7.9      2.488      6.982
REMARK  8 active torsions:
REMARK  status: ('A' for Active; 'I' for Inactive)
REMARK    1  A    between atoms: C15_24  and  O5_5 
REMARK    2  A    between atoms: C18_27  and  O6_6 
REMARK    3  A    between atoms: C25_34  and  O6_6 
REMARK    4  A    between atoms: C13_22  and  N1_7 
REMARK    5  A    between atoms: C14_23  and  N1_7 
REMARK       I    between atoms: C7_16  and  N1_7 
REMARK    6  A    between atoms: C6_15  and  N2_8 
REMARK    7  A    between atoms: C1_10  and  C4_13 
REMARK    8  A    between atoms: C3_12  and  C7_16 
ROOT
HETATM    1  N3  UNK     1      36.369  -6.662  32.002  1.00  0.00    -0.195 NA
HETATM    2  C25 UNK     1      36.685  -7.634  34.418  1.00  0.00     0.299 C 
HETATM    3  C26 UNK     1      36.508  -7.091  33.072  1.00  0.00     0.085 C 
ENDROOT
BRANCH   2   4
HETATM    4  O6  UNK     1      35.863  -6.933  35.350  1.00  0.00    -0.335 OA
BRANCH   4   5
HETATM    5  C18 UNK     1      34.518  -6.977  35.145  1.00  0.00     0.103 A 
HETATM    6  C15 UNK     1      33.833  -5.853  34.684  1.00  0.00     0.102 A 
HETATM    7  C10 UNK     1      32.455  -5.911  34.477  1.00  0.00     0.047 A 
HETATM    8  C4  UNK     1      31.770  -7.094  34.733  1.00  0.00    -0.042 A 
HETATM    9  C11 UNK     1      32.445  -8.219  35.193  1.00  0.00     0.011 A 
HETATM   10  C17 UNK     1      33.824  -8.161  35.398  1.00  0.00     0.040 A 
BRANCH   6  11
HETATM   11  O5  UNK     1      34.500  -4.692  34.433  1.00  0.00    -0.353 OA
HETATM   12  C24 UNK     1      34.057  -3.527  35.127  1.00  0.00     0.210 C 
ENDBRANCH   6  11
BRANCH   8  13
HETATM   13  C1  UNK     1      30.287  -7.157  34.510  1.00  0.00     0.103 C 
HETATM   14  C2  UNK     1      29.565  -7.390  35.824  1.00  0.00     0.066 A 
HETATM   15  C9  UNK     1      29.565  -6.302  36.837  1.00  0.00     0.298 A 
HETATM   16  C5  UNK     1      28.917  -8.543  36.053  1.00  0.00     0.104 A 
HETATM   17  O2  UNK     1      28.928  -6.570  38.044  1.00  0.00    -0.274 OA
HETATM   18  O4  UNK     1      30.099  -5.217  36.630  1.00  0.00    -0.259 OA
HETATM   19  C12 UNK     1      28.274  -7.792  38.293  1.00  0.00     0.092 A 
HETATM   20  C8  UNK     1      28.245  -8.792  37.325  1.00  0.00     0.033 A 
HETATM   21  C19 UNK     1      27.663  -7.945  39.537  1.00  0.00     0.038 A 
HETATM   22  C16 UNK     1      27.573  -9.983  37.627  1.00  0.00     0.017 A 
HETATM   23  C20 UNK     1      26.955 -10.152  38.870  1.00  0.00     0.001 A 
HETATM   24  C23 UNK     1      27.000  -9.135  39.824  1.00  0.00     0.003 A 
HETATM   25  O1  UNK     1      28.845  -9.564  35.122  1.00  0.00    -0.292 OA
HETATM   26  C6  UNK     1      29.284  -9.358  33.812  1.00  0.00     0.154 C 
HETATM   27  C3  UNK     1      29.956  -8.232  33.489  1.00  0.00     0.074 C 
BRANCH  26  28
HETATM   28  N2  UNK     1      28.958 -10.380  32.966  1.00  0.00    -0.379 N 
HETATM   29  H10 UNK     1      27.981 -10.589  32.804  1.00  0.00     0.158 HD
HETATM   30  H11 UNK     1      29.681 -10.918  32.507  1.00  0.00     0.158 HD
ENDBRANCH  26  28
BRANCH  27  31
HETATM   31  C7  UNK     1      30.382  -7.972  32.102  1.00  0.00     0.255 C 
HETATM   32  O3  UNK     1      31.413  -8.520  31.700  1.00  0.00    -0.268 OA
HETATM   33  N1  UNK     1      29.580  -7.131  31.330  1.00  0.00    -0.349 N 
BRANCH  33  34
HETATM   34  C13 UNK     1      29.895  -6.815  29.940  1.00  0.00     0.121 C 
HETATM   35  C21 UNK     1      30.668  -5.517  29.828  1.00  0.00     0.026 C 
ENDBRANCH  33  34
BRANCH  33  36
HETATM   36  C14 UNK     1      28.372  -6.511  31.858  1.00  0.00     0.121 C 
HETATM   37  C22 UNK     1      27.154  -6.881  31.037  1.00  0.00     0.026 C 
ENDBRANCH  33  36
ENDBRANCH  27  31
ENDBRANCH   8  13
ENDBRANCH   4   5
ENDBRANCH   2   4
TORSDOF 8
ENDMDL
MODEL 6
REMARK VINA RESULT:      -7.9      2.938      8.004
REMARK  8 active torsions:
REMARK  status: ('A' for Active; 'I' for Inactive)
REMARK    1  A    between atoms: C15_24  and  O5_5 
REMARK    2  A    between atoms: C18_27  and  O6_6 
REMARK    3  A    between atoms: C25_34  and  O6_6 
REMARK    4  A    between atoms: C13_22  and  N1_7 
REMARK    5  A    between atoms: C14_23  and  N1_7 
REMARK       I    between atoms: C7_16  and  N1_7 
REMARK    6  A    between atoms: C6_15  and  N2_8 
REMARK    7  A    between atoms: C1_10  and  C4_13 
REMARK    8  A    between atoms: C3_12  and  C7_16 
ROOT
HETATM    1  N3  UNK     1      37.296 -10.651  29.922  1.00  0.00    -0.195 NA
HETATM    2  C25 UNK     1      37.251  -9.624  32.334  1.00  0.00     0.299 C 
HETATM    3  C26 UNK     1      37.276 -10.196  30.989  1.00  0.00     0.085 C 
ENDROOT
BRANCH   2   4
HETATM    4  O6  UNK     1      36.754  -8.287  32.299  1.00  0.00    -0.335 OA
BRANCH   4   5
HETATM    5  C18 UNK     1      35.405  -8.125  32.389  1.00  0.00     0.103 A 
HETATM    6  C15 UNK     1      34.710  -7.406  31.418  1.00  0.00     0.102 A 
HETATM    7  C10 UNK     1      33.328  -7.247  31.522  1.00  0.00     0.047 A 
HETATM    8  C4  UNK     1      32.650  -7.810  32.598  1.00  0.00    -0.042 A 
HETATM    9  C11 UNK     1      33.335  -8.529  33.570  1.00  0.00     0.011 A 
HETATM   10  C17 UNK     1      34.717  -8.688  33.465  1.00  0.00     0.040 A 
BRANCH   6  11
HETATM   11  O5  UNK     1      35.370  -6.852  30.362  1.00  0.00    -0.353 OA
HETATM   12  C24 UNK     1      35.093  -7.389  29.070  1.00  0.00     0.210 C 
ENDBRANCH   6  11
BRANCH   8  13
HETATM   13  C1  UNK     1      31.163  -7.641  32.709  1.00  0.00     0.103 C 
HETATM   14  C2  UNK     1      30.786  -7.187  34.108  1.00  0.00     0.066 A 
HETATM   15  C9  UNK     1      31.173  -5.818  34.538  1.00  0.00     0.298 A 
HETATM   16  C5  UNK     1      30.096  -7.996  34.926  1.00  0.00     0.104 A 
HETATM   17  O2  UNK     1      30.846  -5.456  35.840  1.00  0.00    -0.274 OA
HETATM   18  O4  UNK     1      31.753  -5.038  33.790  1.00  0.00    -0.259 OA
HETATM   19  C12 UNK     1      30.147  -6.317  36.707  1.00  0.00     0.092 A 
HETATM   20  C8  UNK     1      29.754  -7.584  36.284  1.00  0.00     0.033 A 
HETATM   21  C19 UNK     1      29.868  -5.842  37.988  1.00  0.00     0.038 A 
HETATM   22  C16 UNK     1      29.055  -8.393  37.188  1.00  0.00     0.017 A 
HETATM   23  C20 UNK     1      28.767  -7.932  38.477  1.00  0.00     0.001 A 
HETATM   24  C23 UNK     1      29.173  -6.658  38.876  1.00  0.00     0.003 A 
HETATM   25  O1  UNK     1      29.668  -9.258  34.553  1.00  0.00    -0.292 OA
HETATM   26  C6  UNK     1      29.771  -9.675  33.223  1.00  0.00     0.154 C 
HETATM   27  C3  UNK     1      30.458  -8.932  32.329  1.00  0.00     0.074 C 
BRANCH  26  28
HETATM   28  N2  UNK     1      29.123 -10.851  32.974  1.00  0.00    -0.379 N 
HETATM   29  H10 UNK     1      28.119 -10.840  32.847  1.00  0.00     0.158 HD
HETATM   30  H11 UNK     1      29.638 -11.720  32.917  1.00  0.00     0.158 HD
ENDBRANCH  26  28
BRANCH  27  31
HETATM   31  C7  UNK     1      30.534  -9.327  30.911  1.00  0.00     0.255 C 
HETATM   32  O3  UNK     1      31.427 -10.111  30.575  1.00  0.00    -0.268 OA
HETATM   33  N1  UNK     1      29.579  -8.797  30.043  1.00  0.00    -0.349 N 
BRANCH  33  34
HETATM   34  C13 UNK     1      29.548  -9.130  28.622  1.00  0.00     0.121 C 
HETATM   35  C21 UNK     1      28.457 -10.134  28.311  1.00  0.00     0.026 C 
ENDBRANCH  33  34
BRANCH  33  36
HETATM   36  C14 UNK     1      28.546  -7.875  30.497  1.00  0.00     0.121 C 
HETATM   37  C22 UNK     1      28.848  -6.452  30.074  1.00  0.00     0.026 C 
ENDBRANCH  33  36
ENDBRANCH  27  31
ENDBRANCH   8  13
ENDBRANCH   4   5
ENDBRANCH   2   4
TORSDOF 8
ENDMDL
MODEL 7
REMARK VINA RESULT:      -7.8      1.644      2.009
REMARK  8 active torsions:
REMARK  status: ('A' for Active; 'I' for Inactive)
REMARK    1  A    between atoms: C15_24  and  O5_5 
REMARK    2  A    between atoms: C18_27  and  O6_6 
REMARK    3  A    between atoms: C25_34  and  O6_6 
REMARK    4  A    between atoms: C13_22  and  N1_7 
REMARK    5  A    between atoms: C14_23  and  N1_7 
REMARK       I    between atoms: C7_16  and  N1_7 
REMARK    6  A    between atoms: C6_15  and  N2_8 
REMARK    7  A    between atoms: C1_10  and  C4_13 
REMARK    8  A    between atoms: C3_12  and  C7_16 
ROOT
HETATM    1  N3  UNK     1      26.138  -5.034  38.802  1.00  0.00    -0.195 NA
HETATM    2  C25 UNK     1      26.814  -7.543  38.445  1.00  0.00     0.299 C 
HETATM    3  C26 UNK     1      26.438  -6.144  38.644  1.00  0.00     0.085 C 
ENDROOT
BRANCH   2   4
HETATM    4  O6  UNK     1      28.223  -7.706  38.592  1.00  0.00    -0.335 OA
BRANCH   4   5
HETATM    5  C18 UNK     1      28.977  -7.634  37.460  1.00  0.00     0.103 A 
HETATM    6  C15 UNK     1      29.730  -6.494  37.181  1.00  0.00     0.102 A 
HETATM    7  C10 UNK     1      30.499  -6.432  36.019  1.00  0.00     0.047 A 
HETATM    8  C4  UNK     1      30.508  -7.511  35.142  1.00  0.00    -0.042 A 
HETATM    9  C11 UNK     1      29.760  -8.652  35.413  1.00  0.00     0.011 A 
HETATM   10  C17 UNK     1      28.993  -8.713  36.576  1.00  0.00     0.040 A 
BRANCH   6  11
HETATM   11  O5  UNK     1      29.723  -5.433  38.037  1.00  0.00    -0.353 OA
HETATM   12  C24 UNK     1      30.370  -4.241  37.596  1.00  0.00     0.210 C 
ENDBRANCH   6  11
BRANCH   8  13
HETATM   13  C1  UNK     1      31.336  -7.446  33.892  1.00  0.00     0.103 C 
HETATM   14  C2  UNK     1      30.491  -7.795  32.681  1.00  0.00     0.066 A 
HETATM   15  C9  UNK     1      29.425  -6.847  32.261  1.00  0.00     0.298 A 
HETATM   16  C5  UNK     1      30.721  -8.921  31.989  1.00  0.00     0.104 A 
HETATM   17  O2  UNK     1      28.646  -7.223  31.172  1.00  0.00    -0.274 OA
HETATM   18  O4  UNK     1      29.232  -5.783  32.840  1.00  0.00    -0.259 OA
HETATM   19  C12 UNK     1      28.870  -8.420  30.466  1.00  0.00     0.092 A 
HETATM   20  C8  UNK     1      29.895  -9.284  30.841  1.00  0.00     0.033 A 
HETATM   21  C19 UNK     1      28.031  -8.689  29.385  1.00  0.00     0.038 A 
HETATM   22  C16 UNK     1      30.075 -10.456  30.095  1.00  0.00     0.017 A 
HETATM   23  C20 UNK     1      29.241 -10.740  29.009  1.00  0.00     0.001 A 
HETATM   24  C23 UNK     1      28.220  -9.858  28.654  1.00  0.00     0.003 A 
HETATM   25  O1  UNK     1      31.734  -9.808  32.308  1.00  0.00    -0.292 OA
HETATM   26  C6  UNK     1      32.697  -9.467  33.261  1.00  0.00     0.154 C 
HETATM   27  C3  UNK     1      32.545  -8.358  34.014  1.00  0.00     0.074 C 
BRANCH  26  28
HETATM   28  N2  UNK     1      33.739 -10.349  33.315  1.00  0.00    -0.379 N 
HETATM   29  H10 UNK     1      34.408 -10.364  32.555  1.00  0.00     0.158 HD
HETATM   30  H11 UNK     1      33.842 -10.976  34.102  1.00  0.00     0.158 HD
ENDBRANCH  26  28
BRANCH  27  31
HETATM   31  C7  UNK     1      33.574  -7.952  34.988  1.00  0.00     0.255 C 
HETATM   32  O3  UNK     1      33.501  -8.408  36.133  1.00  0.00    -0.268 OA
HETATM   33  N1  UNK     1      34.576  -7.088  34.543  1.00  0.00    -0.349 N 
BRANCH  33  34
HETATM   34  C13 UNK     1      35.655  -6.633  35.415  1.00  0.00     0.121 C 
HETATM   35  C21 UNK     1      35.229  -5.443  36.250  1.00  0.00     0.026 C 
ENDBRANCH  33  34
BRANCH  33  36
HETATM   36  C14 UNK     1      34.612  -6.582  33.177  1.00  0.00     0.121 C 
HETATM   37  C22 UNK     1      36.006  -6.670  32.590  1.00  0.00     0.026 C 
ENDBRANCH  33  36
ENDBRANCH  27  31
ENDBRANCH   8  13
ENDBRANCH   4   5
ENDBRANCH   2   4
TORSDOF 8
ENDMDL
MODEL 8
REMARK VINA RESULT:      -7.7      2.219      6.266
REMARK  8 active torsions:
REMARK  status: ('A' for Active; 'I' for Inactive)
REMARK    1  A    between atoms: C15_24  and  O5_5 
REMARK    2  A    between atoms: C18_27  and  O6_6 
REMARK    3  A    between atoms: C25_34  and  O6_6 
REMARK    4  A    between atoms: C13_22  and  N1_7 
REMARK    5  A    between atoms: C14_23  and  N1_7 
REMARK       I    between atoms: C7_16  and  N1_7 
REMARK    6  A    between atoms: C6_15  and  N2_8 
REMARK    7  A    between atoms: C1_10  and  C4_13 
REMARK    8  A    between atoms: C3_12  and  C7_16 
ROOT
HETATM    1  N3  UNK     1      27.323  -8.898  30.105  1.00  0.00    -0.195 NA
HETATM    2  C25 UNK     1      27.145  -6.285  29.957  1.00  0.00     0.299 C 
HETATM    3  C26 UNK     1      27.245  -7.742  30.040  1.00  0.00     0.085 C 
ENDROOT
BRANCH   2   4
HETATM    4  O6  UNK     1      28.410  -5.682  30.224  1.00  0.00    -0.335 OA
BRANCH   4   5
HETATM    5  C18 UNK     1      29.042  -6.051  31.373  1.00  0.00     0.103 A 
HETATM    6  C15 UNK     1      30.287  -6.677  31.327  1.00  0.00     0.102 A 
HETATM    7  C10 UNK     1      30.925  -7.049  32.511  1.00  0.00     0.047 A 
HETATM    8  C4  UNK     1      30.312  -6.793  33.733  1.00  0.00    -0.042 A 
HETATM    9  C11 UNK     1      29.070  -6.169  33.786  1.00  0.00     0.011 A 
HETATM   10  C17 UNK     1      28.434  -5.796  32.602  1.00  0.00     0.040 A 
BRANCH   6  11
HETATM   11  O5  UNK     1      30.891  -6.931  30.133  1.00  0.00    -0.353 OA
HETATM   12  C24 UNK     1      32.257  -7.342  30.171  1.00  0.00     0.210 C 
ENDBRANCH   6  11
BRANCH   8  13
HETATM   13  C1  UNK     1      30.998  -7.192  35.006  1.00  0.00     0.103 C 
HETATM   14  C2  UNK     1      30.027  -7.910  35.926  1.00  0.00     0.066 A 
HETATM   15  C9  UNK     1      29.543  -9.259  35.533  1.00  0.00     0.298 A 
HETATM   16  C5  UNK     1      29.639  -7.350  37.081  1.00  0.00     0.104 A 
HETATM   17  O2  UNK     1      28.623  -9.866  36.381  1.00  0.00    -0.274 OA
HETATM   18  O4  UNK     1      29.927  -9.819  34.511  1.00  0.00    -0.259 OA
HETATM   19  C12 UNK     1      28.194  -9.262  37.579  1.00  0.00     0.092 A 
HETATM   20  C8  UNK     1      28.682  -8.016  37.960  1.00  0.00     0.033 A 
HETATM   21  C19 UNK     1      27.275  -9.968  38.355  1.00  0.00     0.038 A 
HETATM   22  C16 UNK     1      28.226  -7.469  39.166  1.00  0.00     0.017 A 
HETATM   23  C20 UNK     1      27.303  -8.165  39.955  1.00  0.00     0.001 A 
HETATM   24  C23 UNK     1      26.828  -9.412  39.550  1.00  0.00     0.003 A 
HETATM   25  O1  UNK     1      30.103  -6.120  37.516  1.00  0.00    -0.292 OA
HETATM   26  C6  UNK     1      31.159  -5.489  36.853  1.00  0.00     0.154 C 
HETATM   27  C3  UNK     1      31.610  -5.974  35.677  1.00  0.00     0.074 C 
BRANCH  26  28
HETATM   28  N2  UNK     1      31.637  -4.395  37.517  1.00  0.00    -0.379 N 
HETATM   29  H10 UNK     1      31.075  -3.984  38.252  1.00  0.00     0.158 HD
HETATM   30  H11 UNK     1      32.538  -4.002  37.279  1.00  0.00     0.158 HD
ENDBRANCH  26  28
BRANCH  27  31
HETATM   31  C7  UNK     1      32.756  -5.354  34.988  1.00  0.00     0.255 C 
HETATM   32  O3  UNK     1      32.568  -4.288  34.393  1.00  0.00    -0.268 OA
HETATM   33  N1  UNK     1      33.985  -6.009  35.067  1.00  0.00    -0.349 N 
BRANCH  33  34
HETATM   34  C13 UNK     1      35.192  -5.480  34.437  1.00  0.00     0.121 C 
HETATM   35  C21 UNK     1      35.466  -6.156  33.109  1.00  0.00     0.026 C 
ENDBRANCH  33  34
BRANCH  33  36
HETATM   36  C14 UNK     1      34.149  -7.267  35.784  1.00  0.00     0.121 C 
HETATM   37  C22 UNK     1      34.451  -7.033  37.250  1.00  0.00     0.026 C 
ENDBRANCH  33  36
ENDBRANCH  27  31
ENDBRANCH   8  13
ENDBRANCH   4   5
ENDBRANCH   2   4
TORSDOF 8
ENDMDL
MODEL 9
REMARK VINA RESULT:      -7.5      2.575      6.815
REMARK  8 active torsions:
REMARK  status: ('A' for Active; 'I' for Inactive)
REMARK    1  A    between atoms: C15_24  and  O5_5 
REMARK    2  A    between atoms: C18_27  and  O6_6 
REMARK    3  A    between atoms: C25_34  and  O6_6 
REMARK    4  A    between atoms: C13_22  and  N1_7 
REMARK    5  A    between atoms: C14_23  and  N1_7 
REMARK       I    between atoms: C7_16  and  N1_7 
REMARK    6  A    between atoms: C6_15  and  N2_8 
REMARK    7  A    between atoms: C1_10  and  C4_13 
REMARK    8  A    between atoms: C3_12  and  C7_16 
ROOT
HETATM    1  N3  UNK     1      30.712  -9.650  27.428  1.00  0.00    -0.195 NA
HETATM    2  C25 UNK     1      28.389  -9.922  28.614  1.00  0.00     0.299 C 
HETATM    3  C26 UNK     1      29.684  -9.769  27.954  1.00  0.00     0.085 C 
ENDROOT
BRANCH   2   4
HETATM    4  O6  UNK     1      28.151  -8.832  29.502  1.00  0.00    -0.335 OA
BRANCH   4   5
HETATM    5  C18 UNK     1      28.866  -8.810  30.661  1.00  0.00     0.103 A 
HETATM    6  C15 UNK     1      29.091  -7.609  31.332  1.00  0.00     0.102 A 
HETATM    7  C10 UNK     1      29.825  -7.598  32.518  1.00  0.00     0.047 A 
HETATM    8  C4  UNK     1      30.328  -8.791  33.027  1.00  0.00    -0.042 A 
HETATM    9  C11 UNK     1      30.107  -9.993  32.364  1.00  0.00     0.011 A 
HETATM   10  C17 UNK     1      29.373 -10.003  31.178  1.00  0.00     0.040 A 
BRANCH   6  11
HETATM   11  O5  UNK     1      28.601  -6.437  30.838  1.00  0.00    -0.353 OA
HETATM   12  C24 UNK     1      29.503  -5.333  30.773  1.00  0.00     0.210 C 
ENDBRANCH   6  11
BRANCH   8  13
HETATM   13  C1  UNK     1      31.116  -8.781  34.304  1.00  0.00     0.103 C 
HETATM   14  C2  UNK     1      30.405  -7.950  35.356  1.00  0.00     0.066 A 
HETATM   15  C9  UNK     1      29.127  -8.459  35.918  1.00  0.00     0.298 A 
HETATM   16  C5  UNK     1      30.936  -6.796  35.789  1.00  0.00     0.104 A 
HETATM   17  O2  UNK     1      28.486  -7.649  36.849  1.00  0.00    -0.274 OA
HETATM   18  O4  UNK     1      28.650  -9.539  35.583  1.00  0.00    -0.259 OA
HETATM   19  C12 UNK     1      29.030  -6.424  37.279  1.00  0.00     0.092 A 
HETATM   20  C8  UNK     1      30.247  -5.972  36.777  1.00  0.00     0.033 A 
HETATM   21  C19 UNK     1      28.302  -5.700  38.223  1.00  0.00     0.038 A 
HETATM   22  C16 UNK     1      30.742  -4.750  37.249  1.00  0.00     0.017 A 
HETATM   23  C20 UNK     1      30.024  -4.012  38.195  1.00  0.00     0.001 A 
HETATM   24  C23 UNK     1      28.805  -4.486  38.681  1.00  0.00     0.003 A 
HETATM   25  O1  UNK     1      32.148  -6.307  35.334  1.00  0.00    -0.292 OA
HETATM   26  C6  UNK     1      32.977  -7.102  34.538  1.00  0.00     0.154 C 
HETATM   27  C3  UNK     1      32.526  -8.275  34.047  1.00  0.00     0.074 C 
BRANCH  26  28
HETATM   28  N2  UNK     1      34.218  -6.565  34.346  1.00  0.00    -0.379 N 
HETATM   29  H10 UNK     1      34.940  -7.136  33.927  1.00  0.00     0.158 HD
HETATM   30  H11 UNK     1      34.413  -5.610  34.617  1.00  0.00     0.158 HD
ENDBRANCH  26  28
BRANCH  27  31
HETATM   31  C7  UNK     1      33.400  -9.152  33.248  1.00  0.00     0.255 C 
HETATM   32  O3  UNK     1      33.842 -10.173  33.783  1.00  0.00    -0.268 OA
HETATM   33  N1  UNK     1      33.660  -8.775  31.930  1.00  0.00    -0.349 N 
BRANCH  33  34
HETATM   34  C13 UNK     1      34.499  -9.574  31.042  1.00  0.00     0.121 C 
HETATM   35  C21 UNK     1      35.884  -8.976  30.901  1.00  0.00     0.026 C 
ENDBRANCH  33  34
BRANCH  33  36
HETATM   36  C14 UNK     1      33.109  -7.556  31.350  1.00  0.00     0.121 C 
HETATM   37  C22 UNK     1      32.481  -7.821  29.997  1.00  0.00     0.026 C 
ENDBRANCH  33  36
ENDBRANCH  27  31
ENDBRANCH   8  13
ENDBRANCH   4   5
ENDBRANCH   2   4
TORSDOF 8
ENDMDL
MODEL 10
REMARK VINA RESULT:      -7.5      1.849      2.786
REMARK  8 active torsions:
REMARK  status: ('A' for Active; 'I' for Inactive)
REMARK    1  A    between atoms: C15_24  and  O5_5 
REMARK    2  A    between atoms: C18_27  and  O6_6 
REMARK    3  A    between atoms: C25_34  and  O6_6 
REMARK    4  A    between atoms: C13_22  and  N1_7 
REMARK    5  A    between atoms: C14_23  and  N1_7 
REMARK       I    between atoms: C7_16  and  N1_7 
REMARK    6  A    between atoms: C6_15  and  N2_8 
REMARK    7  A    between atoms: C1_10  and  C4_13 
REMARK    8  A    between atoms: C3_12  and  C7_16 
ROOT
HETATM    1  N3  UNK     1      22.824  -8.781  37.100  1.00  0.00    -0.195 NA
HETATM    2  C25 UNK     1      24.629  -7.925  38.800  1.00  0.00     0.299 C 
HETATM    3  C26 UNK     1      23.624  -8.404  37.852  1.00  0.00     0.085 C 
ENDROOT
BRANCH   2   4
HETATM    4  O6  UNK     1      25.785  -8.760  38.763  1.00  0.00    -0.335 OA
BRANCH   4   5
HETATM    5  C18 UNK     1      26.734  -8.464  37.831  1.00  0.00     0.103 A 
HETATM    6  C15 UNK     1      27.178  -9.437  36.937  1.00  0.00     0.102 A 
HETATM    7  C10 UNK     1      28.150  -9.122  35.987  1.00  0.00     0.047 A 
HETATM    8  C4  UNK     1      28.672  -7.834  35.939  1.00  0.00    -0.042 A 
HETATM    9  C11 UNK     1      28.235  -6.858  36.828  1.00  0.00     0.011 A 
HETATM   10  C17 UNK     1      27.263  -7.174  37.777  1.00  0.00     0.040 A 
BRANCH   6  11
HETATM   11  O5  UNK     1      26.670 -10.701  36.980  1.00  0.00    -0.353 OA
HETATM   12  C24 UNK     1      25.574 -10.989  36.114  1.00  0.00     0.210 C 
ENDBRANCH   6  11
BRANCH   8  13
HETATM   13  C1  UNK     1      29.717  -7.493  34.917  1.00  0.00     0.103 C 
HETATM   14  C2  UNK     1      29.216  -7.818  33.522  1.00  0.00     0.066 A 
HETATM   15  C9  UNK     1      28.113  -6.998  32.956  1.00  0.00     0.298 A 
HETATM   16  C5  UNK     1      29.777  -8.804  32.806  1.00  0.00     0.104 A 
HETATM   17  O2  UNK     1      27.654  -7.354  31.692  1.00  0.00    -0.274 OA
HETATM   18  O4  UNK     1      27.622  -6.053  33.565  1.00  0.00    -0.259 OA
HETATM   19  C12 UNK     1      28.225  -8.408  30.955  1.00  0.00     0.092 A 
HETATM   20  C8  UNK     1      29.284  -9.147  31.476  1.00  0.00     0.033 A 
HETATM   21  C19 UNK     1      27.688  -8.668  29.694  1.00  0.00     0.038 A 
HETATM   22  C16 UNK     1      29.816 -10.179  30.693  1.00  0.00     0.017 A 
HETATM   23  C20 UNK     1      29.289 -10.453  29.427  1.00  0.00     0.001 A 
HETATM   24  C23 UNK     1      28.226  -9.699  28.928  1.00  0.00     0.003 A 
HETATM   25  O1  UNK     1      30.840  -9.560  33.269  1.00  0.00    -0.292 OA
HETATM   26  C6  UNK     1      31.510  -9.195  34.439  1.00  0.00     0.154 C 
HETATM   27  C3  UNK     1      31.014  -8.220  35.231  1.00  0.00     0.074 C 
BRANCH  26  28
HETATM   28  N2  UNK     1      32.656  -9.908  34.651  1.00  0.00    -0.379 N 
HETATM   29  H10 UNK     1      33.401  -9.852  33.970  1.00  0.00     0.158 HD
HETATM   30  H11 UNK     1      32.758 -10.484  35.477  1.00  0.00     0.158 HD
ENDBRANCH  26  28
BRANCH  27  31
HETATM   31  C7  UNK     1      31.732  -7.784  36.442  1.00  0.00     0.255 C 
HETATM   32  O3  UNK     1      31.760  -8.553  37.407  1.00  0.00    -0.268 OA
HETATM   33  N1  UNK     1      32.347  -6.532  36.409  1.00  0.00    -0.349 N 
BRANCH  33  34
HETATM   34  C13 UNK     1      33.099  -6.004  37.544  1.00  0.00     0.121 C 
HETATM   35  C21 UNK     1      32.226  -5.145  38.436  1.00  0.00     0.026 C 
ENDBRANCH  33  34
BRANCH  33  36
HETATM   36  C14 UNK     1      32.281  -5.666  35.239  1.00  0.00     0.121 C 
HETATM   37  C22 UNK     1      33.580  -5.688  34.460  1.00  0.00     0.026 C 
ENDBRANCH  33  36
ENDBRANCH  27  31
ENDBRANCH   8  13
ENDBRANCH   4   5
ENDBRANCH   2   4
TORSDOF 8
ENDMDL
