MODEL 1
REMARK VINA RESULT:      -7.1      0.000      0.000
REMARK  5 active torsions:
REMARK  status: ('A' for Active; 'I' for Inactive)
REMARK    1  A    between atoms: C10_17  and  O2_2 
REMARK    2  A    between atoms: C3_10  and  O2_2 
REMARK    3  A    between atoms: C11_18  and  O3_3 
REMARK    4  A    between atoms: C4_11  and  O3_3 
REMARK    5  A    between atoms: C5_12  and  O4_4 
ROOT
HETATM    1  O1  UNK     1      19.046   4.253  30.275  1.00  0.00    -0.272 OA
HETATM    2  O5  UNK     1      19.104   6.486  29.771  1.00  0.00    -0.260 OA
HETATM    3  C1  UNK     1      18.296   3.557  32.483  1.00  0.00     0.004 A 
HETATM    4  C2  UNK     1      18.766   3.237  31.212  1.00  0.00     0.126 A 
HETATM    5  C3  UNK     1      18.977   1.917  30.819  1.00  0.00     0.150 A 
HETATM    6  C4  UNK     1      18.710   0.893  31.724  1.00  0.00     0.149 A 
HETATM    7  C5  UNK     1      18.238   1.194  33.003  1.00  0.00     0.105 A 
HETATM    8  C6  UNK     1      18.030   2.523  33.384  1.00  0.00     0.054 A 
HETATM    9  C7  UNK     1      18.097   4.955  32.827  1.00  0.00     0.020 A 
HETATM   10  C8  UNK     1      18.364   5.911  31.933  1.00  0.00     0.083 A 
HETATM   11  C9  UNK     1      18.863   5.598  30.581  1.00  0.00     0.288 A 
ENDROOT
BRANCH   5  12
HETATM   12  O2  UNK     1      19.439   1.632  29.570  1.00  0.00    -0.273 OA
BRANCH  12  13
HETATM   13  C10 UNK     1      18.432   1.293  28.650  1.00  0.00     0.260 C 
HETATM   14  O6  UNK     1      17.456   1.977  28.376  1.00  0.00    -0.265 OA
HETATM   15  C13 UNK     1      18.723  -0.046  28.042  1.00  0.00     0.126 C 
ENDBRANCH  12  13
ENDBRANCH   5  12
BRANCH   6  16
HETATM   16  O3  UNK     1      18.912  -0.406  31.362  1.00  0.00    -0.273 OA
BRANCH  16  17
HETATM   17  C11 UNK     1      20.208  -0.878  31.626  1.00  0.00     0.260 C 
HETATM   18  O7  UNK     1      21.250  -0.363  31.245  1.00  0.00    -0.265 OA
HETATM   19  C14 UNK     1      20.138  -2.126  32.455  1.00  0.00     0.126 C 
ENDBRANCH  16  17
ENDBRANCH   6  16
BRANCH   7  20
HETATM   20  O4  UNK     1      17.975   0.197  33.894  1.00  0.00    -0.353 OA
HETATM   21  C12 UNK     1      17.106   0.512  34.980  1.00  0.00     0.210 C 
ENDBRANCH   7  20
TORSDOF 5
ENDMDL
MODEL 2
REMARK VINA RESULT:      -7.1      2.101      3.702
REMARK  5 active torsions:
REMARK  status: ('A' for Active; 'I' for Inactive)
REMARK    1  A    between atoms: C10_17  and  O2_2 
REMARK    2  A    between atoms: C3_10  and  O2_2 
REMARK    3  A    between atoms: C11_18  and  O3_3 
REMARK    4  A    between atoms: C4_11  and  O3_3 
REMARK    5  A    between atoms: C5_12  and  O4_4 
ROOT
HETATM    1  O1  UNK     1      18.675   0.741  31.082  1.00  0.00    -0.272 OA
HETATM    2  O5  UNK     1      18.614   2.011  29.178  1.00  0.00    -0.260 OA
HETATM    3  C1  UNK     1      18.365   1.825  33.239  1.00  0.00     0.004 A 
HETATM    4  C2  UNK     1      18.588   0.674  32.488  1.00  0.00     0.126 A 
HETATM    5  C3  UNK     1      18.734  -0.575  33.088  1.00  0.00     0.150 A 
HETATM    6  C4  UNK     1      18.654  -0.671  34.475  1.00  0.00     0.149 A 
HETATM    7  C5  UNK     1      18.430   0.472  35.245  1.00  0.00     0.105 A 
HETATM    8  C6  UNK     1      18.285   1.720  34.630  1.00  0.00     0.054 A 
HETATM    9  C7  UNK     1      18.221   3.096  32.549  1.00  0.00     0.020 A 
HETATM   10  C8  UNK     1      18.303   3.150  31.217  1.00  0.00     0.083 A 
HETATM   11  C9  UNK     1      18.540   1.945  30.400  1.00  0.00     0.288 A 
ENDROOT
BRANCH   5  12
HETATM   12  O2  UNK     1      18.952  -1.686  32.331  1.00  0.00    -0.273 OA
BRANCH  12  13
HETATM   13  C10 UNK     1      20.264  -1.796  31.839  1.00  0.00     0.260 C 
HETATM   14  O6  UNK     1      21.287  -1.650  32.494  1.00  0.00    -0.265 OA
HETATM   15  C13 UNK     1      20.237  -2.121  30.376  1.00  0.00     0.126 C 
ENDBRANCH  12  13
ENDBRANCH   5  12
BRANCH   6  16
HETATM   16  O3  UNK     1      18.796  -1.883  35.084  1.00  0.00    -0.273 OA
BRANCH  16  17
HETATM   17  C11 UNK     1      19.980  -2.014  35.826  1.00  0.00     0.260 C 
HETATM   18  O7  UNK     1      21.072  -1.553  35.521  1.00  0.00    -0.265 OA
HETATM   19  C14 UNK     1      19.720  -2.815  37.067  1.00  0.00     0.126 C 
ENDBRANCH  16  17
ENDBRANCH   6  16
BRANCH   7  20
HETATM   20  O4  UNK     1      18.351   0.386  36.602  1.00  0.00    -0.353 OA
HETATM   21  C12 UNK     1      17.045   0.367  37.174  1.00  0.00     0.210 C 
ENDBRANCH   7  20
TORSDOF 5
ENDMDL
MODEL 3
REMARK VINA RESULT:      -7.0      2.257      4.287
REMARK  5 active torsions:
REMARK  status: ('A' for Active; 'I' for Inactive)
REMARK    1  A    between atoms: C10_17  and  O2_2 
REMARK    2  A    between atoms: C3_10  and  O2_2 
REMARK    3  A    between atoms: C11_18  and  O3_3 
REMARK    4  A    between atoms: C4_11  and  O3_3 
REMARK    5  A    between atoms: C5_12  and  O4_4 
ROOT
HETATM    1  O1  UNK     1      18.054   2.995  33.321  1.00  0.00    -0.272 OA
HETATM    2  O5  UNK     1      17.736   5.234  32.963  1.00  0.00    -0.260 OA
HETATM    3  C1  UNK     1      18.842   1.602  31.486  1.00  0.00     0.004 A 
HETATM    4  C2  UNK     1      18.437   1.737  32.812  1.00  0.00     0.126 A 
HETATM    5  C3  UNK     1      18.393   0.647  33.679  1.00  0.00     0.150 A 
HETATM    6  C4  UNK     1      18.765  -0.609  33.204  1.00  0.00     0.149 A 
HETATM    7  C5  UNK     1      19.174  -0.763  31.878  1.00  0.00     0.105 A 
HETATM    8  C6  UNK     1      19.214   0.340  31.019  1.00  0.00     0.054 A 
HETATM    9  C7  UNK     1      18.865   2.782  30.638  1.00  0.00     0.020 A 
HETATM   10  C8  UNK     1      18.501   3.970  31.128  1.00  0.00     0.083 A 
HETATM   11  C9  UNK     1      18.068   4.137  32.527  1.00  0.00     0.288 A 
ENDROOT
BRANCH   5  12
HETATM   12  O2  UNK     1      17.992   0.804  34.971  1.00  0.00    -0.273 OA
BRANCH  12  13
HETATM   13  C10 UNK     1      16.630   0.536  35.186  1.00  0.00     0.260 C 
HETATM   14  O6  UNK     1      15.755   0.551  34.330  1.00  0.00    -0.265 OA
HETATM   15  C13 UNK     1      16.391   0.225  36.633  1.00  0.00     0.126 C 
ENDBRANCH  12  13
ENDBRANCH   5  12
BRANCH   6  16
HETATM   16  O3  UNK     1      18.728  -1.690  34.034  1.00  0.00    -0.273 OA
BRANCH  16  17
HETATM   17  C11 UNK     1      19.926  -1.915  34.733  1.00  0.00     0.260 C 
HETATM   18  O7  UNK     1      21.025  -2.105  34.229  1.00  0.00    -0.265 OA
HETATM   19  C14 UNK     1      19.667  -1.892  36.210  1.00  0.00     0.126 C 
ENDBRANCH  16  17
ENDBRANCH   6  16
BRANCH   7  20
HETATM   20  O4  UNK     1      19.539  -1.987  31.406  1.00  0.00    -0.353 OA
HETATM   21  C12 UNK     1      20.328  -2.015  30.218  1.00  0.00     0.210 C 
ENDBRANCH   7  20
TORSDOF 5
ENDMDL
MODEL 4
REMARK VINA RESULT:      -7.0      1.890      5.594
REMARK  5 active torsions:
REMARK  status: ('A' for Active; 'I' for Inactive)
REMARK    1  A    between atoms: C10_17  and  O2_2 
REMARK    2  A    between atoms: C3_10  and  O2_2 
REMARK    3  A    between atoms: C11_18  and  O3_3 
REMARK    4  A    between atoms: C4_11  and  O3_3 
REMARK    5  A    between atoms: C5_12  and  O4_4 
ROOT
HETATM    1  O1  UNK     1      19.877  -1.365  31.651  1.00  0.00    -0.272 OA
HETATM    2  O5  UNK     1      20.905  -3.074  30.526  1.00  0.00    -0.260 OA
HETATM    3  C1  UNK     1      19.346   0.689  30.457  1.00  0.00     0.004 A 
HETATM    4  C2  UNK     1      19.337  -0.063  31.630  1.00  0.00     0.126 A 
HETATM    5  C3  UNK     1      18.800   0.435  32.815  1.00  0.00     0.150 A 
HETATM    6  C4  UNK     1      18.259   1.719  32.824  1.00  0.00     0.149 A 
HETATM    7  C5  UNK     1      18.260   2.487  31.658  1.00  0.00     0.105 A 
HETATM    8  C6  UNK     1      18.802   1.975  30.475  1.00  0.00     0.054 A 
HETATM    9  C7  UNK     1      19.922   0.107  29.257  1.00  0.00     0.020 A 
HETATM   10  C8  UNK     1      20.431  -1.128  29.286  1.00  0.00     0.083 A 
HETATM   11  C9  UNK     1      20.433  -1.942  30.514  1.00  0.00     0.288 A 
ENDROOT
BRANCH   5  12
HETATM   12  O2  UNK     1      18.803  -0.319  33.949  1.00  0.00    -0.273 OA
BRANCH  12  13
HETATM   13  C10 UNK     1      17.554  -0.878  34.270  1.00  0.00     0.260 C 
HETATM   14  O6  UNK     1      16.700  -1.227  33.467  1.00  0.00    -0.265 OA
HETATM   15  C13 UNK     1      17.410  -0.987  35.758  1.00  0.00     0.126 C 
ENDBRANCH  12  13
ENDBRANCH   5  12
BRANCH   6  16
HETATM   16  O3  UNK     1      17.730   2.228  33.973  1.00  0.00    -0.273 OA
BRANCH  16  17
HETATM   17  C11 UNK     1      18.628   3.010  34.718  1.00  0.00     0.260 C 
HETATM   18  O7  UNK     1      18.948   4.165  34.470  1.00  0.00    -0.265 OA
HETATM   19  C14 UNK     1      19.152   2.219  35.879  1.00  0.00     0.126 C 
ENDBRANCH  16  17
ENDBRANCH   6  16
BRANCH   7  20
HETATM   20  O4  UNK     1      17.733   3.744  31.659  1.00  0.00    -0.353 OA
HETATM   21  C12 UNK     1      18.558   4.791  31.152  1.00  0.00     0.210 C 
ENDBRANCH   7  20
TORSDOF 5
ENDMDL
MODEL 5
REMARK VINA RESULT:      -7.0     15.066     17.834
REMARK  5 active torsions:
REMARK  status: ('A' for Active; 'I' for Inactive)
REMARK    1  A    between atoms: C10_17  and  O2_2 
REMARK    2  A    between atoms: C3_10  and  O2_2 
REMARK    3  A    between atoms: C11_18  and  O3_3 
REMARK    4  A    between atoms: C4_11  and  O3_3 
REMARK    5  A    between atoms: C5_12  and  O4_4 
ROOT
HETATM    1  O1  UNK     1      19.423   0.205  14.682  1.00  0.00    -0.272 OA
HETATM    2  O5  UNK     1      19.841   2.200  15.726  1.00  0.00    -0.260 OA
HETATM    3  C1  UNK     1      18.617  -1.675  16.001  1.00  0.00     0.004 A 
HETATM    4  C2  UNK     1      18.999  -1.137  14.775  1.00  0.00     0.126 A 
HETATM    5  C3  UNK     1      18.979  -1.892  13.604  1.00  0.00     0.150 A 
HETATM    6  C4  UNK     1      18.565  -3.221  13.665  1.00  0.00     0.149 A 
HETATM    7  C5  UNK     1      18.178  -3.778  14.886  1.00  0.00     0.105 A 
HETATM    8  C6  UNK     1      18.203  -3.008  16.053  1.00  0.00     0.054 A 
HETATM    9  C7  UNK     1      18.661  -0.830  17.182  1.00  0.00     0.020 A 
HETATM   10  C8  UNK     1      19.064   0.440  17.085  1.00  0.00     0.083 A 
HETATM   11  C9  UNK     1      19.473   1.033  15.799  1.00  0.00     0.288 A 
ENDROOT
BRANCH   5  12
HETATM   12  O2  UNK     1      19.358  -1.342  12.418  1.00  0.00    -0.273 OA
BRANCH  12  13
HETATM   13  C10 UNK     1      20.740  -1.399  12.175  1.00  0.00     0.260 C 
HETATM   14  O6  UNK     1      21.618  -1.057  12.956  1.00  0.00    -0.265 OA
HETATM   15  C13 UNK     1      20.998  -1.944  10.802  1.00  0.00     0.126 C 
ENDBRANCH  12  13
ENDBRANCH   5  12
BRANCH   6  16
HETATM   16  O3  UNK     1      18.539  -3.979  12.533  1.00  0.00    -0.273 OA
BRANCH  16  17
HETATM   17  C11 UNK     1      19.564  -4.938  12.464  1.00  0.00     0.260 C 
HETATM   18  O7  UNK     1      20.701  -4.802  12.894  1.00  0.00    -0.265 OA
HETATM   19  C14 UNK     1      19.063  -6.172  11.775  1.00  0.00     0.126 C 
ENDBRANCH  16  17
ENDBRANCH   6  16
BRANCH   7  20
HETATM   20  O4  UNK     1      17.773  -5.077  14.954  1.00  0.00    -0.353 OA
HETATM   21  C12 UNK     1      18.506  -5.939  15.821  1.00  0.00     0.210 C 
ENDBRANCH   7  20
TORSDOF 5
ENDMDL
MODEL 6
REMARK VINA RESULT:      -7.0      2.043      5.103
REMARK  5 active torsions:
REMARK  status: ('A' for Active; 'I' for Inactive)
REMARK    1  A    between atoms: C10_17  and  O2_2 
REMARK    2  A    between atoms: C3_10  and  O2_2 
REMARK    3  A    between atoms: C11_18  and  O3_3 
REMARK    4  A    between atoms: C4_11  and  O3_3 
REMARK    5  A    between atoms: C5_12  and  O4_4 
ROOT
HETATM    1  O1  UNK     1      18.770   0.827  30.926  1.00  0.00    -0.272 OA
HETATM    2  O5  UNK     1      19.200   1.315  28.730  1.00  0.00    -0.260 OA
HETATM    3  C1  UNK     1      19.784  -1.150  31.920  1.00  0.00     0.004 A 
HETATM    4  C2  UNK     1      18.972  -0.025  32.032  1.00  0.00     0.126 A 
HETATM    5  C3  UNK     1      18.331   0.301  33.226  1.00  0.00     0.150 A 
HETATM    6  C4  UNK     1      18.511  -0.522  34.335  1.00  0.00     0.149 A 
HETATM    7  C5  UNK     1      19.323  -1.654  34.242  1.00  0.00     0.105 A 
HETATM    8  C6  UNK     1      19.959  -1.970  33.038  1.00  0.00     0.054 A 
HETATM    9  C7  UNK     1      20.422  -1.430  30.645  1.00  0.00     0.020 A 
HETATM   10  C8  UNK     1      20.227  -0.618  29.603  1.00  0.00     0.083 A 
HETATM   11  C9  UNK     1      19.371   0.579  29.696  1.00  0.00     0.288 A 
ENDROOT
BRANCH   5  12
HETATM   12  O2  UNK     1      17.541   1.407  33.309  1.00  0.00    -0.273 OA
BRANCH  12  13
HETATM   13  C10 UNK     1      18.211   2.559  33.754  1.00  0.00     0.260 C 
HETATM   14  O6  UNK     1      18.754   2.694  34.842  1.00  0.00    -0.265 OA
HETATM   15  C13 UNK     1      18.167   3.619  32.694  1.00  0.00     0.126 C 
ENDBRANCH  12  13
ENDBRANCH   5  12
BRANCH   6  16
HETATM   16  O3  UNK     1      17.893  -0.224  35.513  1.00  0.00    -0.273 OA
BRANCH  16  17
HETATM   17  C11 UNK     1      16.510  -0.471  35.511  1.00  0.00     0.260 C 
HETATM   18  O7  UNK     1      15.949  -1.399  34.943  1.00  0.00    -0.265 OA
HETATM   19  C14 UNK     1      15.802   0.580  36.312  1.00  0.00     0.126 C 
ENDBRANCH  16  17
ENDBRANCH   6  16
BRANCH   7  20
HETATM   20  O4  UNK     1      19.503  -2.465  35.322  1.00  0.00    -0.353 OA
HETATM   21  C12 UNK     1      20.728  -2.326  36.038  1.00  0.00     0.210 C 
ENDBRANCH   7  20
TORSDOF 5
ENDMDL
MODEL 7
REMARK VINA RESULT:      -6.9      2.494      5.586
REMARK  5 active torsions:
REMARK  status: ('A' for Active; 'I' for Inactive)
REMARK    1  A    between atoms: C10_17  and  O2_2 
REMARK    2  A    between atoms: C3_10  and  O2_2 
REMARK    3  A    between atoms: C11_18  and  O3_3 
REMARK    4  A    between atoms: C4_11  and  O3_3 
REMARK    5  A    between atoms: C5_12  and  O4_4 
ROOT
HETATM    1  O1  UNK     1      18.405  -0.324  36.362  1.00  0.00    -0.272 OA
HETATM    2  O5  UNK     1      18.003   0.339  38.516  1.00  0.00    -0.260 OA
HETATM    3  C1  UNK     1      18.231   1.311  34.567  1.00  0.00     0.004 A 
HETATM    4  C2  UNK     1      18.485   0.011  34.994  1.00  0.00     0.126 A 
HETATM    5  C3  UNK     1      18.824  -1.002  34.099  1.00  0.00     0.150 A 
HETATM    6  C4  UNK     1      18.910  -0.701  32.741  1.00  0.00     0.149 A 
HETATM    7  C5  UNK     1      18.659   0.598  32.294  1.00  0.00     0.105 A 
HETATM    8  C6  UNK     1      18.320   1.604  33.204  1.00  0.00     0.054 A 
HETATM    9  C7  UNK     1      17.884   2.318  35.556  1.00  0.00     0.020 A 
HETATM   10  C8  UNK     1      17.811   1.993  36.849  1.00  0.00     0.083 A 
HETATM   11  C9  UNK     1      18.075   0.623  37.326  1.00  0.00     0.288 A 
ENDROOT
BRANCH   5  12
HETATM   12  O2  UNK     1      19.067  -2.266  34.542  1.00  0.00    -0.273 OA
BRANCH  12  13
HETATM   13  C10 UNK     1      20.334  -2.437  35.123  1.00  0.00     0.260 C 
HETATM   14  O6  UNK     1      21.395  -2.045  34.655  1.00  0.00    -0.265 OA
HETATM   15  C13 UNK     1      20.208  -3.179  36.420  1.00  0.00     0.126 C 
ENDBRANCH  12  13
ENDBRANCH   5  12
BRANCH   6  16
HETATM   16  O3  UNK     1      19.238  -1.676  31.847  1.00  0.00    -0.273 OA
BRANCH  16  17
HETATM   17  C11 UNK     1      20.474  -1.476  31.211  1.00  0.00     0.260 C 
HETATM   18  O7  UNK     1      21.459  -0.947  31.709  1.00  0.00    -0.265 OA
HETATM   19  C14 UNK     1      20.420  -2.008  29.810  1.00  0.00     0.126 C 
ENDBRANCH  16  17
ENDBRANCH   6  16
BRANCH   7  20
HETATM   20  O4  UNK     1      18.741   0.899  30.969  1.00  0.00    -0.353 OA
HETATM   21  C12 UNK     1      18.650   2.277  30.611  1.00  0.00     0.210 C 
ENDBRANCH   7  20
TORSDOF 5
ENDMDL
MODEL 8
REMARK VINA RESULT:      -6.8      1.808      6.142
REMARK  5 active torsions:
REMARK  status: ('A' for Active; 'I' for Inactive)
REMARK    1  A    between atoms: C10_17  and  O2_2 
REMARK    2  A    between atoms: C3_10  and  O2_2 
REMARK    3  A    between atoms: C11_18  and  O3_3 
REMARK    4  A    between atoms: C4_11  and  O3_3 
REMARK    5  A    between atoms: C5_12  and  O4_4 
ROOT
HETATM    1  O1  UNK     1      19.521  -1.223  33.875  1.00  0.00    -0.272 OA
HETATM    2  O5  UNK     1      20.481  -3.209  34.492  1.00  0.00    -0.260 OA
HETATM    3  C1  UNK     1      19.740  -0.467  31.572  1.00  0.00     0.004 A 
HETATM    4  C2  UNK     1      19.263  -0.273  32.866  1.00  0.00     0.126 A 
HETATM    5  C3  UNK     1      18.521   0.854  33.213  1.00  0.00     0.150 A 
HETATM    6  C4  UNK     1      18.251   1.811  32.236  1.00  0.00     0.149 A 
HETATM    7  C5  UNK     1      18.720   1.633  30.933  1.00  0.00     0.105 A 
HETATM    8  C6  UNK     1      19.464   0.497  30.599  1.00  0.00     0.054 A 
HETATM    9  C7  UNK     1      20.506  -1.666  31.280  1.00  0.00     0.020 A 
HETATM   10  C8  UNK     1      20.746  -2.562  32.242  1.00  0.00     0.083 A 
HETATM   11  C9  UNK     1      20.252  -2.379  33.619  1.00  0.00     0.288 A 
ENDROOT
BRANCH   5  12
HETATM   12  O2  UNK     1      18.067   1.021  34.485  1.00  0.00    -0.273 OA
BRANCH  12  13
HETATM   13  C10 UNK     1      16.836   0.394  34.742  1.00  0.00     0.260 C 
HETATM   14  O6  UNK     1      15.781   0.629  34.169  1.00  0.00    -0.265 OA
HETATM   15  C13 UNK     1      16.996  -0.620  35.834  1.00  0.00     0.126 C 
ENDBRANCH  12  13
ENDBRANCH   5  12
BRANCH   6  16
HETATM   16  O3  UNK     1      17.528   2.923  32.553  1.00  0.00    -0.273 OA
BRANCH  16  17
HETATM   17  C11 UNK     1      18.302   3.983  33.054  1.00  0.00     0.260 C 
HETATM   18  O7  UNK     1      18.863   4.009  34.141  1.00  0.00    -0.265 OA
HETATM   19  C14 UNK     1      18.346   5.100  32.054  1.00  0.00     0.126 C 
ENDBRANCH  16  17
ENDBRANCH   6  16
BRANCH   7  20
HETATM   20  O4  UNK     1      18.461   2.564  29.973  1.00  0.00    -0.353 OA
HETATM   21  C12 UNK     1      17.964   2.086  28.725  1.00  0.00     0.210 C 
ENDBRANCH   7  20
TORSDOF 5
ENDMDL
MODEL 9
REMARK VINA RESULT:      -6.8      4.342      7.028
REMARK  5 active torsions:
REMARK  status: ('A' for Active; 'I' for Inactive)
REMARK    1  A    between atoms: C10_17  and  O2_2 
REMARK    2  A    between atoms: C3_10  and  O2_2 
REMARK    3  A    between atoms: C11_18  and  O3_3 
REMARK    4  A    between atoms: C4_11  and  O3_3 
REMARK    5  A    between atoms: C5_12  and  O4_4 
ROOT
HETATM    1  O1  UNK     1      16.511  10.270  33.847  1.00  0.00    -0.272 OA
HETATM    2  O5  UNK     1      16.000  12.484  34.137  1.00  0.00    -0.260 OA
HETATM    3  C1  UNK     1      18.832   9.557  34.028  1.00  0.00     0.004 A 
HETATM    4  C2  UNK     1      17.490   9.256  33.810  1.00  0.00     0.126 A 
HETATM    5  C3  UNK     1      17.064   7.955  33.548  1.00  0.00     0.150 A 
HETATM    6  C4  UNK     1      18.008   6.932  33.504  1.00  0.00     0.149 A 
HETATM    7  C5  UNK     1      19.358   7.215  33.721  1.00  0.00     0.105 A 
HETATM    8  C6  UNK     1      19.772   8.525  33.982  1.00  0.00     0.054 A 
HETATM    9  C7  UNK     1      19.205  10.935  34.297  1.00  0.00     0.020 A 
HETATM   10  C8  UNK     1      18.272  11.890  34.331  1.00  0.00     0.083 A 
HETATM   11  C9  UNK     1      16.846  11.596  34.103  1.00  0.00     0.288 A 
ENDROOT
BRANCH   5  12
HETATM   12  O2  UNK     1      15.746   7.686  33.337  1.00  0.00    -0.273 OA
BRANCH  12  13
HETATM   13  C10 UNK     1      15.341   7.818  31.999  1.00  0.00     0.260 C 
HETATM   14  O6  UNK     1      15.951   8.415  31.122  1.00  0.00    -0.265 OA
HETATM   15  C13 UNK     1      14.033   7.115  31.787  1.00  0.00     0.126 C 
ENDBRANCH  12  13
ENDBRANCH   5  12
BRANCH   6  16
HETATM   16  O3  UNK     1      17.615   5.652  33.247  1.00  0.00    -0.273 OA
BRANCH  16  17
HETATM   17  C11 UNK     1      17.973   5.190  31.970  1.00  0.00     0.260 C 
HETATM   18  O7  UNK     1      18.116   5.883  30.972  1.00  0.00    -0.265 OA
HETATM   19  C14 UNK     1      18.155   3.701  31.998  1.00  0.00     0.126 C 
ENDBRANCH  16  17
ENDBRANCH   6  16
BRANCH   7  20
HETATM   20  O4  UNK     1      20.288   6.220  33.679  1.00  0.00    -0.353 OA
HETATM   21  C12 UNK     1      21.319   6.338  32.700  1.00  0.00     0.210 C 
ENDBRANCH   7  20
TORSDOF 5
ENDMDL
MODEL 10
REMARK VINA RESULT:      -6.8      4.113      7.457
REMARK  5 active torsions:
REMARK  status: ('A' for Active; 'I' for Inactive)
REMARK    1  A    between atoms: C10_17  and  O2_2 
REMARK    2  A    between atoms: C3_10  and  O2_2 
REMARK    3  A    between atoms: C11_18  and  O3_3 
REMARK    4  A    between atoms: C4_11  and  O3_3 
REMARK    5  A    between atoms: C5_12  and  O4_4 
ROOT
HETATM    1  O1  UNK     1      17.980   5.401  31.157  1.00  0.00    -0.272 OA
HETATM    2  O5  UNK     1      18.454   3.985  29.421  1.00  0.00    -0.260 OA
HETATM    3  C1  UNK     1      19.809   6.540  32.290  1.00  0.00     0.004 A 
HETATM    4  C2  UNK     1      18.447   6.286  32.151  1.00  0.00     0.126 A 
HETATM    5  C3  UNK     1      17.501   6.888  32.978  1.00  0.00     0.150 A 
HETATM    6  C4  UNK     1      17.933   7.767  33.968  1.00  0.00     0.149 A 
HETATM    7  C5  UNK     1      19.295   8.034  34.123  1.00  0.00     0.105 A 
HETATM    8  C6  UNK     1      20.233   7.422  33.286  1.00  0.00     0.054 A 
HETATM    9  C7  UNK     1      20.741   5.878  31.392  1.00  0.00     0.020 A 
HETATM   10  C8  UNK     1      20.290   5.041  30.453  1.00  0.00     0.083 A 
HETATM   11  C9  UNK     1      18.853   4.756  30.287  1.00  0.00     0.288 A 
ENDROOT
BRANCH   5  12
HETATM   12  O2  UNK     1      16.175   6.623  32.822  1.00  0.00    -0.273 OA
BRANCH  12  13
HETATM   13  C10 UNK     1      15.529   7.455  31.892  1.00  0.00     0.260 C 
HETATM   14  O6  UNK     1      16.081   8.225  31.118  1.00  0.00    -0.265 OA
HETATM   15  C13 UNK     1      14.044   7.267  31.982  1.00  0.00     0.126 C 
ENDBRANCH  12  13
ENDBRANCH   5  12
BRANCH   6  16
HETATM   16  O3  UNK     1      17.025   8.367  34.791  1.00  0.00    -0.273 OA
BRANCH  16  17
HETATM   17  C11 UNK     1      16.545   9.596  34.311  1.00  0.00     0.260 C 
HETATM   18  O7  UNK     1      17.152  10.367  33.580  1.00  0.00    -0.265 OA
HETATM   19  C14 UNK     1      15.160   9.841  34.831  1.00  0.00     0.126 C 
ENDBRANCH  16  17
ENDBRANCH   6  16
BRANCH   7  20
HETATM   20  O4  UNK     1      19.725   8.892  35.090  1.00  0.00    -0.353 OA
HETATM   21  C12 UNK     1      20.703   9.858  34.710  1.00  0.00     0.210 C 
ENDBRANCH   7  20
TORSDOF 5
ENDMDL
