MODEL 1
REMARK VINA RESULT:      -8.7      0.000      0.000
REMARK  4 active torsions:
REMARK  status: ('A' for Active; 'I' for Inactive)
REMARK    1  A    between atoms: C7_12  and  O2_2 
REMARK    2  A    between atoms: C9_14  and  O4_4 
REMARK    3  A    between atoms: C11_16  and  O5_5 
REMARK    4  A    between atoms: C3_8  and  C4_9 
ROOT
HETATM    1  O1  UNK     1      19.118  -0.920  17.651  1.00  0.00    -0.306 OA
HETATM    2  O3  UNK     1      19.302   2.426  15.335  1.00  0.00    -0.287 OA
HETATM    3  C1  UNK     1      19.175   1.504  17.507  1.00  0.00     0.051 A 
HETATM    4  C2  UNK     1      19.115   0.319  18.239  1.00  0.00     0.126 A 
HETATM    5  C3  UNK     1      19.174  -0.995  16.268  1.00  0.00     0.093 A 
HETATM    6  C5  UNK     1      19.244   1.428  16.040  1.00  0.00     0.187 A 
HETATM    7  C6  UNK     1      19.242   0.072  15.455  1.00  0.00     0.094 A 
HETATM    8  C7  UNK     1      19.050   0.363  19.632  1.00  0.00     0.134 A 
HETATM    9  C8  UNK     1      19.169   2.739  18.159  1.00  0.00     0.021 A 
HETATM   10  C9  UNK     1      19.043   1.596  20.287  1.00  0.00     0.101 A 
HETATM   11  C10 UNK     1      19.102   2.780  19.553  1.00  0.00     0.040 A 
ENDROOT
BRANCH   5  12
HETATM   12  C4  UNK     1      19.178  -2.374  15.741  1.00  0.00     0.031 A 
HETATM   13  C11 UNK     1      20.245  -3.244  15.989  1.00  0.00     0.078 A 
HETATM   14  C13 UNK     1      20.225  -4.543  15.480  1.00  0.00     0.037 A 
HETATM   15  C15 UNK     1      19.139  -4.978  14.722  1.00  0.00     0.003 A 
HETATM   16  C14 UNK     1      18.073  -4.115  14.471  1.00  0.00     0.001 A 
HETATM   17  C12 UNK     1      18.092  -2.816  14.980  1.00  0.00     0.017 A 
BRANCH  13  18
HETATM   18  O5  UNK     1      21.319  -2.844  16.728  1.00  0.00    -0.360 OA
HETATM   19  H10 UNK     1      22.034  -2.568  16.129  1.00  0.00     0.217 HD
ENDBRANCH  13  18
ENDBRANCH   5  12
BRANCH   8  20
HETATM   20  O2  UNK     1      18.991  -0.791  20.355  1.00  0.00    -0.356 OA
HETATM   21  H8  UNK     1      19.482  -0.659  21.184  1.00  0.00     0.218 HD
ENDBRANCH   8  20
BRANCH  10  22
HETATM   22  O4  UNK     1      18.979   1.655  21.647  1.00  0.00    -0.358 OA
HETATM   23  H9  UNK     1      18.691   2.545  21.911  1.00  0.00     0.217 HD
ENDBRANCH  10  22
TORSDOF 4
ENDMDL
MODEL 2
REMARK VINA RESULT:      -8.7     11.296     13.598
REMARK  4 active torsions:
REMARK  status: ('A' for Active; 'I' for Inactive)
REMARK    1  A    between atoms: C7_12  and  O2_2 
REMARK    2  A    between atoms: C9_14  and  O4_4 
REMARK    3  A    between atoms: C11_16  and  O5_5 
REMARK    4  A    between atoms: C3_8  and  C4_9 
ROOT
HETATM    1  O1  UNK     1      13.256   7.496   8.466  1.00  0.00    -0.306 OA
HETATM    2  O3  UNK     1      15.342   4.234   9.732  1.00  0.00    -0.287 OA
HETATM    3  C1  UNK     1      15.267   6.582   9.475  1.00  0.00     0.051 A 
HETATM    4  C2  UNK     1      14.500   7.654   9.022  1.00  0.00     0.126 A 
HETATM    5  C3  UNK     1      12.746   6.213   8.342  1.00  0.00     0.093 A 
HETATM    6  C5  UNK     1      14.725   5.220   9.353  1.00  0.00     0.187 A 
HETATM    7  C6  UNK     1      13.384   5.103   8.745  1.00  0.00     0.094 A 
HETATM    8  C7  UNK     1      14.991   8.956   9.127  1.00  0.00     0.134 A 
HETATM    9  C8  UNK     1      16.529   6.802  10.033  1.00  0.00     0.021 A 
HETATM   10  C9  UNK     1      16.251   9.179   9.684  1.00  0.00     0.101 A 
HETATM   11  C10 UNK     1      17.018   8.105  10.135  1.00  0.00     0.040 A 
ENDROOT
BRANCH   5  12
HETATM   12  C4  UNK     1      11.400   6.159   7.737  1.00  0.00     0.031 A 
HETATM   13  C11 UNK     1      11.226   6.170   6.349  1.00  0.00     0.078 A 
HETATM   14  C13 UNK     1       9.944   6.118   5.801  1.00  0.00     0.037 A 
HETATM   15  C15 UNK     1       8.830   6.055   6.638  1.00  0.00     0.003 A 
HETATM   16  C14 UNK     1       8.998   6.044   8.023  1.00  0.00     0.001 A 
HETATM   17  C12 UNK     1      10.279   6.096   8.571  1.00  0.00     0.017 A 
BRANCH  13  18
HETATM   18  O5  UNK     1      12.298   6.231   5.508  1.00  0.00    -0.360 OA
HETATM   19  H10 UNK     1      12.127   5.670   4.732  1.00  0.00     0.217 HD
ENDBRANCH  13  18
ENDBRANCH   5  12
BRANCH   8  20
HETATM   20  O2  UNK     1      14.246  10.010   8.687  1.00  0.00    -0.356 OA
HETATM   21  H8  UNK     1      13.305   9.773   8.760  1.00  0.00     0.218 HD
ENDBRANCH   8  20
BRANCH  10  22
HETATM   22  O4  UNK     1      16.744  10.445   9.792  1.00  0.00    -0.358 OA
HETATM   23  H9  UNK     1      17.128  10.708   8.939  1.00  0.00     0.217 HD
ENDBRANCH  10  22
TORSDOF 4
ENDMDL
MODEL 3
REMARK VINA RESULT:      -8.5     13.433     16.671
REMARK  4 active torsions:
REMARK  status: ('A' for Active; 'I' for Inactive)
REMARK    1  A    between atoms: C7_12  and  O2_2 
REMARK    2  A    between atoms: C9_14  and  O4_4 
REMARK    3  A    between atoms: C11_16  and  O5_5 
REMARK    4  A    between atoms: C3_8  and  C4_9 
ROOT
HETATM    1  O1  UNK     1      18.398  -0.525  33.302  1.00  0.00    -0.306 OA
HETATM    2  O3  UNK     1      20.562  -3.017  35.690  1.00  0.00    -0.287 OA
HETATM    3  C1  UNK     1      18.782  -1.474  35.504  1.00  0.00     0.051 A 
HETATM    4  C2  UNK     1      18.083  -0.642  34.632  1.00  0.00     0.126 A 
HETATM    5  C3  UNK     1      19.464  -1.262  32.808  1.00  0.00     0.093 A 
HETATM    6  C5  UNK     1      19.907  -2.264  34.982  1.00  0.00     0.187 A 
HETATM    7  C6  UNK     1      20.208  -2.102  33.545  1.00  0.00     0.094 A 
HETATM    8  C7  UNK     1      17.011   0.118  35.102  1.00  0.00     0.134 A 
HETATM    9  C8  UNK     1      18.418  -1.553  36.850  1.00  0.00     0.021 A 
HETATM   10  C9  UNK     1      16.644   0.041  36.446  1.00  0.00     0.101 A 
HETATM   11  C10 UNK     1      17.346  -0.792  37.318  1.00  0.00     0.040 A 
ENDROOT
BRANCH   5  12
HETATM   12  C4  UNK     1      19.711  -1.066  31.366  1.00  0.00     0.031 A 
HETATM   13  C11 UNK     1      19.424   0.150  30.738  1.00  0.00     0.078 A 
HETATM   14  C13 UNK     1      19.667   0.310  29.373  1.00  0.00     0.037 A 
HETATM   15  C15 UNK     1      20.197  -0.744  28.631  1.00  0.00     0.003 A 
HETATM   16  C14 UNK     1      20.485  -1.959  29.252  1.00  0.00     0.001 A 
HETATM   17  C12 UNK     1      20.242  -2.120  30.616  1.00  0.00     0.017 A 
BRANCH  13  18
HETATM   18  O5  UNK     1      18.906   1.197  31.440  1.00  0.00    -0.360 OA
HETATM   19  H10 UNK     1      18.410   0.856  32.204  1.00  0.00     0.217 HD
ENDBRANCH  13  18
ENDBRANCH   5  12
BRANCH   8  20
HETATM   20  O2  UNK     1      16.322   0.934  34.255  1.00  0.00    -0.356 OA
HETATM   21  H8  UNK     1      16.797   1.781  34.190  1.00  0.00     0.218 HD
ENDBRANCH   8  20
BRANCH  10  22
HETATM   22  O4  UNK     1      15.600   0.778  36.920  1.00  0.00    -0.358 OA
HETATM   23  H9  UNK     1      15.091   1.125  36.169  1.00  0.00     0.217 HD
ENDBRANCH  10  22
TORSDOF 4
ENDMDL
MODEL 4
REMARK VINA RESULT:      -8.4     12.617     16.537
REMARK  4 active torsions:
REMARK  status: ('A' for Active; 'I' for Inactive)
REMARK    1  A    between atoms: C7_12  and  O2_2 
REMARK    2  A    between atoms: C9_14  and  O4_4 
REMARK    3  A    between atoms: C11_16  and  O5_5 
REMARK    4  A    between atoms: C3_8  and  C4_9 
ROOT
HETATM    1  O1  UNK     1      18.972  -0.071  32.905  1.00  0.00    -0.306 OA
HETATM    2  O3  UNK     1      18.588   2.996  30.251  1.00  0.00    -0.287 OA
HETATM    3  C1  UNK     1      19.297   0.778  30.652  1.00  0.00     0.051 A 
HETATM    4  C2  UNK     1      19.398  -0.230  31.610  1.00  0.00     0.126 A 
HETATM    5  C3  UNK     1      18.426   1.148  33.276  1.00  0.00     0.093 A 
HETATM    6  C5  UNK     1      18.710   2.070  31.041  1.00  0.00     0.187 A 
HETATM    7  C6  UNK     1      18.270   2.191  32.445  1.00  0.00     0.094 A 
HETATM    8  C7  UNK     1      19.949  -1.464  31.268  1.00  0.00     0.134 A 
HETATM    9  C8  UNK     1      19.747   0.561  29.348  1.00  0.00     0.021 A 
HETATM   10  C9  UNK     1      20.400  -1.685  29.965  1.00  0.00     0.101 A 
HETATM   11  C10 UNK     1      20.300  -0.675  29.008  1.00  0.00     0.040 A 
ENDROOT
BRANCH   5  12
HETATM   12  C4  UNK     1      17.997   1.208  34.687  1.00  0.00     0.031 A 
HETATM   13  C11 UNK     1      16.883   0.493  35.139  1.00  0.00     0.078 A 
HETATM   14  C13 UNK     1      16.497   0.565  36.478  1.00  0.00     0.037 A 
HETATM   15  C15 UNK     1      17.222   1.354  37.371  1.00  0.00     0.003 A 
HETATM   16  C14 UNK     1      18.333   2.070  36.926  1.00  0.00     0.001 A 
HETATM   17  C12 UNK     1      18.720   1.997  35.587  1.00  0.00     0.017 A 
BRANCH  13  18
HETATM   18  O5  UNK     1      16.157  -0.286  34.287  1.00  0.00    -0.360 OA
HETATM   19  H10 UNK     1      16.480  -1.202  34.337  1.00  0.00     0.217 HD
ENDBRANCH  13  18
ENDBRANCH   5  12
BRANCH   8  20
HETATM   20  O2  UNK     1      20.051  -2.455  32.198  1.00  0.00    -0.356 OA
HETATM   21  H8  UNK     1      19.215  -2.497  32.695  1.00  0.00     0.218 HD
ENDBRANCH   8  20
BRANCH  10  22
HETATM   22  O4  UNK     1      20.942  -2.885  29.615  1.00  0.00    -0.358 OA
HETATM   23  H9  UNK     1      20.227  -3.496  29.372  1.00  0.00     0.217 HD
ENDBRANCH  10  22
TORSDOF 4
ENDMDL
MODEL 5
REMARK VINA RESULT:      -8.4     13.247     17.156
REMARK  4 active torsions:
REMARK  status: ('A' for Active; 'I' for Inactive)
REMARK    1  A    between atoms: C7_12  and  O2_2 
REMARK    2  A    between atoms: C9_14  and  O4_4 
REMARK    3  A    between atoms: C11_16  and  O5_5 
REMARK    4  A    between atoms: C3_8  and  C4_9 
ROOT
HETATM    1  O1  UNK     1      18.506  -0.069  32.896  1.00  0.00    -0.306 OA
HETATM    2  O3  UNK     1      20.812  -3.333  33.686  1.00  0.00    -0.287 OA
HETATM    3  C1  UNK     1      20.026  -1.781  32.086  1.00  0.00     0.051 A 
HETATM    4  C2  UNK     1      19.219  -0.663  31.886  1.00  0.00     0.126 A 
HETATM    5  C3  UNK     1      18.586  -0.612  34.169  1.00  0.00     0.093 A 
HETATM    6  C5  UNK     1      20.121  -2.354  33.437  1.00  0.00     0.187 A 
HETATM    7  C6  UNK     1      19.332  -1.681  34.489  1.00  0.00     0.094 A 
HETATM    8  C7  UNK     1      19.113  -0.099  30.614  1.00  0.00     0.134 A 
HETATM    9  C8  UNK     1      20.731  -2.345  31.020  1.00  0.00     0.021 A 
HETATM   10  C9  UNK     1      19.815  -0.659  29.546  1.00  0.00     0.101 A 
HETATM   11  C10 UNK     1      20.621  -1.780  29.748  1.00  0.00     0.040 A 
ENDROOT
BRANCH   5  12
HETATM   12  C4  UNK     1      17.785   0.107  35.179  1.00  0.00     0.031 A 
HETATM   13  C11 UNK     1      18.366   1.055  36.028  1.00  0.00     0.078 A 
HETATM   14  C13 UNK     1      17.588   1.721  36.975  1.00  0.00     0.037 A 
HETATM   15  C15 UNK     1      16.226   1.443  37.078  1.00  0.00     0.003 A 
HETATM   16  C14 UNK     1      15.641   0.499  36.235  1.00  0.00     0.001 A 
HETATM   17  C12 UNK     1      16.418  -0.167  35.288  1.00  0.00     0.017 A 
BRANCH  13  18
HETATM   18  O5  UNK     1      19.696   1.346  35.948  1.00  0.00    -0.360 OA
HETATM   19  H10 UNK     1      19.995   1.711  36.798  1.00  0.00     0.217 HD
ENDBRANCH  13  18
ENDBRANCH   5  12
BRANCH   8  20
HETATM   20  O2  UNK     1      18.326   0.995  30.410  1.00  0.00    -0.356 OA
HETATM   21  H8  UNK     1      17.548   0.928  30.990  1.00  0.00     0.218 HD
ENDBRANCH   8  20
BRANCH  10  22
HETATM   22  O4  UNK     1      19.721  -0.121  28.298  1.00  0.00    -0.358 OA
HETATM   23  H9  UNK     1      20.509  -0.369  27.786  1.00  0.00     0.217 HD
ENDBRANCH  10  22
TORSDOF 4
ENDMDL
MODEL 6
REMARK VINA RESULT:      -8.1     12.768     16.679
REMARK  4 active torsions:
REMARK  status: ('A' for Active; 'I' for Inactive)
REMARK    1  A    between atoms: C7_12  and  O2_2 
REMARK    2  A    between atoms: C9_14  and  O4_4 
REMARK    3  A    between atoms: C11_16  and  O5_5 
REMARK    4  A    between atoms: C3_8  and  C4_9 
ROOT
HETATM    1  O1  UNK     1      18.204   0.733  32.811  1.00  0.00    -0.306 OA
HETATM    2  O3  UNK     1      20.530  -2.417  31.687  1.00  0.00    -0.287 OA
HETATM    3  C1  UNK     1      19.490  -0.384  31.080  1.00  0.00     0.051 A 
HETATM    4  C2  UNK     1      18.690   0.665  31.530  1.00  0.00     0.126 A 
HETATM    5  C3  UNK     1      18.516  -0.292  33.692  1.00  0.00     0.093 A 
HETATM    6  C5  UNK     1      19.831  -1.468  32.014  1.00  0.00     0.187 A 
HETATM    7  C6  UNK     1      19.281  -1.350  33.380  1.00  0.00     0.094 A 
HETATM    8  C7  UNK     1      18.353   1.706  30.665  1.00  0.00     0.134 A 
HETATM    9  C8  UNK     1      19.957  -0.402  29.764  1.00  0.00     0.021 A 
HETATM   10  C9  UNK     1      18.818   1.691  29.349  1.00  0.00     0.101 A 
HETATM   11  C10 UNK     1      19.618   0.640  28.900  1.00  0.00     0.040 A 
ENDROOT
BRANCH   5  12
HETATM   12  C4  UNK     1      17.948  -0.116  35.043  1.00  0.00     0.031 A 
HETATM   13  C11 UNK     1      16.652   0.378  35.228  1.00  0.00     0.078 A 
HETATM   14  C13 UNK     1      16.137   0.536  36.514  1.00  0.00     0.037 A 
HETATM   15  C15 UNK     1      16.915   0.201  37.622  1.00  0.00     0.003 A 
HETATM   16  C14 UNK     1      18.208  -0.292  37.444  1.00  0.00     0.001 A 
HETATM   17  C12 UNK     1      18.723  -0.449  36.158  1.00  0.00     0.017 A 
BRANCH  13  18
HETATM   18  O5  UNK     1      15.870   0.713  34.162  1.00  0.00    -0.360 OA
HETATM   19  H10 UNK     1      15.479  -0.094  33.786  1.00  0.00     0.217 HD
ENDBRANCH  13  18
ENDBRANCH   5  12
BRANCH   8  20
HETATM   20  O2  UNK     1      17.572   2.735  31.098  1.00  0.00    -0.356 OA
HETATM   21  H8  UNK     1      17.065   2.433  31.871  1.00  0.00     0.218 HD
ENDBRANCH   8  20
BRANCH  10  22
HETATM   22  O4  UNK     1      18.497   2.701  28.491  1.00  0.00    -0.358 OA
HETATM   23  H9  UNK     1      17.574   2.964  28.645  1.00  0.00     0.217 HD
ENDBRANCH  10  22
TORSDOF 4
ENDMDL
MODEL 7
REMARK VINA RESULT:      -8.1     12.975     16.710
REMARK  4 active torsions:
REMARK  status: ('A' for Active; 'I' for Inactive)
REMARK    1  A    between atoms: C7_12  and  O2_2 
REMARK    2  A    between atoms: C9_14  and  O4_4 
REMARK    3  A    between atoms: C11_16  and  O5_5 
REMARK    4  A    between atoms: C3_8  and  C4_9 
ROOT
HETATM    1  O1  UNK     1      18.760   0.104  32.947  1.00  0.00    -0.306 OA
HETATM    2  O3  UNK     1      17.815   4.050  32.590  1.00  0.00    -0.287 OA
HETATM    3  C1  UNK     1      18.539   2.065  31.532  1.00  0.00     0.051 A 
HETATM    4  C2  UNK     1      18.846   0.719  31.724  1.00  0.00     0.126 A 
HETATM    5  C3  UNK     1      18.358   0.857  34.038  1.00  0.00     0.093 A 
HETATM    6  C5  UNK     1      18.103   2.865  32.686  1.00  0.00     0.187 A 
HETATM    7  C6  UNK     1      18.030   2.158  33.981  1.00  0.00     0.094 A 
HETATM    8  C7  UNK     1      19.261  -0.062  30.645  1.00  0.00     0.134 A 
HETATM    9  C8  UNK     1      18.645   2.640  30.263  1.00  0.00     0.021 A 
HETATM   10  C9  UNK     1      19.368   0.509  29.376  1.00  0.00     0.101 A 
HETATM   11  C10 UNK     1      19.062   1.857  29.186  1.00  0.00     0.040 A 
ENDROOT
BRANCH   5  12
HETATM   12  C4  UNK     1      18.294   0.095  35.302  1.00  0.00     0.031 A 
HETATM   13  C11 UNK     1      19.011  -1.093  35.471  1.00  0.00     0.078 A 
HETATM   14  C13 UNK     1      18.934  -1.795  36.674  1.00  0.00     0.037 A 
HETATM   15  C15 UNK     1      18.140  -1.312  37.714  1.00  0.00     0.003 A 
HETATM   16  C14 UNK     1      17.422  -0.127  37.551  1.00  0.00     0.001 A 
HETATM   17  C12 UNK     1      17.499   0.574  36.347  1.00  0.00     0.017 A 
BRANCH  13  18
HETATM   18  O5  UNK     1      19.796  -1.588  34.471  1.00  0.00    -0.360 OA
HETATM   19  H10 UNK     1      19.750  -0.992  33.705  1.00  0.00     0.217 HD
ENDBRANCH  13  18
ENDBRANCH   5  12
BRANCH   8  20
HETATM   20  O2  UNK     1      19.563  -1.379  30.825  1.00  0.00    -0.356 OA
HETATM   21  H8  UNK     1      20.174  -1.455  31.578  1.00  0.00     0.218 HD
ENDBRANCH   8  20
BRANCH  10  22
HETATM   22  O4  UNK     1      19.773  -0.241  28.313  1.00  0.00    -0.358 OA
HETATM   23  H9  UNK     1      19.233  -0.009  27.538  1.00  0.00     0.217 HD
ENDBRANCH  10  22
TORSDOF 4
ENDMDL
MODEL 8
REMARK VINA RESULT:      -8.0     13.342     16.516
REMARK  4 active torsions:
REMARK  status: ('A' for Active; 'I' for Inactive)
REMARK    1  A    between atoms: C7_12  and  O2_2 
REMARK    2  A    between atoms: C9_14  and  O4_4 
REMARK    3  A    between atoms: C11_16  and  O5_5 
REMARK    4  A    between atoms: C3_8  and  C4_9 
ROOT
HETATM    1  O1  UNK     1      18.891  -0.445  33.545  1.00  0.00    -0.306 OA
HETATM    2  O3  UNK     1      17.789   3.396  34.339  1.00  0.00    -0.287 OA
HETATM    3  C1  UNK     1      18.085   1.195  35.145  1.00  0.00     0.051 A 
HETATM    4  C2  UNK     1      18.477  -0.099  34.806  1.00  0.00     0.126 A 
HETATM    5  C3  UNK     1      18.912   0.535  32.565  1.00  0.00     0.093 A 
HETATM    6  C5  UNK     1      18.115   2.239  34.110  1.00  0.00     0.187 A 
HETATM    7  C6  UNK     1      18.566   1.817  32.769  1.00  0.00     0.094 A 
HETATM    8  C7  UNK     1      18.458  -1.108  35.769  1.00  0.00     0.134 A 
HETATM    9  C8  UNK     1      17.672   1.490  36.447  1.00  0.00     0.021 A 
HETATM   10  C9  UNK     1      18.046  -0.817  37.071  1.00  0.00     0.101 A 
HETATM   11  C10 UNK     1      17.654   0.478  37.408  1.00  0.00     0.040 A 
ENDROOT
BRANCH   5  12
HETATM   12  C4  UNK     1      19.379   0.057  31.248  1.00  0.00     0.031 A 
HETATM   13  C11 UNK     1      20.188  -1.078  31.132  1.00  0.00     0.078 A 
HETATM   14  C13 UNK     1      20.616  -1.510  29.877  1.00  0.00     0.037 A 
HETATM   15  C15 UNK     1      20.238  -0.809  28.732  1.00  0.00     0.003 A 
HETATM   16  C14 UNK     1      19.432   0.324  28.841  1.00  0.00     0.001 A 
HETATM   17  C12 UNK     1      19.004   0.756  30.097  1.00  0.00     0.017 A 
BRANCH  13  18
HETATM   18  O5  UNK     1      20.572  -1.782  32.235  1.00  0.00    -0.360 OA
HETATM   19  H10 UNK     1      20.430  -1.236  33.027  1.00  0.00     0.217 HD
ENDBRANCH  13  18
ENDBRANCH   5  12
BRANCH   8  20
HETATM   20  O2  UNK     1      18.840  -2.376  35.446  1.00  0.00    -0.356 OA
HETATM   21  H8  UNK     1      19.786  -2.474  35.649  1.00  0.00     0.218 HD
ENDBRANCH   8  20
BRANCH  10  22
HETATM   22  O4  UNK     1      18.022  -1.792  38.022  1.00  0.00    -0.358 OA
HETATM   23  H9  UNK     1      18.556  -1.505  38.782  1.00  0.00     0.217 HD
ENDBRANCH  10  22
TORSDOF 4
ENDMDL
MODEL 9
REMARK VINA RESULT:      -8.0     11.476     13.770
REMARK  4 active torsions:
REMARK  status: ('A' for Active; 'I' for Inactive)
REMARK    1  A    between atoms: C7_12  and  O2_2 
REMARK    2  A    between atoms: C9_14  and  O4_4 
REMARK    3  A    between atoms: C11_16  and  O5_5 
REMARK    4  A    between atoms: C3_8  and  C4_9 
ROOT
HETATM    1  O1  UNK     1      13.151   7.756   8.410  1.00  0.00    -0.306 OA
HETATM    2  O3  UNK     1      15.329   4.447   9.359  1.00  0.00    -0.287 OA
HETATM    3  C1  UNK     1      15.167   6.804   9.374  1.00  0.00     0.051 A 
HETATM    4  C2  UNK     1      14.370   7.893   9.024  1.00  0.00     0.126 A 
HETATM    5  C3  UNK     1      12.697   6.478   8.121  1.00  0.00     0.093 A 
HETATM    6  C5  UNK     1      14.684   5.447   9.076  1.00  0.00     0.187 A 
HETATM    7  C6  UNK     1      13.367   5.353   8.413  1.00  0.00     0.094 A 
HETATM    8  C7  UNK     1      14.804   9.190   9.296  1.00  0.00     0.134 A 
HETATM    9  C8  UNK     1      16.401   7.002   9.997  1.00  0.00     0.021 A 
HETATM   10  C9  UNK     1      16.037   9.393   9.918  1.00  0.00     0.101 A 
HETATM   11  C10 UNK     1      16.833   8.302  10.267  1.00  0.00     0.040 A 
ENDROOT
BRANCH   5  12
HETATM   12  C4  UNK     1      11.373   6.446   7.467  1.00  0.00     0.031 A 
HETATM   13  C11 UNK     1      10.196   6.628   8.200  1.00  0.00     0.078 A 
HETATM   14  C13 UNK     1       8.957   6.593   7.561  1.00  0.00     0.037 A 
HETATM   15  C15 UNK     1       8.889   6.376   6.185  1.00  0.00     0.003 A 
HETATM   16  C14 UNK     1      10.059   6.193   5.448  1.00  0.00     0.001 A 
HETATM   17  C12 UNK     1      11.298   6.228   6.088  1.00  0.00     0.017 A 
BRANCH  13  18
HETATM   18  O5  UNK     1      10.234   6.843   9.547  1.00  0.00    -0.360 OA
HETATM   19  H10 UNK     1       9.406   7.269   9.826  1.00  0.00     0.217 HD
ENDBRANCH  13  18
ENDBRANCH   5  12
BRANCH   8  20
HETATM   20  O2  UNK     1      14.031  10.260   8.956  1.00  0.00    -0.356 OA
HETATM   21  H8  UNK     1      13.133  10.113   9.301  1.00  0.00     0.218 HD
ENDBRANCH   8  20
BRANCH  10  22
HETATM   22  O4  UNK     1      16.475  10.654  10.190  1.00  0.00    -0.358 OA
HETATM   23  H9  UNK     1      17.390  10.608  10.514  1.00  0.00     0.217 HD
ENDBRANCH  10  22
TORSDOF 4
ENDMDL
MODEL 10
REMARK VINA RESULT:      -8.0      1.603      6.069
REMARK  4 active torsions:
REMARK  status: ('A' for Active; 'I' for Inactive)
REMARK    1  A    between atoms: C7_12  and  O2_2 
REMARK    2  A    between atoms: C9_14  and  O4_4 
REMARK    3  A    between atoms: C11_16  and  O5_5 
REMARK    4  A    between atoms: C3_8  and  C4_9 
ROOT
HETATM    1  O1  UNK     1      20.409  -1.731  17.562  1.00  0.00    -0.306 OA
HETATM    2  O3  UNK     1      17.803  -3.044  14.720  1.00  0.00    -0.287 OA
HETATM    3  C1  UNK     1      19.811  -3.409  15.911  1.00  0.00     0.051 A 
HETATM    4  C2  UNK     1      20.659  -2.903  16.894  1.00  0.00     0.126 A 
HETATM    5  C3  UNK     1      19.266  -1.017  17.237  1.00  0.00     0.093 A 
HETATM    6  C5  UNK     1      18.593  -2.658  15.570  1.00  0.00     0.187 A 
HETATM    7  C6  UNK     1      18.370  -1.402  16.315  1.00  0.00     0.094 A 
HETATM    8  C7  UNK     1      21.821  -3.596  17.237  1.00  0.00     0.134 A 
HETATM    9  C8  UNK     1      20.116  -4.608  15.262  1.00  0.00     0.021 A 
HETATM   10  C9  UNK     1      22.129  -4.794  16.591  1.00  0.00     0.101 A 
HETATM   11  C10 UNK     1      21.279  -5.299  15.606  1.00  0.00     0.040 A 
ENDROOT
BRANCH   5  12
HETATM   12  C4  UNK     1      19.092   0.223  18.019  1.00  0.00     0.031 A 
HETATM   13  C11 UNK     1      18.898   0.189  19.404  1.00  0.00     0.078 A 
HETATM   14  C13 UNK     1      18.735   1.374  20.121  1.00  0.00     0.037 A 
HETATM   15  C15 UNK     1      18.766   2.600  19.457  1.00  0.00     0.003 A 
HETATM   16  C14 UNK     1      18.958   2.641  18.076  1.00  0.00     0.001 A 
HETATM   17  C12 UNK     1      19.121   1.456  17.359  1.00  0.00     0.017 A 
BRANCH  13  18
HETATM   18  O5  UNK     1      18.865  -0.997  20.078  1.00  0.00    -0.360 OA
HETATM   19  H10 UNK     1      19.775  -1.279  20.272  1.00  0.00     0.217 HD
ENDBRANCH  13  18
ENDBRANCH   5  12
BRANCH   8  20
HETATM   20  O2  UNK     1      22.656  -3.108  18.197  1.00  0.00    -0.356 OA
HETATM   21  H8  UNK     1      23.565  -3.378  17.981  1.00  0.00     0.218 HD
ENDBRANCH   8  20
BRANCH  10  22
HETATM   22  O4  UNK     1      23.260  -5.482  16.914  1.00  0.00    -0.358 OA
HETATM   23  H9  UNK     1      23.822  -4.922  17.474  1.00  0.00     0.217 HD
ENDBRANCH  10  22
TORSDOF 4
ENDMDL
