MODEL 1
REMARK VINA RESULT:      -9.0      0.000      0.000
REMARK  4 active torsions:
REMARK  status: ('A' for Active; 'I' for Inactive)
REMARK    1  A    between atoms: C1_8  and  O1_2 
REMARK    2  A    between atoms: C16_23  and  O1_2 
REMARK    3  A    between atoms: C15_22  and  C6_13 
REMARK    4  A    between atoms: C16_23  and  C9_16 
ROOT
HETATM    1  O2  UNK     1      29.019  -5.455  32.262  1.00  0.00    -0.293 OA
HETATM    2  N1  UNK     1      29.043 -10.108  31.379  1.00  0.00    -0.362 N 
HETATM    3  C6  UNK     1      29.998  -8.044  33.075  1.00  0.00     0.104 C 
HETATM    4  C7  UNK     1      29.008  -7.807  31.939  1.00  0.00     0.024 C 
HETATM    5  C8  UNK     1      28.565  -8.828  31.176  1.00  0.00     0.020 C 
HETATM    6  C9  UNK     1      30.543  -9.475  33.097  1.00  0.00     0.052 C 
HETATM    7  C10 UNK     1      27.551  -8.659  30.075  1.00  0.00     0.058 C 
HETATM    8  C11 UNK     1      26.729  -7.388  30.242  1.00  0.00     0.014 C 
HETATM    9  C12 UNK     1      30.046 -10.433  32.280  1.00  0.00     0.018 C 
HETATM   10  C13 UNK     1      27.629  -6.187  30.465  1.00  0.00     0.084 C 
HETATM   11  C14 UNK     1      28.571  -6.410  31.627  1.00  0.00     0.158 C 
HETATM   12  C17 UNK     1      30.498 -11.867  32.214  1.00  0.00     0.069 C 
HETATM   13  H17 UNK     1      28.693 -10.845  30.777  1.00  0.00     0.165 HD
ENDROOT
BRANCH   3  14
HETATM   14  C15 UNK     1      29.360  -7.709  34.396  1.00  0.00     0.029 A 
HETATM   15  C18 UNK     1      29.938  -6.606  35.204  1.00  0.00     0.194 A 
HETATM   16  C20 UNK     1      29.275  -6.319  36.489  1.00  0.00     0.050 A 
HETATM   17  O5  UNK     1      30.911  -5.966  34.828  1.00  0.00    -0.287 OA
HETATM   18  C21 UNK     1      28.168  -7.081  36.866  1.00  0.00     0.089 A 
HETATM   19  C22 UNK     1      29.744  -5.300  37.322  1.00  0.00     0.042 A 
HETATM   20  O4  UNK     1      27.664  -8.093  36.089  1.00  0.00    -0.321 OA
HETATM   21  C23 UNK     1      27.525  -6.827  38.078  1.00  0.00     0.040 A 
HETATM   22  C19 UNK     1      28.293  -8.348  34.894  1.00  0.00     0.154 A 
HETATM   23  C25 UNK     1      27.992  -5.810  38.911  1.00  0.00     0.026 A 
HETATM   24  C24 UNK     1      29.099  -5.049  38.534  1.00  0.00     0.035 A 
HETATM   25 Cl1  UNK     1      29.670  -3.795  39.567  1.00  0.00    -0.084 Cl
ENDBRANCH   3  14
BRANCH   6  26
HETATM   26  C16 UNK     1      31.639  -9.733  34.048  1.00  0.00     0.292 C 
HETATM   27  O3  UNK     1      32.801  -9.454  33.820  1.00  0.00    -0.259 OA
BRANCH  26  28
HETATM   28  O1  UNK     1      31.115 -10.309  35.156  1.00  0.00    -0.312 OA
BRANCH  28  29
HETATM   29  C1  UNK     1      31.728  -9.933  36.373  1.00  0.00     0.132 C 
HETATM   30  C2  UNK     1      30.687  -9.618  37.434  1.00  0.00     0.032 C 
HETATM   31  C4  UNK     1      31.443  -8.767  38.448  1.00  0.00     0.002 C 
HETATM   32  C5  UNK     1      32.589  -8.111  37.676  1.00  0.00     0.002 C 
HETATM   33  C3  UNK     1      32.481  -8.619  36.244  1.00  0.00     0.032 C 
ENDBRANCH  28  29
ENDBRANCH  26  28
ENDBRANCH   6  26
TORSDOF 4
ENDMDL
MODEL 2
REMARK VINA RESULT:      -8.8      3.431      6.365
REMARK  4 active torsions:
REMARK  status: ('A' for Active; 'I' for Inactive)
REMARK    1  A    between atoms: C1_8  and  O1_2 
REMARK    2  A    between atoms: C16_23  and  O1_2 
REMARK    3  A    between atoms: C15_22  and  C6_13 
REMARK    4  A    between atoms: C16_23  and  C9_16 
ROOT
HETATM    1  O2  UNK     1      28.500  -9.587  36.423  1.00  0.00    -0.293 OA
HETATM    2  N1  UNK     1      30.748  -5.609  37.671  1.00  0.00    -0.362 N 
HETATM    3  C6  UNK     1      30.427  -7.581  35.657  1.00  0.00     0.104 C 
HETATM    4  C7  UNK     1      29.600  -7.547  36.938  1.00  0.00     0.024 C 
HETATM    5  C8  UNK     1      29.774  -6.572  37.855  1.00  0.00     0.020 C 
HETATM    6  C9  UNK     1      31.552  -6.543  35.649  1.00  0.00     0.052 C 
HETATM    7  C10 UNK     1      28.953  -6.461  39.111  1.00  0.00     0.058 C 
HETATM    8  C11 UNK     1      27.630  -7.208  39.000  1.00  0.00     0.014 C 
HETATM    9  C12 UNK     1      31.658  -5.609  36.624  1.00  0.00     0.018 C 
HETATM   10  C13 UNK     1      27.849  -8.627  38.509  1.00  0.00     0.084 C 
HETATM   11  C14 UNK     1      28.624  -8.649  37.210  1.00  0.00     0.158 C 
HETATM   12  C17 UNK     1      32.715  -4.541  36.722  1.00  0.00     0.069 C 
HETATM   13  H17 UNK     1      30.854  -4.901  38.388  1.00  0.00     0.165 HD
ENDROOT
BRANCH   3  14
HETATM   14  C15 UNK     1      29.535  -7.390  34.460  1.00  0.00     0.029 A 
HETATM   15  C18 UNK     1      29.612  -8.377  33.353  1.00  0.00     0.194 A 
HETATM   16  C20 UNK     1      28.717  -8.144  32.205  1.00  0.00     0.050 A 
HETATM   17  O5  UNK     1      30.374  -9.334  33.387  1.00  0.00    -0.287 OA
HETATM   18  C21 UNK     1      27.868  -7.036  32.220  1.00  0.00     0.089 A 
HETATM   19  C22 UNK     1      28.715  -9.016  31.113  1.00  0.00     0.042 A 
HETATM   20  O4  UNK     1      27.827  -6.148  33.265  1.00  0.00    -0.321 OA
HETATM   21  C23 UNK     1      27.012  -6.796  31.145  1.00  0.00     0.040 A 
HETATM   22  C19 UNK     1      28.667  -6.378  34.328  1.00  0.00     0.154 A 
HETATM   23  C25 UNK     1      27.009  -7.666  30.054  1.00  0.00     0.026 A 
HETATM   24  C24 UNK     1      27.859  -8.773  30.039  1.00  0.00     0.035 A 
HETATM   25 Cl1  UNK     1      27.849  -9.842  28.689  1.00  0.00    -0.084 Cl
ENDBRANCH   3  14
BRANCH   6  26
HETATM   26  C16 UNK     1      32.507  -6.633  34.531  1.00  0.00     0.292 C 
HETATM   27  O3  UNK     1      32.390  -6.000  33.499  1.00  0.00    -0.259 OA
BRANCH  26  28
HETATM   28  O1  UNK     1      33.480  -7.512  34.872  1.00  0.00    -0.312 OA
BRANCH  28  29
HETATM   29  C1  UNK     1      34.723  -7.308  34.230  1.00  0.00     0.132 C 
HETATM   30  C2  UNK     1      35.278  -8.614  33.688  1.00  0.00     0.032 C 
HETATM   31  C4  UNK     1      36.767  -8.337  33.516  1.00  0.00     0.002 C 
HETATM   32  C5  UNK     1      37.106  -7.223  34.509  1.00  0.00     0.002 C 
HETATM   33  C3  UNK     1      35.799  -6.869  35.209  1.00  0.00     0.032 C 
ENDBRANCH  28  29
ENDBRANCH  26  28
ENDBRANCH   6  26
TORSDOF 4
ENDMDL
MODEL 3
REMARK VINA RESULT:      -8.7      3.361      6.267
REMARK  4 active torsions:
REMARK  status: ('A' for Active; 'I' for Inactive)
REMARK    1  A    between atoms: C1_8  and  O1_2 
REMARK    2  A    between atoms: C16_23  and  O1_2 
REMARK    3  A    between atoms: C15_22  and  C6_13 
REMARK    4  A    between atoms: C16_23  and  C9_16 
ROOT
HETATM    1  O2  UNK     1      26.973 -10.072  36.264  1.00  0.00    -0.293 OA
HETATM    2  N1  UNK     1      29.742  -6.993  38.564  1.00  0.00    -0.362 N 
HETATM    3  C6  UNK     1      29.465  -8.619  36.256  1.00  0.00     0.104 C 
HETATM    4  C7  UNK     1      28.375  -8.468  37.311  1.00  0.00     0.024 C 
HETATM    5  C8  UNK     1      28.546  -7.661  38.380  1.00  0.00     0.020 C 
HETATM    6  C9  UNK     1      30.776  -7.936  36.655  1.00  0.00     0.052 C 
HETATM    7  C10 UNK     1      27.486  -7.436  39.425  1.00  0.00     0.058 C 
HETATM    8  C11 UNK     1      26.093  -7.775  38.912  1.00  0.00     0.014 C 
HETATM    9  C12 UNK     1      30.858  -7.155  37.758  1.00  0.00     0.018 C 
HETATM   10  C13 UNK     1      26.072  -9.152  38.274  1.00  0.00     0.084 C 
HETATM   11  C14 UNK     1      27.121  -9.276  37.191  1.00  0.00     0.158 C 
HETATM   12  C17 UNK     1      32.086  -6.433  38.247  1.00  0.00     0.069 C 
HETATM   13  H17 UNK     1      29.834  -6.406  39.385  1.00  0.00     0.165 HD
ENDROOT
BRANCH   3  14
HETATM   14  C15 UNK     1      28.982  -8.087  34.933  1.00  0.00     0.029 A 
HETATM   15  C18 UNK     1      28.996  -8.993  33.756  1.00  0.00     0.194 A 
HETATM   16  C20 UNK     1      28.513  -8.422  32.486  1.00  0.00     0.050 A 
HETATM   17  O5  UNK     1      29.385 -10.151  33.832  1.00  0.00    -0.287 OA
HETATM   18  C21 UNK     1      28.081  -7.095  32.460  1.00  0.00     0.089 A 
HETATM   19  C22 UNK     1      28.487  -9.193  31.321  1.00  0.00     0.042 A 
HETATM   20  O4  UNK     1      28.083  -6.292  33.572  1.00  0.00    -0.321 OA
HETATM   21  C23 UNK     1      27.619  -6.534  31.268  1.00  0.00     0.040 A 
HETATM   22  C19 UNK     1      28.536  -6.837  34.748  1.00  0.00     0.154 A 
HETATM   23  C25 UNK     1      27.592  -7.303  30.104  1.00  0.00     0.026 A 
HETATM   24  C24 UNK     1      28.025  -8.629  30.132  1.00  0.00     0.035 A 
HETATM   25 Cl1  UNK     1      27.989  -9.573  28.691  1.00  0.00    -0.084 Cl
ENDBRANCH   3  14
BRANCH   6  26
HETATM   26  C16 UNK     1      31.931  -8.190  35.776  1.00  0.00     0.292 C 
HETATM   27  O3  UNK     1      32.592  -9.211  35.820  1.00  0.00    -0.259 OA
BRANCH  26  28
HETATM   28  O1  UNK     1      32.091  -7.120  34.962  1.00  0.00    -0.312 OA
BRANCH  28  29
HETATM   29  C1  UNK     1      33.384  -6.549  34.971  1.00  0.00     0.132 C 
HETATM   30  C2  UNK     1      33.311  -5.032  34.997  1.00  0.00     0.032 C 
HETATM   31  C4  UNK     1      34.680  -4.590  34.492  1.00  0.00     0.002 C 
HETATM   32  C5  UNK     1      35.202  -5.740  33.627  1.00  0.00     0.002 C 
HETATM   33  C3  UNK     1      34.132  -6.825  33.677  1.00  0.00     0.032 C 
ENDBRANCH  28  29
ENDBRANCH  26  28
ENDBRANCH   6  26
TORSDOF 4
ENDMDL
MODEL 4
REMARK VINA RESULT:      -8.6      1.600      2.093
REMARK  4 active torsions:
REMARK  status: ('A' for Active; 'I' for Inactive)
REMARK    1  A    between atoms: C1_8  and  O1_2 
REMARK    2  A    between atoms: C16_23  and  O1_2 
REMARK    3  A    between atoms: C15_22  and  C6_13 
REMARK    4  A    between atoms: C16_23  and  C9_16 
ROOT
HETATM    1  O2  UNK     1      28.874  -5.354  32.298  1.00  0.00    -0.293 OA
HETATM    2  N1  UNK     1      29.737  -9.921  31.385  1.00  0.00    -0.362 N 
HETATM    3  C6  UNK     1      30.340  -7.717  33.067  1.00  0.00     0.104 C 
HETATM    4  C7  UNK     1      29.291  -7.666  31.960  1.00  0.00     0.024 C 
HETATM    5  C8  UNK     1      29.023  -8.752  31.203  1.00  0.00     0.020 C 
HETATM    6  C9  UNK     1      31.142  -9.022  33.065  1.00  0.00     0.052 C 
HETATM    7  C10 UNK     1      27.965  -8.773  30.133  1.00  0.00     0.058 C 
HETATM    8  C11 UNK     1      26.926  -7.676  30.331  1.00  0.00     0.014 C 
HETATM    9  C12 UNK     1      30.807 -10.054  32.256  1.00  0.00     0.018 C 
HETATM   10  C13 UNK     1      27.594  -6.329  30.535  1.00  0.00     0.084 C 
HETATM   11  C14 UNK     1      28.594  -6.374  31.670  1.00  0.00     0.158 C 
HETATM   12  C17 UNK     1      31.515 -11.380  32.168  1.00  0.00     0.069 C 
HETATM   13  H17 UNK     1      29.512 -10.709  30.789  1.00  0.00     0.165 HD
ENDROOT
BRANCH   3  14
HETATM   14  C15 UNK     1      29.688  -7.508  34.407  1.00  0.00     0.029 A 
HETATM   15  C18 UNK     1      30.131  -6.360  35.240  1.00  0.00     0.194 A 
HETATM   16  C20 UNK     1      29.461  -6.201  36.543  1.00  0.00     0.050 A 
HETATM   17  O5  UNK     1      31.003  -5.586  34.869  1.00  0.00    -0.287 OA
HETATM   18  C21 UNK     1      28.473  -7.114  36.914  1.00  0.00     0.089 A 
HETATM   19  C22 UNK     1      29.807  -5.153  37.400  1.00  0.00     0.042 A 
HETATM   20  O4  UNK     1      28.092  -8.162  36.113  1.00  0.00    -0.321 OA
HETATM   21  C23 UNK     1      27.825  -6.983  38.143  1.00  0.00     0.040 A 
HETATM   22  C19 UNK     1      28.725  -8.297  34.901  1.00  0.00     0.154 A 
HETATM   23  C25 UNK     1      28.169  -5.936  38.999  1.00  0.00     0.026 A 
HETATM   24  C24 UNK     1      29.157  -5.024  38.628  1.00  0.00     0.035 A 
HETATM   25 Cl1  UNK     1      29.577  -3.735  39.691  1.00  0.00    -0.084 Cl
ENDBRANCH   3  14
BRANCH   6  26
HETATM   26  C16 UNK     1      32.293  -9.073  33.983  1.00  0.00     0.292 C 
HETATM   27  O3  UNK     1      32.297  -9.718  35.015  1.00  0.00    -0.259 OA
BRANCH  26  28
HETATM   28  O1  UNK     1      33.282  -8.303  33.469  1.00  0.00    -0.312 OA
BRANCH  28  29
HETATM   29  C1  UNK     1      34.382  -8.090  34.329  1.00  0.00     0.132 C 
HETATM   30  C2  UNK     1      34.326  -6.706  34.955  1.00  0.00     0.032 C 
HETATM   31  C4  UNK     1      35.760  -6.445  35.399  1.00  0.00     0.002 C 
HETATM   32  C5  UNK     1      36.645  -7.304  34.494  1.00  0.00     0.002 C 
HETATM   33  C3  UNK     1      35.697  -8.057  33.568  1.00  0.00     0.032 C 
ENDBRANCH  28  29
ENDBRANCH  26  28
ENDBRANCH   6  26
TORSDOF 4
ENDMDL
MODEL 5
REMARK VINA RESULT:      -8.5      3.591      6.736
REMARK  4 active torsions:
REMARK  status: ('A' for Active; 'I' for Inactive)
REMARK    1  A    between atoms: C1_8  and  O1_2 
REMARK    2  A    between atoms: C16_23  and  O1_2 
REMARK    3  A    between atoms: C15_22  and  C6_13 
REMARK    4  A    between atoms: C16_23  and  C9_16 
ROOT
HETATM    1  O2  UNK     1      28.229 -10.137  38.829  1.00  0.00    -0.293 OA
HETATM    2  N1  UNK     1      28.298  -5.448  38.161  1.00  0.00    -0.362 N 
HETATM    3  C6  UNK     1      29.746  -7.872  37.886  1.00  0.00     0.104 C 
HETATM    4  C7  UNK     1      28.305  -7.807  38.380  1.00  0.00     0.024 C 
HETATM    5  C8  UNK     1      27.651  -6.629  38.470  1.00  0.00     0.020 C 
HETATM    6  C9  UNK     1      30.377  -6.487  37.712  1.00  0.00     0.052 C 
HETATM    7  C10 UNK     1      26.214  -6.512  38.903  1.00  0.00     0.058 C 
HETATM    8  C11 UNK     1      25.455  -7.822  38.736  1.00  0.00     0.014 C 
HETATM    9  C12 UNK     1      29.643  -5.357  37.837  1.00  0.00     0.018 C 
HETATM   10  C13 UNK     1      26.216  -8.973  39.368  1.00  0.00     0.084 C 
HETATM   11  C14 UNK     1      27.628  -9.063  38.832  1.00  0.00     0.158 C 
HETATM   12  C17 UNK     1      30.150  -3.947  37.688  1.00  0.00     0.069 C 
HETATM   13  H17 UNK     1      27.775  -4.585  38.252  1.00  0.00     0.165 HD
ENDROOT
BRANCH   3  14
HETATM   14  C15 UNK     1      29.816  -8.641  36.594  1.00  0.00     0.029 A 
HETATM   15  C18 UNK     1      30.747  -9.795  36.505  1.00  0.00     0.194 A 
HETATM   16  C20 UNK     1      30.776 -10.514  35.218  1.00  0.00     0.050 A 
HETATM   17  O5  UNK     1      31.452 -10.136  37.446  1.00  0.00    -0.287 OA
HETATM   18  C21 UNK     1      29.949 -10.082  34.181  1.00  0.00     0.089 A 
HETATM   19  C22 UNK     1      31.619 -11.614  35.034  1.00  0.00     0.042 A 
HETATM   20  O4  UNK     1      29.102  -9.010  34.305  1.00  0.00    -0.321 OA
HETATM   21  C23 UNK     1      29.960 -10.747  32.954  1.00  0.00     0.040 A 
HETATM   22  C19 UNK     1      29.085  -8.350  35.510  1.00  0.00     0.154 A 
HETATM   23  C25 UNK     1      30.801 -11.845  32.769  1.00  0.00     0.026 A 
HETATM   24  C24 UNK     1      31.628 -12.277  33.807  1.00  0.00     0.035 A 
HETATM   25 Cl1  UNK     1      32.663 -13.633  33.571  1.00  0.00    -0.084 Cl
ENDBRANCH   3  14
BRANCH   6  26
HETATM   26  C16 UNK     1      31.820  -6.468  37.415  1.00  0.00     0.292 C 
HETATM   27  O3  UNK     1      32.674  -6.772  38.227  1.00  0.00    -0.259 OA
BRANCH  26  28
HETATM   28  O1  UNK     1      31.985  -6.067  36.132  1.00  0.00    -0.312 OA
BRANCH  28  29
HETATM   29  C1  UNK     1      33.268  -5.560  35.824  1.00  0.00     0.132 C 
HETATM   30  C2  UNK     1      33.187  -4.119  35.350  1.00  0.00     0.032 C 
HETATM   31  C4  UNK     1      34.494  -3.906  34.595  1.00  0.00     0.002 C 
HETATM   32  C5  UNK     1      34.934  -5.291  34.115  1.00  0.00     0.002 C 
HETATM   33  C3  UNK     1      33.883  -6.269  34.628  1.00  0.00     0.032 C 
ENDBRANCH  28  29
ENDBRANCH  26  28
ENDBRANCH   6  26
TORSDOF 4
ENDMDL
MODEL 6
REMARK VINA RESULT:      -8.4      3.612      6.736
REMARK  4 active torsions:
REMARK  status: ('A' for Active; 'I' for Inactive)
REMARK    1  A    between atoms: C1_8  and  O1_2 
REMARK    2  A    between atoms: C16_23  and  O1_2 
REMARK    3  A    between atoms: C15_22  and  C6_13 
REMARK    4  A    between atoms: C16_23  and  C9_16 
ROOT
HETATM    1  O2  UNK     1      29.265  -8.167  36.614  1.00  0.00    -0.293 OA
HETATM    2  N1  UNK     1      33.241  -5.608  36.894  1.00  0.00    -0.362 N 
HETATM    3  C6  UNK     1      31.779  -7.500  35.367  1.00  0.00     0.104 C 
HETATM    4  C7  UNK     1      31.241  -6.851  36.637  1.00  0.00     0.024 C 
HETATM    5  C8  UNK     1      31.966  -5.936  37.315  1.00  0.00     0.020 C 
HETATM    6  C9  UNK     1      33.245  -7.148  35.097  1.00  0.00     0.052 C 
HETATM    7  C10 UNK     1      31.464  -5.228  38.545  1.00  0.00     0.058 C 
HETATM    8  C11 UNK     1      29.944  -5.255  38.643  1.00  0.00     0.014 C 
HETATM    9  C12 UNK     1      33.899  -6.226  35.842  1.00  0.00     0.018 C 
HETATM   10  C13 UNK     1      29.415  -6.666  38.464  1.00  0.00     0.084 C 
HETATM   11  C14 UNK     1      29.912  -7.282  37.175  1.00  0.00     0.158 C 
HETATM   12  C17 UNK     1      35.332  -5.798  35.671  1.00  0.00     0.069 C 
HETATM   13  H17 UNK     1      33.756  -4.924  37.437  1.00  0.00     0.165 HD
ENDROOT
BRANCH   3  14
HETATM   14  C15 UNK     1      30.926  -7.116  34.188  1.00  0.00     0.029 A 
HETATM   15  C18 UNK     1      30.395  -8.195  33.316  1.00  0.00     0.194 A 
HETATM   16  C20 UNK     1      29.566  -7.765  32.176  1.00  0.00     0.050 A 
HETATM   17  O5  UNK     1      30.629  -9.377  33.528  1.00  0.00    -0.287 OA
HETATM   18  C21 UNK     1      29.331  -6.403  31.983  1.00  0.00     0.089 A 
HETATM   19  C22 UNK     1      29.020  -8.704  31.297  1.00  0.00     0.042 A 
HETATM   20  O4  UNK     1      29.841  -5.437  32.814  1.00  0.00    -0.321 OA
HETATM   21  C23 UNK     1      28.549  -5.973  30.910  1.00  0.00     0.040 A 
HETATM   22  C19 UNK     1      30.612  -5.853  33.872  1.00  0.00     0.154 A 
HETATM   23  C25 UNK     1      28.003  -6.909  30.032  1.00  0.00     0.026 A 
HETATM   24  C24 UNK     1      28.238  -8.271  30.225  1.00  0.00     0.035 A 
HETATM   25 Cl1  UNK     1      27.561  -9.421  29.136  1.00  0.00    -0.084 Cl
ENDBRANCH   3  14
BRANCH   6  26
HETATM   26  C16 UNK     1      33.892  -7.879  33.993  1.00  0.00     0.292 C 
HETATM   27  O3  UNK     1      34.243  -9.041  34.077  1.00  0.00    -0.259 OA
BRANCH  26  28
HETATM   28  O1  UNK     1      34.006  -7.041  32.936  1.00  0.00    -0.312 OA
BRANCH  28  29
HETATM   29  C1  UNK     1      34.090  -7.675  31.676  1.00  0.00     0.132 C 
HETATM   30  C2  UNK     1      35.198  -7.068  30.832  1.00  0.00     0.032 C 
HETATM   31  C4  UNK     1      34.832  -7.463  29.406  1.00  0.00     0.002 C 
HETATM   32  C5  UNK     1      33.317  -7.674  29.402  1.00  0.00     0.002 C 
HETATM   33  C3  UNK     1      32.852  -7.420  30.831  1.00  0.00     0.032 C 
ENDBRANCH  28  29
ENDBRANCH  26  28
ENDBRANCH   6  26
TORSDOF 4
ENDMDL
MODEL 7
REMARK VINA RESULT:      -8.3      2.960      4.657
REMARK  4 active torsions:
REMARK  status: ('A' for Active; 'I' for Inactive)
REMARK    1  A    between atoms: C1_8  and  O1_2 
REMARK    2  A    between atoms: C16_23  and  O1_2 
REMARK    3  A    between atoms: C15_22  and  C6_13 
REMARK    4  A    between atoms: C16_23  and  C9_16 
ROOT
HETATM    1  O2  UNK     1      29.184 -10.759  33.315  1.00  0.00    -0.293 OA
HETATM    2  N1  UNK     1      33.624  -9.250  33.983  1.00  0.00    -0.362 N 
HETATM    3  C6  UNK     1      30.873  -8.656  34.338  1.00  0.00     0.104 C 
HETATM    4  C7  UNK     1      31.379  -9.976  33.766  1.00  0.00     0.024 C 
HETATM    5  C8  UNK     1      32.701 -10.220  33.641  1.00  0.00     0.020 C 
HETATM    6  C9  UNK     1      31.992  -7.630  34.544  1.00  0.00     0.052 C 
HETATM    7  C10 UNK     1      33.257 -11.523  33.131  1.00  0.00     0.058 C 
HETATM    8  C11 UNK     1      32.255 -12.663  33.258  1.00  0.00     0.014 C 
HETATM    9  C12 UNK     1      33.293  -7.963  34.379  1.00  0.00     0.018 C 
HETATM   10  C13 UNK     1      30.913 -12.273  32.668  1.00  0.00     0.084 C 
HETATM   11  C14 UNK     1      30.393 -10.990  33.279  1.00  0.00     0.158 C 
HETATM   12  C17 UNK     1      34.475  -7.046  34.555  1.00  0.00     0.069 C 
HETATM   13  H17 UNK     1      34.606  -9.470  33.864  1.00  0.00     0.165 HD
ENDROOT
BRANCH   3  14
HETATM   14  C15 UNK     1      30.143  -8.897  35.631  1.00  0.00     0.029 A 
HETATM   15  C18 UNK     1      28.743  -8.419  35.757  1.00  0.00     0.194 A 
HETATM   16  C20 UNK     1      28.075  -8.681  37.044  1.00  0.00     0.050 A 
HETATM   17  O5  UNK     1      28.170  -7.838  34.844  1.00  0.00    -0.287 OA
HETATM   18  C21 UNK     1      28.777  -9.348  38.049  1.00  0.00     0.089 A 
HETATM   19  C22 UNK     1      26.757  -8.270  37.261  1.00  0.00     0.042 A 
HETATM   20  O4  UNK     1      30.071  -9.775  37.892  1.00  0.00    -0.321 OA
HETATM   21  C23 UNK     1      28.164  -9.608  39.275  1.00  0.00     0.040 A 
HETATM   22  C19 UNK     1      30.681  -9.523  36.687  1.00  0.00     0.154 A 
HETATM   23  C25 UNK     1      26.848  -9.198  39.493  1.00  0.00     0.026 A 
HETATM   24  C24 UNK     1      26.147  -8.530  38.488  1.00  0.00     0.035 A 
HETATM   25 Cl1  UNK     1      24.523  -8.027  38.764  1.00  0.00    -0.084 Cl
ENDBRANCH   3  14
BRANCH   6  26
HETATM   26  C16 UNK     1      31.562  -6.271  34.918  1.00  0.00     0.292 C 
HETATM   27  O3  UNK     1      31.136  -5.461  34.117  1.00  0.00    -0.259 OA
BRANCH  26  28
HETATM   28  O1  UNK     1      31.728  -6.125  36.254  1.00  0.00    -0.312 OA
BRANCH  28  29
HETATM   29  C1  UNK     1      30.626  -5.562  36.937  1.00  0.00     0.132 C 
HETATM   30  C2  UNK     1      30.896  -4.114  37.308  1.00  0.00     0.032 C 
HETATM   31  C4  UNK     1      29.905  -3.832  38.431  1.00  0.00     0.002 C 
HETATM   32  C5  UNK     1      29.602  -5.186  39.075  1.00  0.00     0.002 C 
HETATM   33  C3  UNK     1      30.405  -6.217  38.290  1.00  0.00     0.032 C 
ENDBRANCH  28  29
ENDBRANCH  26  28
ENDBRANCH   6  26
TORSDOF 4
ENDMDL
MODEL 8
REMARK VINA RESULT:      -8.3      1.769      2.666
REMARK  4 active torsions:
REMARK  status: ('A' for Active; 'I' for Inactive)
REMARK    1  A    between atoms: C1_8  and  O1_2 
REMARK    2  A    between atoms: C16_23  and  O1_2 
REMARK    3  A    between atoms: C15_22  and  C6_13 
REMARK    4  A    between atoms: C16_23  and  C9_16 
ROOT
HETATM    1  O2  UNK     1      29.879  -4.693  31.520  1.00  0.00    -0.293 OA
HETATM    2  N1  UNK     1      30.574  -9.360  31.931  1.00  0.00    -0.362 N 
HETATM    3  C6  UNK     1      31.580  -6.782  32.554  1.00  0.00     0.104 C 
HETATM    4  C7  UNK     1      30.249  -7.015  31.846  1.00  0.00     0.024 C 
HETATM    5  C8  UNK     1      29.803  -8.264  31.595  1.00  0.00     0.020 C 
HETATM    6  C9  UNK     1      32.386  -8.070  32.743  1.00  0.00     0.052 C 
HETATM    7  C10 UNK     1      28.476  -8.554  30.946  1.00  0.00     0.058 C 
HETATM    8  C11 UNK     1      27.509  -7.384  31.069  1.00  0.00     0.014 C 
HETATM    9  C12 UNK     1      31.859  -9.282  32.447  1.00  0.00     0.018 C 
HETATM   10  C13 UNK     1      28.165  -6.090  30.622  1.00  0.00     0.084 C 
HETATM   11  C14 UNK     1      29.457  -5.839  31.367  1.00  0.00     0.158 C 
HETATM   12  C17 UNK     1      32.550 -10.611  32.593  1.00  0.00     0.069 C 
HETATM   13  H17 UNK     1      30.208 -10.280  31.716  1.00  0.00     0.165 HD
ENDROOT
BRANCH   3  14
HETATM   14  C15 UNK     1      31.349  -6.112  33.881  1.00  0.00     0.029 A 
HETATM   15  C18 UNK     1      30.398  -6.736  34.836  1.00  0.00     0.194 A 
HETATM   16  C20 UNK     1      30.210  -6.039  36.121  1.00  0.00     0.050 A 
HETATM   17  O5  UNK     1      29.801  -7.772  34.575  1.00  0.00    -0.287 OA
HETATM   18  C21 UNK     1      30.917  -4.862  36.364  1.00  0.00     0.089 A 
HETATM   19  C22 UNK     1      29.335  -6.547  37.086  1.00  0.00     0.042 A 
HETATM   20  O4  UNK     1      31.788  -4.318  35.455  1.00  0.00    -0.321 OA
HETATM   21  C23 UNK     1      30.754  -4.186  37.574  1.00  0.00     0.040 A 
HETATM   22  C19 UNK     1      31.954  -4.978  34.261  1.00  0.00     0.154 A 
HETATM   23  C25 UNK     1      29.882  -4.691  38.539  1.00  0.00     0.026 A 
HETATM   24  C24 UNK     1      29.174  -5.869  38.294  1.00  0.00     0.035 A 
HETATM   25 Cl1  UNK     1      28.099  -6.486  39.490  1.00  0.00    -0.084 Cl
ENDBRANCH   3  14
BRANCH   6  26
HETATM   26  C16 UNK     1      33.759  -7.905  33.251  1.00  0.00     0.292 C 
HETATM   27  O3  UNK     1      34.633  -7.322  32.637  1.00  0.00    -0.259 OA
BRANCH  26  28
HETATM   28  O1  UNK     1      33.837  -8.498  34.466  1.00  0.00    -0.312 OA
BRANCH  28  29
HETATM   29  C1  UNK     1      33.479  -7.675  35.558  1.00  0.00     0.132 C 
HETATM   30  C2  UNK     1      34.706  -7.042  36.191  1.00  0.00     0.032 C 
HETATM   31  C4  UNK     1      34.237  -6.647  37.586  1.00  0.00     0.002 C 
HETATM   32  C5  UNK     1      33.077  -7.586  37.923  1.00  0.00     0.002 C 
HETATM   33  C3  UNK     1      32.891  -8.481  36.704  1.00  0.00     0.032 C 
ENDBRANCH  28  29
ENDBRANCH  26  28
ENDBRANCH   6  26
TORSDOF 4
ENDMDL
MODEL 9
REMARK VINA RESULT:      -8.3      2.659      5.669
REMARK  4 active torsions:
REMARK  status: ('A' for Active; 'I' for Inactive)
REMARK    1  A    between atoms: C1_8  and  O1_2 
REMARK    2  A    between atoms: C16_23  and  O1_2 
REMARK    3  A    between atoms: C15_22  and  C6_13 
REMARK    4  A    between atoms: C16_23  and  C9_16 
ROOT
HETATM    1  O2  UNK     1      33.271  -9.547  34.566  1.00  0.00    -0.293 OA
HETATM    2  N1  UNK     1      33.320  -7.193  30.457  1.00  0.00    -0.362 N 
HETATM    3  C6  UNK     1      31.765  -7.929  32.713  1.00  0.00     0.104 C 
HETATM    4  C7  UNK     1      33.244  -8.272  32.564  1.00  0.00     0.024 C 
HETATM    5  C8  UNK     1      33.946  -7.877  31.481  1.00  0.00     0.020 C 
HETATM    6  C9  UNK     1      31.174  -7.294  31.450  1.00  0.00     0.052 C 
HETATM    7  C10 UNK     1      35.417  -8.144  31.306  1.00  0.00     0.058 C 
HETATM    8  C11 UNK     1      36.111  -8.427  32.633  1.00  0.00     0.014 C 
HETATM    9  C12 UNK     1      31.957  -6.944  30.403  1.00  0.00     0.018 C 
HETATM   10  C13 UNK     1      35.363  -9.488  33.419  1.00  0.00     0.084 C 
HETATM   11  C14 UNK     1      33.909  -9.114  33.607  1.00  0.00     0.158 C 
HETATM   12  C17 UNK     1      31.492  -6.314  29.117  1.00  0.00     0.069 C 
HETATM   13  H17 UNK     1      33.881  -6.924  29.656  1.00  0.00     0.165 HD
ENDROOT
BRANCH   3  14
HETATM   14  C15 UNK     1      31.561  -7.022  33.896  1.00  0.00     0.029 A 
HETATM   15  C18 UNK     1      30.599  -7.436  34.949  1.00  0.00     0.194 A 
HETATM   16  C20 UNK     1      30.436  -6.512  36.086  1.00  0.00     0.050 A 
HETATM   17  O5  UNK     1      29.973  -8.486  34.882  1.00  0.00    -0.287 OA
HETATM   18  C21 UNK     1      31.176  -5.329  36.110  1.00  0.00     0.089 A 
HETATM   19  C22 UNK     1      29.554  -6.812  37.128  1.00  0.00     0.042 A 
HETATM   20  O4  UNK     1      32.056  -4.984  35.116  1.00  0.00    -0.321 OA
HETATM   21  C23 UNK     1      31.038  -4.440  37.177  1.00  0.00     0.040 A 
HETATM   22  C19 UNK     1      32.197  -5.855  34.062  1.00  0.00     0.154 A 
HETATM   23  C25 UNK     1      30.158  -4.737  38.218  1.00  0.00     0.026 A 
HETATM   24  C24 UNK     1      29.418  -5.920  38.193  1.00  0.00     0.035 A 
HETATM   25 Cl1  UNK     1      28.334  -6.281  39.482  1.00  0.00    -0.084 Cl
ENDBRANCH   3  14
BRANCH   6  26
HETATM   26  C16 UNK     1      29.713  -7.102  31.447  1.00  0.00     0.292 C 
HETATM   27  O3  UNK     1      29.182  -6.014  31.560  1.00  0.00    -0.259 OA
BRANCH  26  28
HETATM   28  O1  UNK     1      29.125  -8.314  31.301  1.00  0.00    -0.312 OA
BRANCH  28  29
HETATM   29  C1  UNK     1      29.335  -8.934  30.049  1.00  0.00     0.132 C 
HETATM   30  C2  UNK     1      28.019  -9.167  29.327  1.00  0.00     0.032 C 
HETATM   31  C4  UNK     1      28.345 -10.253  28.310  1.00  0.00     0.002 C 
HETATM   32  C5  UNK     1      29.539 -11.022  28.881  1.00  0.00     0.002 C 
HETATM   33  C3  UNK     1      29.885 -10.343  30.201  1.00  0.00     0.032 C 
ENDBRANCH  28  29
ENDBRANCH  26  28
ENDBRANCH   6  26
TORSDOF 4
ENDMDL
MODEL 10
REMARK VINA RESULT:      -8.1      3.194      6.494
REMARK  4 active torsions:
REMARK  status: ('A' for Active; 'I' for Inactive)
REMARK    1  A    between atoms: C1_8  and  O1_2 
REMARK    2  A    between atoms: C16_23  and  O1_2 
REMARK    3  A    between atoms: C15_22  and  C6_13 
REMARK    4  A    between atoms: C16_23  and  C9_16 
ROOT
HETATM    1  O2  UNK     1      29.085  -9.723  38.712  1.00  0.00    -0.293 OA
HETATM    2  N1  UNK     1      28.871  -5.053  37.953  1.00  0.00    -0.362 N 
HETATM    3  C6  UNK     1      30.420  -7.407  37.628  1.00  0.00     0.104 C 
HETATM    4  C7  UNK     1      29.013  -7.403  38.215  1.00  0.00     0.024 C 
HETATM    5  C8  UNK     1      28.307  -6.258  38.326  1.00  0.00     0.020 C 
HETATM    6  C9  UNK     1      30.967  -5.997  37.388  1.00  0.00     0.052 C 
HETATM    7  C10 UNK     1      26.896  -6.202  38.850  1.00  0.00     0.058 C 
HETATM    8  C11 UNK     1      26.197  -7.552  38.758  1.00  0.00     0.014 C 
HETATM    9  C12 UNK     1      30.186  -4.901  37.539  1.00  0.00     0.018 C 
HETATM   10  C13 UNK     1      27.055  -8.649  39.361  1.00  0.00     0.084 C 
HETATM   11  C14 UNK     1      28.431  -8.680  38.735  1.00  0.00     0.158 C 
HETATM   12  C17 UNK     1      30.609  -3.472  37.330  1.00  0.00     0.069 C 
HETATM   13  H17 UNK     1      28.311  -4.215  38.061  1.00  0.00     0.165 HD
ENDROOT
BRANCH   3  14
HETATM   14  C15 UNK     1      30.446  -8.200  36.350  1.00  0.00     0.029 A 
HETATM   15  C18 UNK     1      29.515  -7.817  35.258  1.00  0.00     0.194 A 
HETATM   16  C20 UNK     1      29.581  -8.627  34.028  1.00  0.00     0.050 A 
HETATM   17  O5  UNK     1      28.734  -6.881  35.368  1.00  0.00    -0.287 OA
HETATM   18  C21 UNK     1      30.491  -9.682  33.958  1.00  0.00     0.089 A 
HETATM   19  C22 UNK     1      28.745  -8.346  32.943  1.00  0.00     0.042 A 
HETATM   20  O4  UNK     1      31.336 -10.002  34.991  1.00  0.00    -0.321 OA
HETATM   21  C23 UNK     1      30.571 -10.461  32.804  1.00  0.00     0.040 A 
HETATM   22  C19 UNK     1      31.263  -9.239  36.131  1.00  0.00     0.154 A 
HETATM   23  C25 UNK     1      29.738 -10.182  31.720  1.00  0.00     0.026 A 
HETATM   24  C24 UNK     1      28.827  -9.128  31.791  1.00  0.00     0.035 A 
HETATM   25 Cl1  UNK     1      27.802  -8.789  30.449  1.00  0.00    -0.084 Cl
ENDBRANCH   3  14
BRANCH   6  26
HETATM   26  C16 UNK     1      32.385  -5.911  36.996  1.00  0.00     0.292 C 
HETATM   27  O3  UNK     1      33.304  -6.057  37.779  1.00  0.00    -0.259 OA
BRANCH  26  28
HETATM   28  O1  UNK     1      32.445  -5.655  35.667  1.00  0.00    -0.312 OA
BRANCH  28  29
HETATM   29  C1  UNK     1      33.448  -6.361  34.966  1.00  0.00     0.132 C 
HETATM   30  C2  UNK     1      34.571  -5.432  34.536  1.00  0.00     0.032 C 
HETATM   31  C4  UNK     1      35.259  -6.187  33.405  1.00  0.00     0.002 C 
HETATM   32  C5  UNK     1      34.200  -7.123  32.817  1.00  0.00     0.002 C 
HETATM   33  C3  UNK     1      32.937  -6.902  33.640  1.00  0.00     0.032 C 
ENDBRANCH  28  29
ENDBRANCH  26  28
ENDBRANCH   6  26
TORSDOF 4
ENDMDL
