MODEL 1
REMARK VINA RESULT:      -8.4      0.000      0.000
REMARK  4 active torsions:
REMARK  status: ('A' for Active; 'I' for Inactive)
REMARK    1  A    between atoms: C11_14  and  O1_1 
REMARK    2  A    between atoms: C3_6  and  O1_1 
REMARK    3  A    between atoms: C1_4  and  C6_9 
REMARK    4  A    between atoms: C11_14  and  C14_17 
ROOT
HETATM    1  O2  UNK     1      19.292  -0.605  32.950  1.00  0.00    -0.275 OA
HETATM    2  O3  UNK     1      20.076  -2.737  33.208  1.00  0.00    -0.260 OA
HETATM    3  C1  UNK     1      18.695   2.780  30.584  1.00  0.00    -0.024 A 
HETATM    4  C2  UNK     1      19.555   0.512  30.793  1.00  0.00     0.005 A 
HETATM    5  C3  UNK     1      18.264   2.757  31.909  1.00  0.00     0.078 A 
HETATM    6  C4  UNK     1      19.336   1.666  30.030  1.00  0.00     0.024 A 
HETATM    7  C5  UNK     1      19.112   0.517  32.116  1.00  0.00     0.092 A 
HETATM    8  C7  UNK     1      20.219  -0.694  30.279  1.00  0.00    -0.043 A 
HETATM    9  C8  UNK     1      18.471   1.621  32.684  1.00  0.00     0.075 A 
HETATM   10  C10 UNK     1      20.378  -1.746  31.094  1.00  0.00     0.090 A 
HETATM   11  C12 UNK     1      20.706  -0.733  28.859  1.00  0.00     0.049 C 
HETATM   12  C13 UNK     1      19.915  -1.755  32.492  1.00  0.00     0.288 A 
ENDROOT
BRANCH   5  13
HETATM   13  O1  UNK     1      17.639   3.835  32.459  1.00  0.00    -0.346 OA
BRANCH  13  14
HETATM   14  C11 UNK     1      18.221   4.390  33.637  1.00  0.00     0.214 C 
BRANCH  14  15
HETATM   15  C14 UNK     1      18.203   5.887  33.535  1.00  0.00    -0.034 A 
HETATM   16  C15 UNK     1      17.139   6.520  32.901  1.00  0.00     0.009 A 
HETATM   17  C17 UNK     1      17.122   7.912  32.806  1.00  0.00     0.001 A 
HETATM   18  C19 UNK     1      18.169   8.661  33.345  1.00  0.00     0.000 A 
HETATM   19  C18 UNK     1      19.231   8.019  33.979  1.00  0.00     0.001 A 
HETATM   20  C16 UNK     1      19.249   6.626  34.074  1.00  0.00     0.009 A 
ENDBRANCH  14  15
ENDBRANCH  13  14
ENDBRANCH   5  13
BRANCH   3  21
HETATM   21  C6  UNK     1      18.482   3.992  29.737  1.00  0.00     0.037 C 
HETATM   22  C9  UNK     1      19.439   5.124  30.101  1.00  0.00     0.010 C 
ENDBRANCH   3  21
TORSDOF 4
ENDMDL
MODEL 2
REMARK VINA RESULT:      -8.3      2.362      7.641
REMARK  4 active torsions:
REMARK  status: ('A' for Active; 'I' for Inactive)
REMARK    1  A    between atoms: C11_14  and  O1_1 
REMARK    2  A    between atoms: C3_6  and  O1_1 
REMARK    3  A    between atoms: C1_4  and  C6_9 
REMARK    4  A    between atoms: C11_14  and  C14_17 
ROOT
HETATM    1  O2  UNK     1      15.861   6.527  32.994  1.00  0.00    -0.275 OA
HETATM    2  O3  UNK     1      14.299   7.763  34.115  1.00  0.00    -0.260 OA
HETATM    3  C1  UNK     1      19.795   5.928  31.737  1.00  0.00    -0.024 A 
HETATM    4  C2  UNK     1      18.181   7.292  32.946  1.00  0.00     0.005 A 
HETATM    5  C3  UNK     1      18.797   5.017  31.397  1.00  0.00     0.078 A 
HETATM    6  C4  UNK     1      19.490   7.057  32.506  1.00  0.00     0.024 A 
HETATM    7  C5  UNK     1      17.202   6.364  32.590  1.00  0.00     0.092 A 
HETATM    8  C7  UNK     1      17.788   8.454  33.755  1.00  0.00    -0.043 A 
HETATM    9  C8  UNK     1      17.491   5.232  31.824  1.00  0.00     0.075 A 
HETATM   10  C10 UNK     1      16.506   8.585  34.124  1.00  0.00     0.090 A 
HETATM   11  C12 UNK     1      18.817   9.471  34.155  1.00  0.00     0.049 C 
HETATM   12  C13 UNK     1      15.462   7.612  33.758  1.00  0.00     0.288 A 
ENDROOT
BRANCH   5  13
HETATM   13  O1  UNK     1      19.082   3.915  30.650  1.00  0.00    -0.346 OA
BRANCH  13  14
HETATM   14  C11 UNK     1      18.197   2.802  30.771  1.00  0.00     0.214 C 
BRANCH  14  15
HETATM   15  C14 UNK     1      18.816   1.608  30.108  1.00  0.00    -0.034 A 
HETATM   16  C15 UNK     1      18.409   1.242  28.830  1.00  0.00     0.009 A 
HETATM   17  C17 UNK     1      18.985   0.132  28.213  1.00  0.00     0.001 A 
HETATM   18  C19 UNK     1      19.964  -0.607  28.879  1.00  0.00     0.000 A 
HETATM   19  C18 UNK     1      20.368  -0.233  30.160  1.00  0.00     0.001 A 
HETATM   20  C16 UNK     1      19.792   0.878  30.778  1.00  0.00     0.009 A 
ENDBRANCH  14  15
ENDBRANCH  13  14
ENDBRANCH   5  13
BRANCH   3  21
HETATM   21  C6  UNK     1      21.203   5.714  31.287  1.00  0.00     0.037 C 
HETATM   22  C9  UNK     1      22.211   5.984  32.401  1.00  0.00     0.010 C 
ENDBRANCH   3  21
TORSDOF 4
ENDMDL
MODEL 3
REMARK VINA RESULT:      -8.2      1.796      3.060
REMARK  4 active torsions:
REMARK  status: ('A' for Active; 'I' for Inactive)
REMARK    1  A    between atoms: C11_14  and  O1_1 
REMARK    2  A    between atoms: C3_6  and  O1_1 
REMARK    3  A    between atoms: C1_4  and  C6_9 
REMARK    4  A    between atoms: C11_14  and  C14_17 
ROOT
HETATM    1  O2  UNK     1      19.405   0.780  29.297  1.00  0.00    -0.275 OA
HETATM    2  O3  UNK     1      20.268  -0.772  27.858  1.00  0.00    -0.260 OA
HETATM    3  C1  UNK     1      18.339   1.952  33.157  1.00  0.00    -0.024 A 
HETATM    4  C2  UNK     1      19.266   0.254  31.679  1.00  0.00     0.005 A 
HETATM    5  C3  UNK     1      18.144   2.811  32.078  1.00  0.00     0.078 A 
HETATM    6  C4  UNK     1      18.896   0.683  32.960  1.00  0.00     0.024 A 
HETATM    7  C5  UNK     1      19.059   1.135  30.616  1.00  0.00     0.092 A 
HETATM    8  C7  UNK     1      19.855  -1.062  31.397  1.00  0.00    -0.043 A 
HETATM    9  C8  UNK     1      18.505   2.404  30.797  1.00  0.00     0.075 A 
HETATM   10  C10 UNK     1      20.174  -1.373  30.133  1.00  0.00     0.090 A 
HETATM   11  C12 UNK     1      20.092  -2.032  32.517  1.00  0.00     0.049 C 
HETATM   12  C13 UNK     1      19.963  -0.454  29.001  1.00  0.00     0.288 A 
ENDROOT
BRANCH   5  13
HETATM   13  O1  UNK     1      17.604   4.048  32.258  1.00  0.00    -0.346 OA
BRANCH  13  14
HETATM   14  C11 UNK     1      18.289   5.148  31.661  1.00  0.00     0.214 C 
BRANCH  14  15
HETATM   15  C14 UNK     1      18.589   6.170  32.718  1.00  0.00    -0.034 A 
HETATM   16  C15 UNK     1      19.856   6.739  32.784  1.00  0.00     0.009 A 
HETATM   17  C17 UNK     1      20.135   7.690  33.766  1.00  0.00     0.001 A 
HETATM   18  C19 UNK     1      19.146   8.065  34.675  1.00  0.00     0.000 A 
HETATM   19  C18 UNK     1      17.877   7.490  34.601  1.00  0.00     0.001 A 
HETATM   20  C16 UNK     1      17.597   6.539  33.619  1.00  0.00     0.009 A 
ENDBRANCH  14  15
ENDBRANCH  13  14
ENDBRANCH   5  13
BRANCH   3  21
HETATM   21  C6  UNK     1      17.957   2.371  34.539  1.00  0.00     0.037 C 
HETATM   22  C9  UNK     1      18.664   1.542  35.608  1.00  0.00     0.010 C 
ENDBRANCH   3  21
TORSDOF 4
ENDMDL
MODEL 4
REMARK VINA RESULT:      -7.9      1.435      2.096
REMARK  4 active torsions:
REMARK  status: ('A' for Active; 'I' for Inactive)
REMARK    1  A    between atoms: C11_14  and  O1_1 
REMARK    2  A    between atoms: C3_6  and  O1_1 
REMARK    3  A    between atoms: C1_4  and  C6_9 
REMARK    4  A    between atoms: C11_14  and  C14_17 
ROOT
HETATM    1  O2  UNK     1      18.562   0.272  34.559  1.00  0.00    -0.275 OA
HETATM    2  O3  UNK     1      18.933  -1.568  35.863  1.00  0.00    -0.260 OA
HETATM    3  C1  UNK     1      18.600   2.146  30.831  1.00  0.00    -0.024 A 
HETATM    4  C2  UNK     1      19.020   0.151  32.162  1.00  0.00     0.005 A 
HETATM    5  C3  UNK     1      18.178   2.836  31.965  1.00  0.00     0.078 A 
HETATM    6  C4  UNK     1      19.018   0.814  30.927  1.00  0.00     0.024 A 
HETATM    7  C5  UNK     1      18.592   0.867  33.281  1.00  0.00     0.092 A 
HETATM    8  C7  UNK     1      19.443  -1.244  32.340  1.00  0.00    -0.043 A 
HETATM    9  C8  UNK     1      18.172   2.197  33.201  1.00  0.00     0.075 A 
HETATM   10  C10 UNK     1      19.406  -1.783  33.566  1.00  0.00     0.090 A 
HETATM   11  C12 UNK     1      19.908  -2.043  31.156  1.00  0.00     0.049 C 
HETATM   12  C13 UNK     1      18.956  -1.041  34.756  1.00  0.00     0.288 A 
ENDROOT
BRANCH   5  13
HETATM   13  O1  UNK     1      17.770   4.132  31.882  1.00  0.00    -0.346 OA
BRANCH  13  14
HETATM   14  C11 UNK     1      18.783   5.136  31.928  1.00  0.00     0.214 C 
BRANCH  14  15
HETATM   15  C14 UNK     1      18.466   6.104  33.030  1.00  0.00    -0.034 A 
HETATM   16  C15 UNK     1      19.480   6.887  33.569  1.00  0.00     0.009 A 
HETATM   17  C17 UNK     1      19.185   7.788  34.593  1.00  0.00     0.001 A 
HETATM   18  C19 UNK     1      17.879   7.897  35.072  1.00  0.00     0.000 A 
HETATM   19  C18 UNK     1      16.868   7.108  34.525  1.00  0.00     0.001 A 
HETATM   20  C16 UNK     1      17.162   6.208  33.500  1.00  0.00     0.009 A 
ENDBRANCH  14  15
ENDBRANCH  13  14
ENDBRANCH   5  13
BRANCH   3  21
HETATM   21  C6  UNK     1      18.615   2.816  29.496  1.00  0.00     0.037 C 
HETATM   22  C9  UNK     1      17.876   2.004  28.436  1.00  0.00     0.010 C 
ENDBRANCH   3  21
TORSDOF 4
ENDMDL
MODEL 5
REMARK VINA RESULT:      -7.9      2.209      3.189
REMARK  4 active torsions:
REMARK  status: ('A' for Active; 'I' for Inactive)
REMARK    1  A    between atoms: C11_14  and  O1_1 
REMARK    2  A    between atoms: C3_6  and  O1_1 
REMARK    3  A    between atoms: C1_4  and  C6_9 
REMARK    4  A    between atoms: C11_14  and  C14_17 
ROOT
HETATM    1  O2  UNK     1      18.207   2.465  35.296  1.00  0.00    -0.275 OA
HETATM    2  O3  UNK     1      18.199   1.205  37.203  1.00  0.00    -0.260 OA
HETATM    3  C1  UNK     1      18.427   2.755  31.139  1.00  0.00    -0.024 A 
HETATM    4  C2  UNK     1      18.429   1.355  33.130  1.00  0.00     0.005 A 
HETATM    5  C3  UNK     1      18.285   3.899  31.921  1.00  0.00     0.078 A 
HETATM    6  C4  UNK     1      18.498   1.492  31.738  1.00  0.00     0.024 A 
HETATM    7  C5  UNK     1      18.286   2.518  33.889  1.00  0.00     0.092 A 
HETATM    8  C7  UNK     1      18.496   0.064  33.828  1.00  0.00    -0.043 A 
HETATM    9  C8  UNK     1      18.213   3.785  33.306  1.00  0.00     0.075 A 
HETATM   10  C10 UNK     1      18.420   0.044  35.166  1.00  0.00     0.090 A 
HETATM   11  C12 UNK     1      18.648  -1.206  33.042  1.00  0.00     0.049 C 
HETATM   12  C13 UNK     1      18.268   1.262  35.980  1.00  0.00     0.288 A 
ENDROOT
BRANCH   5  13
HETATM   13  O1  UNK     1      18.214   5.133  31.349  1.00  0.00    -0.346 OA
BRANCH  13  14
HETATM   14  C11 UNK     1      19.350   5.983  31.498  1.00  0.00     0.214 C 
BRANCH  14  15
HETATM   15  C14 UNK     1      19.030   7.059  32.494  1.00  0.00    -0.034 A 
HETATM   16  C15 UNK     1      19.964   7.395  33.467  1.00  0.00     0.009 A 
HETATM   17  C17 UNK     1      19.667   8.395  34.393  1.00  0.00     0.001 A 
HETATM   18  C19 UNK     1      18.437   9.052  34.339  1.00  0.00     0.000 A 
HETATM   19  C18 UNK     1      17.506   8.710  33.360  1.00  0.00     0.001 A 
HETATM   20  C16 UNK     1      17.803   7.709  32.433  1.00  0.00     0.009 A 
ENDBRANCH  14  15
ENDBRANCH  13  14
ENDBRANCH   5  13
BRANCH   3  21
HETATM   21  C6  UNK     1      18.506   2.858  29.650  1.00  0.00     0.037 C 
HETATM   22  C9  UNK     1      17.944   1.621  28.957  1.00  0.00     0.010 C 
ENDBRANCH   3  21
TORSDOF 4
ENDMDL
MODEL 6
REMARK VINA RESULT:      -7.9      1.824      7.789
REMARK  4 active torsions:
REMARK  status: ('A' for Active; 'I' for Inactive)
REMARK    1  A    between atoms: C11_14  and  O1_1 
REMARK    2  A    between atoms: C3_6  and  O1_1 
REMARK    3  A    between atoms: C1_4  and  C6_9 
REMARK    4  A    between atoms: C11_14  and  C14_17 
ROOT
HETATM    1  O2  UNK     1      17.067   6.416  31.118  1.00  0.00    -0.275 OA
HETATM    2  O3  UNK     1      16.390   8.546  30.640  1.00  0.00    -0.260 OA
HETATM    3  C1  UNK     1      18.363   3.548  33.858  1.00  0.00    -0.024 A 
HETATM    4  C2  UNK     1      17.653   5.835  33.418  1.00  0.00     0.005 A 
HETATM    5  C3  UNK     1      18.205   3.221  32.513  1.00  0.00     0.078 A 
HETATM    6  C4  UNK     1      18.090   4.845  34.308  1.00  0.00     0.024 A 
HETATM    7  C5  UNK     1      17.504   5.479  32.076  1.00  0.00     0.092 A 
HETATM    8  C7  UNK     1      17.347   7.215  33.817  1.00  0.00    -0.043 A 
HETATM    9  C8  UNK     1      17.772   4.189  31.613  1.00  0.00     0.075 A 
HETATM   10  C10 UNK     1      16.935   8.085  32.884  1.00  0.00     0.090 A 
HETATM   11  C12 UNK     1      17.496   7.631  35.252  1.00  0.00     0.049 C 
HETATM   12  C13 UNK     1      16.771   7.724  31.466  1.00  0.00     0.288 A 
ENDROOT
BRANCH   5  13
HETATM   13  O1  UNK     1      18.468   1.963  32.065  1.00  0.00    -0.346 OA
BRANCH  13  14
HETATM   14  C11 UNK     1      18.883   1.832  30.706  1.00  0.00     0.214 C 
BRANCH  14  15
HETATM   15  C14 UNK     1      19.466   0.465  30.500  1.00  0.00    -0.034 A 
HETATM   16  C15 UNK     1      19.406  -0.470  31.528  1.00  0.00     0.009 A 
HETATM   17  C17 UNK     1      19.948  -1.741  31.337  1.00  0.00     0.001 A 
HETATM   18  C19 UNK     1      20.547  -2.069  30.120  1.00  0.00     0.000 A 
HETATM   19  C18 UNK     1      20.603  -1.126  29.095  1.00  0.00     0.001 A 
HETATM   20  C16 UNK     1      20.060   0.146  29.285  1.00  0.00     0.009 A 
ENDBRANCH  14  15
ENDBRANCH  13  14
ENDBRANCH   5  13
BRANCH   3  21
HETATM   21  C6  UNK     1      18.828   2.522  34.839  1.00  0.00     0.037 C 
HETATM   22  C9  UNK     1      17.678   1.667  35.365  1.00  0.00     0.010 C 
ENDBRANCH   3  21
TORSDOF 4
ENDMDL
MODEL 7
REMARK VINA RESULT:      -7.8     13.775     16.805
REMARK  4 active torsions:
REMARK  status: ('A' for Active; 'I' for Inactive)
REMARK    1  A    between atoms: C11_14  and  O1_1 
REMARK    2  A    between atoms: C3_6  and  O1_1 
REMARK    3  A    between atoms: C1_4  and  C6_9 
REMARK    4  A    between atoms: C11_14  and  C14_17 
ROOT
HETATM    1  O2  UNK     1      27.905  -4.857  38.401  1.00  0.00    -0.275 OA
HETATM    2  O3  UNK     1      25.670  -5.038  38.844  1.00  0.00    -0.260 OA
HETATM    3  C1  UNK     1      31.680  -6.593  38.015  1.00  0.00    -0.024 A 
HETATM    4  C2  UNK     1      29.309  -6.854  38.501  1.00  0.00     0.005 A 
HETATM    5  C3  UNK     1      31.504  -5.227  37.803  1.00  0.00     0.078 A 
HETATM    6  C4  UNK     1      30.592  -7.401  38.361  1.00  0.00     0.024 A 
HETATM    7  C5  UNK     1      29.162  -5.484  38.282  1.00  0.00     0.092 A 
HETATM    8  C7  UNK     1      28.121  -7.640  38.861  1.00  0.00    -0.043 A 
HETATM    9  C8  UNK     1      30.239  -4.664  37.936  1.00  0.00     0.075 A 
HETATM   10  C10 UNK     1      26.939  -7.018  38.968  1.00  0.00     0.090 A 
HETATM   11  C12 UNK     1      28.245  -9.117  39.101  1.00  0.00     0.049 C 
HETATM   12  C13 UNK     1      26.768  -5.573  38.739  1.00  0.00     0.288 A 
ENDROOT
BRANCH   5  13
HETATM   13  O1  UNK     1      32.557  -4.431  37.465  1.00  0.00    -0.346 OA
BRANCH  13  14
HETATM   14  C11 UNK     1      32.544  -3.859  36.158  1.00  0.00     0.214 C 
BRANCH  14  15
HETATM   15  C14 UNK     1      33.172  -4.823  35.195  1.00  0.00    -0.034 A 
HETATM   16  C15 UNK     1      34.555  -4.970  35.173  1.00  0.00     0.009 A 
HETATM   17  C17 UNK     1      35.140  -5.866  34.278  1.00  0.00     0.001 A 
HETATM   18  C19 UNK     1      34.338  -6.607  33.410  1.00  0.00     0.000 A 
HETATM   19  C18 UNK     1      32.952  -6.454  33.438  1.00  0.00     0.001 A 
HETATM   20  C16 UNK     1      32.367  -5.559  34.333  1.00  0.00     0.009 A 
ENDBRANCH  14  15
ENDBRANCH  13  14
ENDBRANCH   5  13
BRANCH   3  21
HETATM   21  C6  UNK     1      33.032  -7.214  37.877  1.00  0.00     0.037 C 
HETATM   22  C9  UNK     1      33.079  -8.247  36.754  1.00  0.00     0.010 C 
ENDBRANCH   3  21
TORSDOF 4
ENDMDL
MODEL 8
REMARK VINA RESULT:      -7.7      2.609      6.870
REMARK  4 active torsions:
REMARK  status: ('A' for Active; 'I' for Inactive)
REMARK    1  A    between atoms: C11_14  and  O1_1 
REMARK    2  A    between atoms: C3_6  and  O1_1 
REMARK    3  A    between atoms: C1_4  and  C6_9 
REMARK    4  A    between atoms: C11_14  and  C14_17 
ROOT
HETATM    1  O2  UNK     1      17.984   5.327  33.974  1.00  0.00    -0.275 OA
HETATM    2  O3  UNK     1      17.872   7.585  34.310  1.00  0.00    -0.260 OA
HETATM    3  C1  UNK     1      18.699   2.061  31.477  1.00  0.00    -0.024 A 
HETATM    4  C2  UNK     1      18.595   4.476  31.766  1.00  0.00     0.005 A 
HETATM    5  C3  UNK     1      18.336   1.868  32.808  1.00  0.00     0.078 A 
HETATM    6  C4  UNK     1      18.828   3.354  30.959  1.00  0.00     0.024 A 
HETATM    7  C5  UNK     1      18.233   4.253  33.096  1.00  0.00     0.092 A 
HETATM    8  C7  UNK     1      18.712   5.861  31.293  1.00  0.00    -0.043 A 
HETATM    9  C8  UNK     1      18.101   2.968  33.627  1.00  0.00     0.075 A 
HETATM   10  C10 UNK     1      18.467   6.863  32.149  1.00  0.00     0.090 A 
HETATM   11  C12 UNK     1      19.100   6.136  29.869  1.00  0.00     0.049 C 
HETATM   12  C13 UNK     1      18.086   6.644  33.554  1.00  0.00     0.288 A 
ENDROOT
BRANCH   5  13
HETATM   13  O1  UNK     1      18.208   0.613  33.323  1.00  0.00    -0.346 OA
BRANCH  13  14
HETATM   14  C11 UNK     1      17.413   0.473  34.499  1.00  0.00     0.214 C 
BRANCH  14  15
HETATM   15  C14 UNK     1      18.062  -0.523  35.414  1.00  0.00    -0.034 A 
HETATM   16  C15 UNK     1      19.122  -1.294  34.951  1.00  0.00     0.009 A 
HETATM   17  C17 UNK     1      19.727  -2.219  35.802  1.00  0.00     0.001 A 
HETATM   18  C19 UNK     1      19.266  -2.369  37.110  1.00  0.00     0.000 A 
HETATM   19  C18 UNK     1      18.202  -1.592  37.567  1.00  0.00     0.001 A 
HETATM   20  C16 UNK     1      17.597  -0.665  36.717  1.00  0.00     0.009 A 
ENDBRANCH  14  15
ENDBRANCH  13  14
ENDBRANCH   5  13
BRANCH   3  21
HETATM   21  C6  UNK     1      18.954   0.892  30.583  1.00  0.00     0.037 C 
HETATM   22  C9  UNK     1      18.706   1.225  29.114  1.00  0.00     0.010 C 
ENDBRANCH   3  21
TORSDOF 4
ENDMDL
MODEL 9
REMARK VINA RESULT:      -7.7      2.878      4.806
REMARK  4 active torsions:
REMARK  status: ('A' for Active; 'I' for Inactive)
REMARK    1  A    between atoms: C11_14  and  O1_1 
REMARK    2  A    between atoms: C3_6  and  O1_1 
REMARK    3  A    between atoms: C1_4  and  C6_9 
REMARK    4  A    between atoms: C11_14  and  C14_17 
ROOT
HETATM    1  O2  UNK     1      17.736   1.411  36.152  1.00  0.00    -0.275 OA
HETATM    2  O3  UNK     1      17.251   1.385  38.386  1.00  0.00    -0.260 OA
HETATM    3  C1  UNK     1      19.062  -0.531  32.704  1.00  0.00    -0.024 A 
HETATM    4  C2  UNK     1      18.568  -0.625  35.086  1.00  0.00     0.005 A 
HETATM    5  C3  UNK     1      18.680   0.809  32.660  1.00  0.00     0.078 A 
HETATM    6  C4  UNK     1      19.007  -1.242  33.908  1.00  0.00     0.024 A 
HETATM    7  C5  UNK     1      18.191   0.717  35.012  1.00  0.00     0.092 A 
HETATM    8  C7  UNK     1      18.484  -1.308  36.384  1.00  0.00    -0.043 A 
HETATM    9  C8  UNK     1      18.240   1.441  33.819  1.00  0.00     0.075 A 
HETATM   10  C10 UNK     1      18.049  -0.624  37.451  1.00  0.00     0.090 A 
HETATM   11  C12 UNK     1      18.881  -2.752  36.498  1.00  0.00     0.049 C 
HETATM   12  C13 UNK     1      17.646   0.791  37.388  1.00  0.00     0.288 A 
ENDROOT
BRANCH   5  13
HETATM   13  O1  UNK     1      18.729   1.511  31.494  1.00  0.00    -0.346 OA
BRANCH  13  14
HETATM   14  C11 UNK     1      17.736   2.517  31.301  1.00  0.00     0.214 C 
BRANCH  14  15
HETATM   15  C14 UNK     1      18.394   3.865  31.319  1.00  0.00    -0.034 A 
HETATM   16  C15 UNK     1      19.092   4.305  30.200  1.00  0.00     0.009 A 
HETATM   17  C17 UNK     1      19.704   5.558  30.216  1.00  0.00     0.001 A 
HETATM   18  C19 UNK     1      19.613   6.364  31.352  1.00  0.00     0.000 A 
HETATM   19  C18 UNK     1      18.910   5.916  32.470  1.00  0.00     0.001 A 
HETATM   20  C16 UNK     1      18.298   4.662  32.454  1.00  0.00     0.009 A 
ENDBRANCH  14  15
ENDBRANCH  13  14
ENDBRANCH   5  13
BRANCH   3  21
HETATM   21  C6  UNK     1      19.538  -1.226  31.470  1.00  0.00     0.037 C 
HETATM   22  C9  UNK     1      20.685  -2.190  31.759  1.00  0.00     0.010 C 
ENDBRANCH   3  21
TORSDOF 4
ENDMDL
MODEL 10
REMARK VINA RESULT:      -7.6     14.505     17.165
REMARK  4 active torsions:
REMARK  status: ('A' for Active; 'I' for Inactive)
REMARK    1  A    between atoms: C11_14  and  O1_1 
REMARK    2  A    between atoms: C3_6  and  O1_1 
REMARK    3  A    between atoms: C1_4  and  C6_9 
REMARK    4  A    between atoms: C11_14  and  C14_17 
ROOT
HETATM    1  O2  UNK     1      16.939  -5.013  16.197  1.00  0.00    -0.275 OA
HETATM    2  O3  UNK     1      15.976  -7.080  16.343  1.00  0.00    -0.260 OA
HETATM    3  C1  UNK     1      19.343  -2.264  14.176  1.00  0.00    -0.024 A 
HETATM    4  C2  UNK     1      18.350  -4.485  14.272  1.00  0.00     0.005 A 
HETATM    5  C3  UNK     1      18.740  -1.923  15.386  1.00  0.00     0.078 A 
HETATM    6  C4  UNK     1      19.149  -3.535  13.623  1.00  0.00     0.024 A 
HETATM    7  C5  UNK     1      17.759  -4.116  15.482  1.00  0.00     0.092 A 
HETATM    8  C7  UNK     1      18.102  -5.836  13.752  1.00  0.00    -0.043 A 
HETATM    9  C8  UNK     1      17.942  -2.851  16.046  1.00  0.00     0.075 A 
HETATM   10  C10 UNK     1      17.320  -6.668  14.453  1.00  0.00     0.090 A 
HETATM   11  C12 UNK     1      18.721  -6.264  12.453  1.00  0.00     0.049 C 
HETATM   12  C13 UNK     1      16.688  -6.293  15.730  1.00  0.00     0.288 A 
ENDROOT
BRANCH   5  13
HETATM   13  O1  UNK     1      18.921  -0.689  15.933  1.00  0.00    -0.346 OA
BRANCH  13  14
HETATM   14  C11 UNK     1      18.746  -0.573  17.344  1.00  0.00     0.214 C 
BRANCH  14  15
HETATM   15  C14 UNK     1      19.069   0.830  17.765  1.00  0.00    -0.034 A 
HETATM   16  C15 UNK     1      19.224   1.125  19.115  1.00  0.00     0.009 A 
HETATM   17  C17 UNK     1      19.525   2.429  19.507  1.00  0.00     0.001 A 
HETATM   18  C19 UNK     1      19.666   3.431  18.546  1.00  0.00     0.000 A 
HETATM   19  C18 UNK     1      19.509   3.128  17.194  1.00  0.00     0.001 A 
HETATM   20  C16 UNK     1      19.209   1.823  16.802  1.00  0.00     0.009 A 
ENDBRANCH  14  15
ENDBRANCH  13  14
ENDBRANCH   5  13
BRANCH   3  21
HETATM   21  C6  UNK     1      20.204  -1.280  13.453  1.00  0.00     0.037 C 
HETATM   22  C9  UNK     1      20.373  -1.638  11.979  1.00  0.00     0.010 C 
ENDBRANCH   3  21
TORSDOF 4
ENDMDL
