MODEL 1
REMARK VINA RESULT:      -9.7      0.000      0.000
REMARK  4 active torsions:
REMARK  status: ('A' for Active; 'I' for Inactive)
REMARK    1  A    between atoms: C7_16  and  N1_7 
REMARK    2  A    between atoms: C21_30  and  N3_9 
REMARK    3  A    between atoms: C1_10  and  C3_12 
REMARK    4  A    between atoms: C11_20  and  C14_23 
ROOT
HETATM    1  O1  UNK     1      18.413   8.857  34.378  1.00  0.00    -0.291 OA
HETATM    2  O3  UNK     1      15.127   8.380  31.832  1.00  0.00    -0.274 OA
HETATM    3  O4  UNK     1      16.302   6.870  30.593  1.00  0.00    -0.259 OA
HETATM    4  N2  UNK     1      22.159   6.383  32.634  1.00  0.00    -0.191 NA
HETATM    5  C1  UNK     1      18.645   6.926  32.267  1.00  0.00     0.133 C 
HETATM    6  C2  UNK     1      17.405   7.768  32.499  1.00  0.00     0.068 A 
HETATM    7  C4  UNK     1      17.355   8.647  33.512  1.00  0.00     0.104 A 
HETATM    8  C5  UNK     1      19.817   7.377  33.131  1.00  0.00     0.088 C 
HETATM    9  C6  UNK     1      16.156   9.443  33.764  1.00  0.00     0.033 A 
HETATM   10  C7  UNK     1      19.658   8.285  34.122  1.00  0.00     0.160 C 
HETATM   11  C8  UNK     1      16.261   7.621  31.561  1.00  0.00     0.298 A 
HETATM   12  C10 UNK     1      15.067   9.280  32.914  1.00  0.00     0.092 A 
HETATM   13  C13 UNK     1      16.040  10.357  34.818  1.00  0.00     0.017 A 
HETATM   14  C15 UNK     1      13.881   9.994  33.083  1.00  0.00     0.038 A 
HETATM   15  C16 UNK     1      21.111   6.828  32.857  1.00  0.00     0.100 C 
HETATM   16  C17 UNK     1      14.857  11.080  35.001  1.00  0.00     0.001 A 
HETATM   17  C18 UNK     1      13.779  10.899  34.134  1.00  0.00     0.003 A 
ENDROOT
BRANCH   5  18
HETATM   18  C3  UNK     1      18.370   5.466  32.431  1.00  0.00     0.068 A 
HETATM   19  O2  UNK     1      18.646   4.703  31.355  1.00  0.00    -0.313 OA
HETATM   20  C11 UNK     1      18.329   3.432  31.715  1.00  0.00     0.086 A 
HETATM   21  C12 UNK     1      17.858   3.399  33.007  1.00  0.00     0.040 A 
HETATM   22  C9  UNK     1      17.887   4.735  33.470  1.00  0.00     0.036 A 
BRANCH  20  23
HETATM   23  C14 UNK     1      18.546   2.433  30.706  1.00  0.00     0.000 A 
HETATM   24  C19 UNK     1      19.382   1.343  30.963  1.00  0.00     0.050 A 
HETATM   25  C21 UNK     1      19.593   0.373  29.982  1.00  0.00     0.103 A 
HETATM   26  C23 UNK     1      18.967   0.490  28.741  1.00  0.00     0.036 A 
HETATM   27  C22 UNK     1      18.132   1.576  28.480  1.00  0.00     0.003 A 
HETATM   28  C20 UNK     1      17.922   2.545  29.460  1.00  0.00     0.014 A 
BRANCH  25  29
HETATM   29  N3  UNK     1      20.441  -0.734  30.248  1.00  0.00    -0.116 N 
HETATM   30  O5  UNK     1      21.213  -0.685  31.236  1.00  0.00    -0.532 OA
HETATM   31  O6  UNK     1      20.395  -1.731  29.487  1.00  0.00    -0.532 OA
ENDBRANCH  25  29
ENDBRANCH  20  23
ENDBRANCH   5  18
BRANCH  10  32
HETATM   32  N1  UNK     1      20.649   8.731  34.951  1.00  0.00    -0.379 N 
HETATM   33  H7  UNK     1      20.622   9.691  35.272  1.00  0.00     0.158 HD
HETATM   34  H8  UNK     1      21.398   8.117  35.244  1.00  0.00     0.158 HD
ENDBRANCH  10  32
TORSDOF 4
ENDMDL
MODEL 2
REMARK VINA RESULT:      -9.6      2.939      8.873
REMARK  4 active torsions:
REMARK  status: ('A' for Active; 'I' for Inactive)
REMARK    1  A    between atoms: C7_16  and  N1_7 
REMARK    2  A    between atoms: C21_30  and  N3_9 
REMARK    3  A    between atoms: C1_10  and  C3_12 
REMARK    4  A    between atoms: C11_20  and  C14_23 
ROOT
HETATM    1  O1  UNK     1      19.045  -0.688  33.753  1.00  0.00    -0.291 OA
HETATM    2  O3  UNK     1      18.855   1.616  30.265  1.00  0.00    -0.274 OA
HETATM    3  O4  UNK     1      17.752   3.255  31.404  1.00  0.00    -0.259 OA
HETATM    4  N2  UNK     1      16.534   1.485  37.243  1.00  0.00    -0.191 NA
HETATM    5  C1  UNK     1      17.867   1.922  33.954  1.00  0.00     0.133 C 
HETATM    6  C2  UNK     1      18.416   1.349  32.662  1.00  0.00     0.068 A 
HETATM    7  C4  UNK     1      18.965   0.124  32.636  1.00  0.00     0.104 A 
HETATM    8  C5  UNK     1      17.809   0.882  35.068  1.00  0.00     0.088 C 
HETATM    9  C6  UNK     1      19.523  -0.427  31.405  1.00  0.00     0.033 A 
HETATM   10  C7  UNK     1      18.387  -0.333  34.930  1.00  0.00     0.160 C 
HETATM   11  C8  UNK     1      18.302   2.159  31.421  1.00  0.00     0.298 A 
HETATM   12  C10 UNK     1      19.456   0.343  30.248  1.00  0.00     0.092 A 
HETATM   13  C13 UNK     1      20.127  -1.688  31.324  1.00  0.00     0.017 A 
HETATM   14  C15 UNK     1      19.969  -0.102  29.030  1.00  0.00     0.038 A 
HETATM   15  C16 UNK     1      17.105   1.215  36.269  1.00  0.00     0.100 C 
HETATM   16  C17 UNK     1      20.646  -2.148  30.109  1.00  0.00     0.001 A 
HETATM   17  C18 UNK     1      20.567  -1.357  28.964  1.00  0.00     0.003 A 
ENDROOT
BRANCH   5  18
HETATM   18  C3  UNK     1      18.608   3.147  34.385  1.00  0.00     0.068 A 
HETATM   19  O2  UNK     1      18.107   4.313  33.931  1.00  0.00    -0.313 OA
HETATM   20  C11 UNK     1      18.919   5.281  34.433  1.00  0.00     0.086 A 
HETATM   21  C12 UNK     1      19.921   4.725  35.193  1.00  0.00     0.040 A 
HETATM   22  C9  UNK     1      19.711   3.326  35.157  1.00  0.00     0.036 A 
BRANCH  20  23
HETATM   23  C14 UNK     1      18.568   6.626  34.073  1.00  0.00     0.000 A 
HETATM   24  C19 UNK     1      17.478   6.870  33.231  1.00  0.00     0.050 A 
HETATM   25  C21 UNK     1      17.139   8.176  32.882  1.00  0.00     0.103 A 
HETATM   26  C23 UNK     1      17.886   9.246  33.374  1.00  0.00     0.036 A 
HETATM   27  C22 UNK     1      18.974   9.009  34.214  1.00  0.00     0.003 A 
HETATM   28  C20 UNK     1      19.314   7.702  34.562  1.00  0.00     0.014 A 
BRANCH  25  29
HETATM   29  N3  UNK     1      16.029   8.419  32.028  1.00  0.00    -0.116 N 
HETATM   30  O5  UNK     1      16.216   8.470  30.789  1.00  0.00    -0.532 OA
HETATM   31  O6  UNK     1      14.894   8.576  32.539  1.00  0.00    -0.532 OA
ENDBRANCH  25  29
ENDBRANCH  20  23
ENDBRANCH   5  18
BRANCH  10  32
HETATM   32  N1  UNK     1      18.396  -1.316  35.881  1.00  0.00    -0.379 N 
HETATM   33  H7  UNK     1      19.280  -1.731  36.147  1.00  0.00     0.158 HD
HETATM   34  H8  UNK     1      17.536  -1.625  36.317  1.00  0.00     0.158 HD
ENDBRANCH  10  32
TORSDOF 4
ENDMDL
MODEL 3
REMARK VINA RESULT:      -9.4     16.069     18.886
REMARK  4 active torsions:
REMARK  status: ('A' for Active; 'I' for Inactive)
REMARK    1  A    between atoms: C7_16  and  N1_7 
REMARK    2  A    between atoms: C21_30  and  N3_9 
REMARK    3  A    between atoms: C1_10  and  C3_12 
REMARK    4  A    between atoms: C11_20  and  C14_23 
ROOT
HETATM    1  O1  UNK     1      30.606  -5.701  33.397  1.00  0.00    -0.291 OA
HETATM    2  O3  UNK     1      29.471  -9.580  32.313  1.00  0.00    -0.274 OA
HETATM    3  O4  UNK     1      30.979 -10.438  33.791  1.00  0.00    -0.259 OA
HETATM    4  N2  UNK     1      34.349  -5.917  36.420  1.00  0.00    -0.191 NA
HETATM    5  C1  UNK     1      31.841  -7.881  34.798  1.00  0.00     0.133 C 
HETATM    6  C2  UNK     1      30.811  -8.067  33.700  1.00  0.00     0.068 A 
HETATM    7  C4  UNK     1      30.262  -7.005  33.090  1.00  0.00     0.104 A 
HETATM    8  C5  UNK     1      32.303  -6.432  34.914  1.00  0.00     0.088 C 
HETATM    9  C6  UNK     1      29.248  -7.171  32.052  1.00  0.00     0.033 A 
HETATM   10  C7  UNK     1      31.684  -5.436  34.241  1.00  0.00     0.160 C 
HETATM   11  C8  UNK     1      30.450  -9.451  33.294  1.00  0.00     0.298 A 
HETATM   12  C10 UNK     1      28.875  -8.463  31.696  1.00  0.00     0.092 A 
HETATM   13  C13 UNK     1      28.626  -6.101  31.399  1.00  0.00     0.017 A 
HETATM   14  C15 UNK     1      27.912  -8.715  30.719  1.00  0.00     0.038 A 
HETATM   15  C16 UNK     1      33.434  -6.147  35.746  1.00  0.00     0.100 C 
HETATM   16  C17 UNK     1      27.657  -6.337  30.417  1.00  0.00     0.001 A 
HETATM   17  C18 UNK     1      27.301  -7.641  30.078  1.00  0.00     0.003 A 
ENDROOT
BRANCH   5  18
HETATM   18  C3  UNK     1      31.364  -8.413  36.111  1.00  0.00     0.068 A 
HETATM   19  O2  UNK     1      30.100  -8.083  36.442  1.00  0.00    -0.313 OA
HETATM   20  C11 UNK     1      29.876  -8.660  37.651  1.00  0.00     0.086 A 
HETATM   21  C12 UNK     1      30.991  -9.346  38.075  1.00  0.00     0.040 A 
HETATM   22  C9  UNK     1      31.963  -9.179  37.060  1.00  0.00     0.036 A 
BRANCH  20  23
HETATM   23  C14 UNK     1      28.570  -8.437  38.207  1.00  0.00     0.000 A 
HETATM   24  C19 UNK     1      28.022  -7.152  38.225  1.00  0.00     0.050 A 
HETATM   25  C21 UNK     1      26.754  -6.936  38.765  1.00  0.00     0.103 A 
HETATM   26  C23 UNK     1      26.028  -8.006  39.289  1.00  0.00     0.036 A 
HETATM   27  C22 UNK     1      26.571  -9.291  39.273  1.00  0.00     0.003 A 
HETATM   28  C20 UNK     1      27.839  -9.506  38.735  1.00  0.00     0.014 A 
BRANCH  25  29
HETATM   29  N3  UNK     1      26.200  -5.628  38.778  1.00  0.00    -0.116 N 
HETATM   30  O5  UNK     1      26.969  -4.643  38.883  1.00  0.00    -0.532 OA
HETATM   31  O6  UNK     1      24.955  -5.495  38.685  1.00  0.00    -0.532 OA
ENDBRANCH  25  29
ENDBRANCH  20  23
ENDBRANCH   5  18
BRANCH  10  32
HETATM   32  N1  UNK     1      32.023  -4.113  34.299  1.00  0.00    -0.379 N 
HETATM   33  H7  UNK     1      32.461  -3.685  33.494  1.00  0.00     0.158 HD
HETATM   34  H8  UNK     1      31.838  -3.566  35.130  1.00  0.00     0.158 HD
ENDBRANCH  10  32
TORSDOF 4
ENDMDL
MODEL 4
REMARK VINA RESULT:      -9.4     22.252     24.559
REMARK  4 active torsions:
REMARK  status: ('A' for Active; 'I' for Inactive)
REMARK    1  A    between atoms: C7_16  and  N1_7 
REMARK    2  A    between atoms: C21_30  and  N3_9 
REMARK    3  A    between atoms: C1_10  and  C3_12 
REMARK    4  A    between atoms: C11_20  and  C14_23 
ROOT
HETATM    1  O1  UNK     1      14.524  11.858   9.239  1.00  0.00    -0.291 OA
HETATM    2  O3  UNK     1      18.204   9.934   8.725  1.00  0.00    -0.274 OA
HETATM    3  O4  UNK     1      17.572   8.322  10.208  1.00  0.00    -0.259 OA
HETATM    4  N2  UNK     1      12.035   9.644  12.717  1.00  0.00    -0.191 NA
HETATM    5  C1  UNK     1      14.929   9.383  10.636  1.00  0.00     0.133 C 
HETATM    6  C2  UNK     1      15.971  10.016   9.733  1.00  0.00     0.068 A 
HETATM    7  C4  UNK     1      15.716  11.170   9.099  1.00  0.00     0.104 A 
HETATM    8  C5  UNK     1      13.746  10.312  10.889  1.00  0.00     0.088 C 
HETATM    9  C6  UNK     1      16.700  11.774   8.204  1.00  0.00     0.033 A 
HETATM   10  C7  UNK     1      13.593  11.465  10.199  1.00  0.00     0.160 C 
HETATM   11  C8  UNK     1      17.290   9.345   9.594  1.00  0.00     0.298 A 
HETATM   12  C10 UNK     1      17.922  11.130   8.038  1.00  0.00     0.092 A 
HETATM   13  C13 UNK     1      16.480  12.964   7.500  1.00  0.00     0.017 A 
HETATM   14  C15 UNK     1      18.917  11.632   7.199  1.00  0.00     0.038 A 
HETATM   15  C16 UNK     1      12.801   9.943  11.899  1.00  0.00     0.100 C 
HETATM   16  C17 UNK     1      17.468  13.480   6.655  1.00  0.00     0.001 A 
HETATM   17  C18 UNK     1      18.685  12.816   6.505  1.00  0.00     0.003 A 
ENDROOT
BRANCH   5  18
HETATM   18  C3  UNK     1      14.482   8.050  10.129  1.00  0.00     0.068 A 
HETATM   19  O2  UNK     1      13.422   8.075   9.297  1.00  0.00    -0.313 OA
HETATM   20  C11 UNK     1      13.188   6.779   8.962  1.00  0.00     0.086 A 
HETATM   21  C12 UNK     1      14.094   5.949   9.580  1.00  0.00     0.040 A 
HETATM   22  C9  UNK     1      14.939   6.788  10.343  1.00  0.00     0.036 A 
BRANCH  20  23
HETATM   23  C14 UNK     1      12.084   6.564   8.068  1.00  0.00     0.000 A 
HETATM   24  C19 UNK     1      10.799   6.350   8.574  1.00  0.00     0.050 A 
HETATM   25  C21 UNK     1       9.728   6.140   7.705  1.00  0.00     0.103 A 
HETATM   26  C23 UNK     1       9.938   6.146   6.326  1.00  0.00     0.036 A 
HETATM   27  C22 UNK     1      11.218   6.359   5.816  1.00  0.00     0.003 A 
HETATM   28  C20 UNK     1      12.289   6.567   6.685  1.00  0.00     0.014 A 
BRANCH  25  29
HETATM   29  N3  UNK     1       8.423   5.925   8.223  1.00  0.00    -0.116 N 
HETATM   30  O5  UNK     1       7.550   6.811   8.058  1.00  0.00    -0.532 OA
HETATM   31  O6  UNK     1       8.180   4.855   8.833  1.00  0.00    -0.532 OA
ENDBRANCH  25  29
ENDBRANCH  20  23
ENDBRANCH   5  18
BRANCH  10  32
HETATM   32  N1  UNK     1      12.557  12.345  10.352  1.00  0.00    -0.379 N 
HETATM   33  H7  UNK     1      11.662  12.124   9.936  1.00  0.00     0.158 HD
HETATM   34  H8  UNK     1      12.678  13.204  10.874  1.00  0.00     0.158 HD
ENDBRANCH  10  32
TORSDOF 4
ENDMDL
MODEL 5
REMARK VINA RESULT:      -9.0     16.876     19.627
REMARK  4 active torsions:
REMARK  status: ('A' for Active; 'I' for Inactive)
REMARK    1  A    between atoms: C7_16  and  N1_7 
REMARK    2  A    between atoms: C21_30  and  N3_9 
REMARK    3  A    between atoms: C1_10  and  C3_12 
REMARK    4  A    between atoms: C11_20  and  C14_23 
ROOT
HETATM    1  O1  UNK     1      29.887  -6.791  31.777  1.00  0.00    -0.291 OA
HETATM    2  O3  UNK     1      31.593 -10.592  31.392  1.00  0.00    -0.274 OA
HETATM    3  O4  UNK     1      33.064 -10.105  33.063  1.00  0.00    -0.259 OA
HETATM    4  N2  UNK     1      32.445  -4.204  34.933  1.00  0.00    -0.191 NA
HETATM    5  C1  UNK     1      31.984  -7.492  33.608  1.00  0.00     0.133 C 
HETATM    6  C2  UNK     1      31.473  -8.422  32.524  1.00  0.00     0.068 A 
HETATM    7  C4  UNK     1      30.481  -8.038  31.706  1.00  0.00     0.104 A 
HETATM    8  C5  UNK     1      31.420  -6.081  33.470  1.00  0.00     0.088 C 
HETATM    9  C6  UNK     1      29.960  -8.935  30.678  1.00  0.00     0.033 A 
HETATM   10  C7  UNK     1      30.424  -5.801  32.598  1.00  0.00     0.160 C 
HETATM   11  C8  UNK     1      32.117  -9.753  32.369  1.00  0.00     0.298 A 
HETATM   12  C10 UNK     1      30.532 -10.198  30.554  1.00  0.00     0.092 A 
HETATM   13  C13 UNK     1      28.913  -8.597  29.812  1.00  0.00     0.017 A 
HETATM   14  C15 UNK     1      30.094 -11.121  29.604  1.00  0.00     0.038 A 
HETATM   15  C16 UNK     1      31.987  -5.044  34.277  1.00  0.00     0.100 C 
HETATM   16  C17 UNK     1      28.463  -9.512  28.854  1.00  0.00     0.001 A 
HETATM   17  C18 UNK     1      29.052 -10.771  28.750  1.00  0.00     0.003 A 
ENDROOT
BRANCH   5  18
HETATM   18  C3  UNK     1      31.753  -8.045  34.977  1.00  0.00     0.068 A 
HETATM   19  O2  UNK     1      30.551  -7.762  35.518  1.00  0.00    -0.313 OA
HETATM   20  C11 UNK     1      30.553  -8.350  36.743  1.00  0.00     0.086 A 
HETATM   21  C12 UNK     1      31.746  -8.996  36.968  1.00  0.00     0.040 A 
HETATM   22  C9  UNK     1      32.528  -8.791  35.806  1.00  0.00     0.036 A 
BRANCH  20  23
HETATM   23  C14 UNK     1      29.351  -8.177  37.511  1.00  0.00     0.000 A 
HETATM   24  C19 UNK     1      28.815  -6.899  37.702  1.00  0.00     0.050 A 
HETATM   25  C21 UNK     1      27.649  -6.732  38.448  1.00  0.00     0.103 A 
HETATM   26  C23 UNK     1      27.013  -7.841  39.005  1.00  0.00     0.036 A 
HETATM   27  C22 UNK     1      27.543  -9.117  38.817  1.00  0.00     0.003 A 
HETATM   28  C20 UNK     1      28.710  -9.284  38.072  1.00  0.00     0.014 A 
BRANCH  25  29
HETATM   29  N3  UNK     1      27.107  -5.433  38.638  1.00  0.00    -0.116 N 
HETATM   30  O5  UNK     1      27.884  -4.480  38.885  1.00  0.00    -0.532 OA
HETATM   31  O6  UNK     1      25.865  -5.275  38.552  1.00  0.00    -0.532 OA
ENDBRANCH  25  29
ENDBRANCH  20  23
ENDBRANCH   5  18
BRANCH  10  32
HETATM   32  N1  UNK     1      29.852  -4.571  32.422  1.00  0.00    -0.379 N 
HETATM   33  H7  UNK     1      29.476  -4.333  31.513  1.00  0.00     0.158 HD
HETATM   34  H8  UNK     1      29.800  -3.908  33.185  1.00  0.00     0.158 HD
ENDBRANCH  10  32
TORSDOF 4
ENDMDL
MODEL 6
REMARK VINA RESULT:      -9.0     17.928     19.318
REMARK  4 active torsions:
REMARK  status: ('A' for Active; 'I' for Inactive)
REMARK    1  A    between atoms: C7_16  and  N1_7 
REMARK    2  A    between atoms: C21_30  and  N3_9 
REMARK    3  A    between atoms: C1_10  and  C3_12 
REMARK    4  A    between atoms: C11_20  and  C14_23 
ROOT
HETATM    1  O1  UNK     1      30.652  -9.976  36.525  1.00  0.00    -0.291 OA
HETATM    2  O3  UNK     1      29.642  -6.141  37.860  1.00  0.00    -0.274 OA
HETATM    3  O4  UNK     1      31.156  -5.236  36.417  1.00  0.00    -0.259 OA
HETATM    4  N2  UNK     1      34.365  -9.679  33.471  1.00  0.00    -0.191 NA
HETATM    5  C1  UNK     1      31.933  -7.749  35.244  1.00  0.00     0.133 C 
HETATM    6  C2  UNK     1      30.922  -7.602  36.365  1.00  0.00     0.068 A 
HETATM    7  C4  UNK     1      30.350  -8.684  36.916  1.00  0.00     0.104 A 
HETATM    8  C5  UNK     1      32.352  -9.200  35.034  1.00  0.00     0.088 C 
HETATM    9  C6  UNK     1      29.353  -8.555  37.976  1.00  0.00     0.033 A 
HETATM   10  C7  UNK     1      31.712 -10.218  35.653  1.00  0.00     0.160 C 
HETATM   11  C8  UNK     1      30.604  -6.237  36.860  1.00  0.00     0.298 A 
HETATM   12  C10 UNK     1      29.021  -7.277  38.416  1.00  0.00     0.092 A 
HETATM   13  C13 UNK     1      28.708  -9.646  38.571  1.00  0.00     0.017 A 
HETATM   14  C15 UNK     1      28.077  -7.060  39.419  1.00  0.00     0.038 A 
HETATM   15  C16 UNK     1      33.464  -9.465  34.171  1.00  0.00     0.100 C 
HETATM   16  C17 UNK     1      27.758  -9.444  39.578  1.00  0.00     0.001 A 
HETATM   17  C18 UNK     1      27.443  -8.153  40.001  1.00  0.00     0.003 A 
ENDROOT
BRANCH   5  18
HETATM   18  C3  UNK     1      31.456  -7.124  33.973  1.00  0.00     0.068 A 
HETATM   19  O2  UNK     1      30.755  -7.937  33.159  1.00  0.00    -0.313 OA
HETATM   20  C11 UNK     1      30.425  -7.180  32.080  1.00  0.00     0.086 A 
HETATM   21  C12 UNK     1      30.917  -5.903  32.217  1.00  0.00     0.040 A 
HETATM   22  C9  UNK     1      31.592  -5.873  33.460  1.00  0.00     0.036 A 
BRANCH  20  23
HETATM   23  C14 UNK     1      29.662  -7.852  31.066  1.00  0.00     0.000 A 
HETATM   24  C19 UNK     1      30.292  -8.340  29.917  1.00  0.00     0.050 A 
HETATM   25  C21 UNK     1      29.550  -8.992  28.932  1.00  0.00     0.103 A 
HETATM   26  C23 UNK     1      28.174  -9.160  29.093  1.00  0.00     0.036 A 
HETATM   27  C22 UNK     1      27.541  -8.676  30.236  1.00  0.00     0.003 A 
HETATM   28  C20 UNK     1      28.283  -8.023  31.220  1.00  0.00     0.014 A 
BRANCH  25  29
HETATM   29  N3  UNK     1      30.195  -9.488  27.768  1.00  0.00    -0.116 N 
HETATM   30  O5  UNK     1      29.527 -10.155  26.941  1.00  0.00    -0.532 OA
HETATM   31  O6  UNK     1      31.415  -9.246  27.599  1.00  0.00    -0.532 OA
ENDBRANCH  25  29
ENDBRANCH  20  23
ENDBRANCH   5  18
BRANCH  10  32
HETATM   32  N1  UNK     1      32.013 -11.545  35.509  1.00  0.00    -0.379 N 
HETATM   33  H7  UNK     1      32.711 -11.956  36.115  1.00  0.00     0.158 HD
HETATM   34  H8  UNK     1      31.546 -12.110  34.811  1.00  0.00     0.158 HD
ENDBRANCH  10  32
TORSDOF 4
ENDMDL
MODEL 7
REMARK VINA RESULT:      -9.0     15.034     17.197
REMARK  4 active torsions:
REMARK  status: ('A' for Active; 'I' for Inactive)
REMARK    1  A    between atoms: C7_16  and  N1_7 
REMARK    2  A    between atoms: C21_30  and  N3_9 
REMARK    3  A    between atoms: C1_10  and  C3_12 
REMARK    4  A    between atoms: C11_20  and  C14_23 
ROOT
HETATM    1  O1  UNK     1      25.587  -9.279  38.423  1.00  0.00    -0.291 OA
HETATM    2  O3  UNK     1      24.886  -5.185  38.928  1.00  0.00    -0.274 OA
HETATM    3  O4  UNK     1      27.133  -4.808  39.013  1.00  0.00    -0.259 OA
HETATM    4  N2  UNK     1      30.303 -10.159  38.849  1.00  0.00    -0.191 NA
HETATM    5  C1  UNK     1      27.875  -7.551  38.550  1.00  0.00     0.133 C 
HETATM    6  C2  UNK     1      26.446  -7.056  38.655  1.00  0.00     0.068 A 
HETATM    7  C4  UNK     1      25.417  -7.915  38.577  1.00  0.00     0.104 A 
HETATM    8  C5  UNK     1      27.963  -9.074  38.594  1.00  0.00     0.088 C 
HETATM    9  C6  UNK     1      24.035  -7.447  38.648  1.00  0.00     0.033 A 
HETATM   10  C7  UNK     1      26.856  -9.848  38.522  1.00  0.00     0.160 C 
HETATM   11  C8  UNK     1      26.212  -5.606  38.879  1.00  0.00     0.298 A 
HETATM   12  C10 UNK     1      23.809  -6.085  38.817  1.00  0.00     0.092 A 
HETATM   13  C13 UNK     1      22.925  -8.294  38.550  1.00  0.00     0.017 A 
HETATM   14  C15 UNK     1      22.523  -5.550  38.889  1.00  0.00     0.038 A 
HETATM   15  C16 UNK     1      29.255  -9.673  38.735  1.00  0.00     0.100 C 
HETATM   16  C17 UNK     1      21.628  -7.772  38.621  1.00  0.00     0.001 A 
HETATM   17  C18 UNK     1      21.428  -6.403  38.790  1.00  0.00     0.003 A 
ENDROOT
BRANCH   5  18
HETATM   18  C3  UNK     1      28.575  -6.995  37.351  1.00  0.00     0.068 A 
HETATM   19  O2  UNK     1      28.090  -7.401  36.161  1.00  0.00    -0.313 OA
HETATM   20  C11 UNK     1      28.859  -6.787  35.224  1.00  0.00     0.086 A 
HETATM   21  C12 UNK     1      29.818  -6.003  35.823  1.00  0.00     0.040 A 
HETATM   22  C9  UNK     1      29.627  -6.145  37.217  1.00  0.00     0.036 A 
BRANCH  20  23
HETATM   23  C14 UNK     1      28.517  -7.078  33.860  1.00  0.00     0.000 A 
HETATM   24  C19 UNK     1      29.007  -8.231  33.241  1.00  0.00     0.050 A 
HETATM   25  C21 UNK     1      28.675  -8.513  31.916  1.00  0.00     0.103 A 
HETATM   26  C23 UNK     1      27.849  -7.642  31.204  1.00  0.00     0.036 A 
HETATM   27  C22 UNK     1      27.358  -6.490  31.817  1.00  0.00     0.003 A 
HETATM   28  C20 UNK     1      27.691  -6.208  33.141  1.00  0.00     0.014 A 
BRANCH  25  29
HETATM   29  N3  UNK     1      29.173  -9.687  31.292  1.00  0.00    -0.116 N 
HETATM   30  O5  UNK     1      29.217  -9.738  30.039  1.00  0.00    -0.532 OA
HETATM   31  O6  UNK     1      29.555 -10.642  32.012  1.00  0.00    -0.532 OA
ENDBRANCH  25  29
ENDBRANCH  20  23
ENDBRANCH   5  18
BRANCH  10  32
HETATM   32  N1  UNK     1      26.845 -11.215  38.540  1.00  0.00    -0.379 N 
HETATM   33  H7  UNK     1      26.019 -11.693  38.875  1.00  0.00     0.158 HD
HETATM   34  H8  UNK     1      27.647 -11.745  38.222  1.00  0.00     0.158 HD
ENDBRANCH  10  32
TORSDOF 4
ENDMDL
MODEL 8
REMARK VINA RESULT:      -9.0     15.074     20.845
REMARK  4 active torsions:
REMARK  status: ('A' for Active; 'I' for Inactive)
REMARK    1  A    between atoms: C7_16  and  N1_7 
REMARK    2  A    between atoms: C21_30  and  N3_9 
REMARK    3  A    between atoms: C1_10  and  C3_12 
REMARK    4  A    between atoms: C11_20  and  C14_23 
ROOT
HETATM    1  O1  UNK     1      19.254  -5.530  12.822  1.00  0.00    -0.291 OA
HETATM    2  O3  UNK     1      20.108  -1.632  11.562  1.00  0.00    -0.274 OA
HETATM    3  O4  UNK     1      19.013  -0.801  13.380  1.00  0.00    -0.259 OA
HETATM    4  N2  UNK     1      16.367  -5.367  16.674  1.00  0.00    -0.191 NA
HETATM    5  C1  UNK     1      18.411  -3.375  14.521  1.00  0.00     0.133 C 
HETATM    6  C2  UNK     1      19.141  -3.169  13.208  1.00  0.00     0.068 A 
HETATM    7  C4  UNK     1      19.519  -4.220  12.464  1.00  0.00     0.104 A 
HETATM    8  C5  UNK     1      17.984  -4.825  14.722  1.00  0.00     0.088 C 
HETATM    9  C6  UNK     1      20.249  -4.036  11.212  1.00  0.00     0.033 A 
HETATM   10  C7  UNK     1      18.415  -5.809  13.899  1.00  0.00     0.160 C 
HETATM   11  C8  UNK     1      19.400  -1.779  12.750  1.00  0.00     0.298 A 
HETATM   12  C10 UNK     1      20.529  -2.738  10.798  1.00  0.00     0.092 A 
HETATM   13  C13 UNK     1      20.686  -5.095  10.407  1.00  0.00     0.017 A 
HETATM   14  C15 UNK     1      21.225  -2.469   9.619  1.00  0.00     0.038 A 
HETATM   15  C16 UNK     1      17.090  -5.125  15.800  1.00  0.00     0.100 C 
HETATM   16  C17 UNK     1      21.386  -4.841   9.223  1.00  0.00     0.001 A 
HETATM   17  C18 UNK     1      21.655  -3.531   8.829  1.00  0.00     0.003 A 
ENDROOT
BRANCH   5  18
HETATM   18  C3  UNK     1      19.198  -2.868  15.687  1.00  0.00     0.068 A 
HETATM   19  O2  UNK     1      18.703  -1.763  16.279  1.00  0.00    -0.313 OA
HETATM   20  C11 UNK     1      19.557  -1.478  17.296  1.00  0.00     0.086 A 
HETATM   21  C12 UNK     1      20.580  -2.398  17.341  1.00  0.00     0.040 A 
HETATM   22  C9  UNK     1      20.338  -3.305  16.283  1.00  0.00     0.036 A 
BRANCH  20  23
HETATM   23  C14 UNK     1      19.221  -0.321  18.078  1.00  0.00     0.000 A 
HETATM   24  C19 UNK     1      19.481   0.961  17.585  1.00  0.00     0.050 A 
HETATM   25  C21 UNK     1      19.155   2.085  18.345  1.00  0.00     0.103 A 
HETATM   26  C23 UNK     1      18.566   1.931  19.600  1.00  0.00     0.036 A 
HETATM   27  C22 UNK     1      18.306   0.654  20.096  1.00  0.00     0.003 A 
HETATM   28  C20 UNK     1      18.633  -0.469  19.337  1.00  0.00     0.014 A 
BRANCH  25  29
HETATM   29  N3  UNK     1      19.418   3.386  17.839  1.00  0.00    -0.116 N 
HETATM   30  O5  UNK     1      19.253   3.607  16.615  1.00  0.00    -0.532 OA
HETATM   31  O6  UNK     1      19.808   4.278  18.631  1.00  0.00    -0.532 OA
ENDBRANCH  25  29
ENDBRANCH  20  23
ENDBRANCH   5  18
BRANCH  10  32
HETATM   32  N1  UNK     1      18.093  -7.133  14.016  1.00  0.00    -0.379 N 
HETATM   33  H7  UNK     1      18.776  -7.769  14.409  1.00  0.00     0.158 HD
HETATM   34  H8  UNK     1      17.189  -7.477  13.719  1.00  0.00     0.158 HD
ENDBRANCH  10  32
TORSDOF 4
ENDMDL
MODEL 9
REMARK VINA RESULT:      -8.9     16.354     18.477
REMARK  4 active torsions:
REMARK  status: ('A' for Active; 'I' for Inactive)
REMARK    1  A    between atoms: C7_16  and  N1_7 
REMARK    2  A    between atoms: C21_30  and  N3_9 
REMARK    3  A    between atoms: C1_10  and  C3_12 
REMARK    4  A    between atoms: C11_20  and  C14_23 
ROOT
HETATM    1  O1  UNK     1      30.269  -4.927  37.054  1.00  0.00    -0.291 OA
HETATM    2  O3  UNK     1      33.510  -6.991  35.398  1.00  0.00    -0.274 OA
HETATM    3  O4  UNK     1      32.483  -8.974  35.853  1.00  0.00    -0.259 OA
HETATM    4  N2  UNK     1      27.191  -8.080  38.999  1.00  0.00    -0.191 NA
HETATM    5  C1  UNK     1      30.087  -7.789  36.924  1.00  0.00     0.133 C 
HETATM    6  C2  UNK     1      31.285  -7.002  36.427  1.00  0.00     0.068 A 
HETATM    7  C4  UNK     1      31.304  -5.662  36.506  1.00  0.00     0.104 A 
HETATM    8  C5  UNK     1      29.103  -6.914  37.694  1.00  0.00     0.088 C 
HETATM    9  C6  UNK     1      32.439  -4.892  36.004  1.00  0.00     0.033 A 
HETATM   10  C7  UNK     1      29.224  -5.567  37.719  1.00  0.00     0.160 C 
HETATM   11  C8  UNK     1      32.448  -7.749  35.881  1.00  0.00     0.298 A 
HETATM   12  C10 UNK     1      33.514  -5.584  35.455  1.00  0.00     0.092 A 
HETATM   13  C13 UNK     1      32.503  -3.494  36.040  1.00  0.00     0.017 A 
HETATM   14  C15 UNK     1      34.636  -4.929  34.948  1.00  0.00     0.038 A 
HETATM   15  C16 UNK     1      28.047  -7.558  38.415  1.00  0.00     0.100 C 
HETATM   16  C17 UNK     1      33.621  -2.823  35.535  1.00  0.00     0.001 A 
HETATM   17  C18 UNK     1      34.686  -3.539  34.990  1.00  0.00     0.003 A 
ENDROOT
BRANCH   5  18
HETATM   18  C3  UNK     1      29.411  -8.538  35.821  1.00  0.00     0.068 A 
HETATM   19  O2  UNK     1      29.250  -7.852  34.673  1.00  0.00    -0.313 OA
HETATM   20  C11 UNK     1      28.625  -8.706  33.821  1.00  0.00     0.086 A 
HETATM   21  C12 UNK     1      28.396  -9.917  34.431  1.00  0.00     0.040 A 
HETATM   22  C9  UNK     1      28.914  -9.800  35.742  1.00  0.00     0.036 A 
BRANCH  20  23
HETATM   23  C14 UNK     1      28.348  -8.179  32.513  1.00  0.00     0.000 A 
HETATM   24  C19 UNK     1      28.613  -8.945  31.374  1.00  0.00     0.050 A 
HETATM   25  C21 UNK     1      28.345  -8.433  30.105  1.00  0.00     0.103 A 
HETATM   26  C23 UNK     1      27.808  -7.152  29.970  1.00  0.00     0.036 A 
HETATM   27  C22 UNK     1      27.542  -6.384  31.103  1.00  0.00     0.003 A 
HETATM   28  C20 UNK     1      27.812  -6.896  32.371  1.00  0.00     0.014 A 
BRANCH  25  29
HETATM   29  N3  UNK     1      28.613  -9.215  28.951  1.00  0.00    -0.116 N 
HETATM   30  O5  UNK     1      29.749  -9.150  28.423  1.00  0.00    -0.532 OA
HETATM   31  O6  UNK     1      27.706  -9.951  28.491  1.00  0.00    -0.532 OA
ENDBRANCH  25  29
ENDBRANCH  20  23
ENDBRANCH   5  18
BRANCH  10  32
HETATM   32  N1  UNK     1      28.380  -4.710  38.370  1.00  0.00    -0.379 N 
HETATM   33  H7  UNK     1      28.709  -3.781  38.599  1.00  0.00     0.158 HD
HETATM   34  H8  UNK     1      27.441  -4.994  38.618  1.00  0.00     0.158 HD
ENDBRANCH  10  32
TORSDOF 4
ENDMDL
MODEL 10
REMARK VINA RESULT:      -8.9     15.209     17.939
REMARK  4 active torsions:
REMARK  status: ('A' for Active; 'I' for Inactive)
REMARK    1  A    between atoms: C7_16  and  N1_7 
REMARK    2  A    between atoms: C21_30  and  N3_9 
REMARK    3  A    between atoms: C1_10  and  C3_12 
REMARK    4  A    between atoms: C11_20  and  C14_23 
ROOT
HETATM    1  O1  UNK     1      25.568  -9.315  38.686  1.00  0.00    -0.291 OA
HETATM    2  O3  UNK     1      24.854  -5.197  38.876  1.00  0.00    -0.274 OA
HETATM    3  O4  UNK     1      27.094  -4.799  38.739  1.00  0.00    -0.259 OA
HETATM    4  N2  UNK     1      30.315 -10.121  38.794  1.00  0.00    -0.191 NA
HETATM    5  C1  UNK     1      27.835  -7.568  38.464  1.00  0.00     0.133 C 
HETATM    6  C2  UNK     1      26.411  -7.075  38.644  1.00  0.00     0.068 A 
HETATM    7  C4  UNK     1      25.393  -7.944  38.730  1.00  0.00     0.104 A 
HETATM    8  C5  UNK     1      27.947  -9.079  38.639  1.00  0.00     0.088 C 
HETATM    9  C6  UNK     1      24.015  -7.481  38.873  1.00  0.00     0.033 A 
HETATM   10  C7  UNK     1      26.849  -9.864  38.730  1.00  0.00     0.160 C 
HETATM   11  C8  UNK     1      26.176  -5.611  38.754  1.00  0.00     0.298 A 
HETATM   12  C10 UNK     1      23.784  -6.110  38.936  1.00  0.00     0.092 A 
HETATM   13  C13 UNK     1      22.912  -8.340  38.945  1.00  0.00     0.017 A 
HETATM   14  C15 UNK     1      22.500  -5.580  39.067  1.00  0.00     0.038 A 
HETATM   15  C16 UNK     1      29.255  -9.655  38.725  1.00  0.00     0.100 C 
HETATM   16  C17 UNK     1      21.619  -7.823  39.077  1.00  0.00     0.001 A 
HETATM   17  C18 UNK     1      21.413  -6.445  39.138  1.00  0.00     0.003 A 
ENDROOT
BRANCH   5  18
HETATM   18  C3  UNK     1      28.425  -7.119  37.166  1.00  0.00     0.068 A 
HETATM   19  O2  UNK     1      29.618  -6.499  37.260  1.00  0.00    -0.313 OA
HETATM   20  C11 UNK     1      29.966  -6.181  35.986  1.00  0.00     0.086 A 
HETATM   21  C12 UNK     1      28.998  -6.597  35.101  1.00  0.00     0.040 A 
HETATM   22  C9  UNK     1      27.991  -7.211  35.882  1.00  0.00     0.036 A 
BRANCH  20  23
HETATM   23  C14 UNK     1      31.224  -5.502  35.842  1.00  0.00     0.000 A 
HETATM   24  C19 UNK     1      32.270  -6.100  35.133  1.00  0.00     0.050 A 
HETATM   25  C21 UNK     1      33.492  -5.441  34.994  1.00  0.00     0.103 A 
HETATM   26  C23 UNK     1      33.672  -4.180  35.563  1.00  0.00     0.036 A 
HETATM   27  C22 UNK     1      32.632  -3.580  36.272  1.00  0.00     0.003 A 
HETATM   28  C20 UNK     1      31.411  -4.239  36.411  1.00  0.00     0.014 A 
BRANCH  25  29
HETATM   29  N3  UNK     1      34.551  -6.052  34.271  1.00  0.00    -0.116 N 
HETATM   30  O5  UNK     1      34.308  -6.553  33.147  1.00  0.00    -0.532 OA
HETATM   31  O6  UNK     1      35.699  -6.072  34.776  1.00  0.00    -0.532 OA
ENDBRANCH  25  29
ENDBRANCH  20  23
ENDBRANCH   5  18
BRANCH  10  32
HETATM   32  N1  UNK     1      26.860 -11.224  38.872  1.00  0.00    -0.379 N 
HETATM   33  H7  UNK     1      26.001 -11.737  38.720  1.00  0.00     0.158 HD
HETATM   34  H8  UNK     1      27.709 -11.713  39.121  1.00  0.00     0.158 HD
ENDBRANCH  10  32
TORSDOF 4
ENDMDL
