MODEL 1
REMARK VINA RESULT:      -7.3      0.000      0.000
REMARK  3 active torsions:
REMARK  status: ('A' for Active; 'I' for Inactive)
REMARK    1  A    between atoms: C12_15  and  O2_2 
REMARK    2  A    between atoms: C5_8  and  O2_2 
REMARK    3  A    between atoms: C12_15  and  C13_16 
ROOT
HETATM    1  O1  UNK     1      19.249  -0.308  32.822  1.00  0.00    -0.274 OA
HETATM    2  O3  UNK     1      20.035  -2.416  33.231  1.00  0.00    -0.260 OA
HETATM    3  C1  UNK     1      19.364   0.591  30.554  1.00  0.00     0.005 A 
HETATM    4  C2  UNK     1      19.017   0.731  31.899  1.00  0.00     0.099 A 
HETATM    5  C3  UNK     1      18.428   1.892  32.401  1.00  0.00     0.006 A 
HETATM    6  C4  UNK     1      19.980  -0.668  30.113  1.00  0.00    -0.043 A 
HETATM    7  C5  UNK     1      18.175   2.952  31.537  1.00  0.00     0.077 A 
HETATM    8  C6  UNK     1      19.101   1.670  29.701  1.00  0.00     0.017 A 
HETATM    9  C7  UNK     1      18.510   2.842  30.188  1.00  0.00     0.038 A 
HETATM   10  C8  UNK     1      18.070   2.002  33.847  1.00  0.00     0.054 C 
HETATM   11  C9  UNK     1      20.188  -1.639  31.014  1.00  0.00     0.090 A 
HETATM   12  C10 UNK     1      20.365  -0.848  28.674  1.00  0.00     0.049 C 
HETATM   13  C11 UNK     1      19.828  -1.506  32.435  1.00  0.00     0.288 A 
ENDROOT
BRANCH   7  14
HETATM   14  O2  UNK     1      17.599   4.102  31.988  1.00  0.00    -0.347 OA
BRANCH  14  15
HETATM   15  C12 UNK     1      18.285   5.322  31.712  1.00  0.00     0.202 C 
BRANCH  15  16
HETATM   16  C13 UNK     1      19.089   5.702  32.911  1.00  0.00    -0.011 C 
HETATM   17  C14 UNK     1      20.212   6.427  32.856  1.00  0.00     0.009 C 
ENDBRANCH  15  16
ENDBRANCH  14  15
ENDBRANCH   7  14
TORSDOF 3
ENDMDL
MODEL 2
REMARK VINA RESULT:      -7.1      1.644      2.708
REMARK  3 active torsions:
REMARK  status: ('A' for Active; 'I' for Inactive)
REMARK    1  A    between atoms: C12_15  and  O2_2 
REMARK    2  A    between atoms: C5_8  and  O2_2 
REMARK    3  A    between atoms: C12_15  and  C13_16 
ROOT
HETATM    1  O1  UNK     1      19.646   0.916  29.543  1.00  0.00    -0.274 OA
HETATM    2  O3  UNK     1      20.618  -0.686  28.232  1.00  0.00    -0.260 OA
HETATM    3  C1  UNK     1      19.127   0.399  31.873  1.00  0.00     0.005 A 
HETATM    4  C2  UNK     1      19.131   1.291  30.799  1.00  0.00     0.099 A 
HETATM    5  C3  UNK     1      18.631   2.590  30.907  1.00  0.00     0.006 A 
HETATM    6  C4  UNK     1      19.675  -0.949  31.670  1.00  0.00    -0.043 A 
HETATM    7  C5  UNK     1      18.109   3.017  32.123  1.00  0.00     0.077 A 
HETATM    8  C6  UNK     1      18.598   0.850  33.090  1.00  0.00     0.017 A 
HETATM    9  C7  UNK     1      18.092   2.149  33.214  1.00  0.00     0.038 A 
HETATM   10  C8  UNK     1      18.653   3.515  29.735  1.00  0.00     0.054 C 
HETATM   11  C9  UNK     1      20.158  -1.278  30.464  1.00  0.00     0.090 A 
HETATM   12  C10 UNK     1      19.685  -1.931  32.804  1.00  0.00     0.049 C 
HETATM   13  C11 UNK     1      20.168  -0.349  29.322  1.00  0.00     0.288 A 
ENDROOT
BRANCH   7  14
HETATM   14  O2  UNK     1      17.613   4.278  32.269  1.00  0.00    -0.347 OA
BRANCH  14  15
HETATM   15  C12 UNK     1      18.281   5.134  33.194  1.00  0.00     0.202 C 
BRANCH  15  16
HETATM   16  C13 UNK     1      19.116   6.108  32.432  1.00  0.00    -0.011 C 
HETATM   17  C14 UNK     1      20.388   6.395  32.731  1.00  0.00     0.009 C 
ENDBRANCH  15  16
ENDBRANCH  14  15
ENDBRANCH   7  14
TORSDOF 3
ENDMDL
MODEL 3
REMARK VINA RESULT:      -6.7      3.223      5.803
REMARK  3 active torsions:
REMARK  status: ('A' for Active; 'I' for Inactive)
REMARK    1  A    between atoms: C12_15  and  O2_2 
REMARK    2  A    between atoms: C5_8  and  O2_2 
REMARK    3  A    between atoms: C12_15  and  C13_16 
ROOT
HETATM    1  O1  UNK     1      20.662  -3.270  35.271  1.00  0.00    -0.274 OA
HETATM    2  O3  UNK     1      21.253  -4.389  37.176  1.00  0.00    -0.260 OA
HETATM    3  C1  UNK     1      18.962  -1.521  35.392  1.00  0.00     0.005 A 
HETATM    4  C2  UNK     1      19.872  -2.280  34.655  1.00  0.00     0.099 A 
HETATM    5  C3  UNK     1      20.048  -2.105  33.281  1.00  0.00     0.006 A 
HETATM    6  C4  UNK     1      18.842  -1.772  36.835  1.00  0.00    -0.043 A 
HETATM    7  C5  UNK     1      19.295  -1.142  32.618  1.00  0.00     0.077 A 
HETATM    8  C6  UNK     1      18.213  -0.556  34.705  1.00  0.00     0.017 A 
HETATM    9  C7  UNK     1      18.379  -0.368  33.329  1.00  0.00     0.038 A 
HETATM   10  C8  UNK     1      21.033  -2.938  32.527  1.00  0.00     0.054 C 
HETATM   11  C9  UNK     1      19.607  -2.720  37.394  1.00  0.00     0.090 A 
HETATM   12  C10 UNK     1      17.873  -0.973  37.655  1.00  0.00     0.049 C 
HETATM   13  C11 UNK     1      20.570  -3.530  36.630  1.00  0.00     0.288 A 
ENDROOT
BRANCH   7  14
HETATM   14  O2  UNK     1      19.440  -0.940  31.278  1.00  0.00    -0.347 OA
BRANCH  14  15
HETATM   15  C12 UNK     1      19.665   0.401  30.846  1.00  0.00     0.202 C 
BRANCH  15  16
HETATM   16  C13 UNK     1      19.858   0.402  29.366  1.00  0.00    -0.011 C 
HETATM   17  C14 UNK     1      20.111  -0.696  28.645  1.00  0.00     0.009 C 
ENDBRANCH  15  16
ENDBRANCH  14  15
ENDBRANCH   7  14
TORSDOF 3
ENDMDL
MODEL 4
REMARK VINA RESULT:      -6.7      3.352      8.321
REMARK  3 active torsions:
REMARK  status: ('A' for Active; 'I' for Inactive)
REMARK    1  A    between atoms: C12_15  and  O2_2 
REMARK    2  A    between atoms: C5_8  and  O2_2 
REMARK    3  A    between atoms: C12_15  and  C13_16 
ROOT
HETATM    1  O1  UNK     1      16.709   9.192  33.273  1.00  0.00    -0.274 OA
HETATM    2  O3  UNK     1      16.376  11.380  33.848  1.00  0.00    -0.260 OA
HETATM    3  C1  UNK     1      18.912   8.191  33.607  1.00  0.00     0.005 A 
HETATM    4  C2  UNK     1      17.584   8.091  33.189  1.00  0.00     0.099 A 
HETATM    5  C3  UNK     1      17.052   6.909  32.671  1.00  0.00     0.006 A 
HETATM    6  C4  UNK     1      19.387   9.475  34.140  1.00  0.00    -0.043 A 
HETATM    7  C5  UNK     1      17.869   5.788  32.563  1.00  0.00     0.077 A 
HETATM    8  C6  UNK     1      19.717   7.050  33.490  1.00  0.00     0.017 A 
HETATM    9  C7  UNK     1      19.200   5.858  32.973  1.00  0.00     0.038 A 
HETATM   10  C8  UNK     1      15.625   6.841  32.235  1.00  0.00     0.054 C 
HETATM   11  C9  UNK     1      18.532  10.505  34.208  1.00  0.00     0.090 A 
HETATM   12  C10 UNK     1      20.809   9.615  34.597  1.00  0.00     0.049 C 
HETATM   13  C11 UNK     1      17.129  10.415  33.771  1.00  0.00     0.288 A 
ENDROOT
BRANCH   7  14
HETATM   14  O2  UNK     1      17.386   4.615  32.065  1.00  0.00    -0.347 OA
BRANCH  14  15
HETATM   15  C12 UNK     1      18.327   3.563  31.857  1.00  0.00     0.202 C 
BRANCH  15  16
HETATM   16  C13 UNK     1      18.577   3.424  30.392  1.00  0.00    -0.011 C 
HETATM   17  C14 UNK     1      18.344   2.304  29.699  1.00  0.00     0.009 C 
ENDBRANCH  15  16
ENDBRANCH  14  15
ENDBRANCH   7  14
TORSDOF 3
ENDMDL
MODEL 5
REMARK VINA RESULT:      -6.6      2.431      4.598
REMARK  3 active torsions:
REMARK  status: ('A' for Active; 'I' for Inactive)
REMARK    1  A    between atoms: C12_15  and  O2_2 
REMARK    2  A    between atoms: C5_8  and  O2_2 
REMARK    3  A    between atoms: C12_15  and  C13_16 
ROOT
HETATM    1  O1  UNK     1      18.622   1.685  31.339  1.00  0.00    -0.274 OA
HETATM    2  O3  UNK     1      18.700   2.687  29.285  1.00  0.00    -0.260 OA
HETATM    3  C1  UNK     1      19.453  -0.598  31.587  1.00  0.00     0.005 A 
HETATM    4  C2  UNK     1      18.881   0.551  32.134  1.00  0.00     0.099 A 
HETATM    5  C3  UNK     1      18.538   0.643  33.484  1.00  0.00     0.006 A 
HETATM    6  C4  UNK     1      19.784  -0.606  30.155  1.00  0.00    -0.043 A 
HETATM    7  C5  UNK     1      18.770  -0.445  34.319  1.00  0.00     0.077 A 
HETATM    8  C6  UNK     1      19.680  -1.683  32.445  1.00  0.00     0.017 A 
HETATM    9  C7  UNK     1      19.341  -1.607  33.800  1.00  0.00     0.038 A 
HETATM   10  C8  UNK     1      17.928   1.891  34.032  1.00  0.00     0.054 C 
HETATM   11  C9  UNK     1      19.526   0.487  29.424  1.00  0.00     0.090 A 
HETATM   12  C10 UNK     1      20.399  -1.827  29.537  1.00  0.00     0.049 C 
HETATM   13  C11 UNK     1      18.922   1.706  29.986  1.00  0.00     0.288 A 
ENDROOT
BRANCH   7  14
HETATM   14  O2  UNK     1      18.450  -0.393  35.642  1.00  0.00    -0.347 OA
BRANCH  14  15
HETATM   15  C12 UNK     1      17.127  -0.782  36.005  1.00  0.00     0.202 C 
BRANCH  15  16
HETATM   16  C13 UNK     1      16.599   0.189  37.008  1.00  0.00    -0.011 C 
HETATM   17  C14 UNK     1      17.367   1.032  37.707  1.00  0.00     0.009 C 
ENDBRANCH  15  16
ENDBRANCH  14  15
ENDBRANCH   7  14
TORSDOF 3
ENDMDL
MODEL 6
REMARK VINA RESULT:      -6.6      3.094      7.485
REMARK  3 active torsions:
REMARK  status: ('A' for Active; 'I' for Inactive)
REMARK    1  A    between atoms: C12_15  and  O2_2 
REMARK    2  A    between atoms: C5_8  and  O2_2 
REMARK    3  A    between atoms: C12_15  and  C13_16 
ROOT
HETATM    1  O1  UNK     1      20.421   7.801  33.317  1.00  0.00    -0.274 OA
HETATM    2  O3  UNK     1      21.037   9.587  34.606  1.00  0.00    -0.260 OA
HETATM    3  C1  UNK     1      18.129   6.967  33.447  1.00  0.00     0.005 A 
HETATM    4  C2  UNK     1      19.418   6.896  32.916  1.00  0.00     0.099 A 
HETATM    5  C3  UNK     1      19.783   5.938  31.970  1.00  0.00     0.006 A 
HETATM    6  C4  UNK     1      17.833   8.010  34.439  1.00  0.00    -0.043 A 
HETATM    7  C5  UNK     1      18.835   5.017  31.536  1.00  0.00     0.077 A 
HETATM    8  C6  UNK     1      17.189   6.031  32.997  1.00  0.00     0.017 A 
HETATM    9  C7  UNK     1      17.539   5.064  32.049  1.00  0.00     0.038 A 
HETATM   10  C8  UNK     1      21.173   5.895  31.425  1.00  0.00     0.054 C 
HETATM   11  C9  UNK     1      18.807   8.857  34.800  1.00  0.00     0.090 A 
HETATM   12  C10 UNK     1      16.457   8.112  35.028  1.00  0.00     0.049 C 
HETATM   13  C11 UNK     1      20.171   8.795  34.250  1.00  0.00     0.288 A 
ENDROOT
BRANCH   7  14
HETATM   14  O2  UNK     1      19.152   4.067  30.613  1.00  0.00    -0.347 OA
BRANCH  14  15
HETATM   15  C12 UNK     1      18.617   2.761  30.816  1.00  0.00     0.202 C 
BRANCH  15  16
HETATM   16  C13 UNK     1      18.779   1.974  29.558  1.00  0.00    -0.011 C 
HETATM   17  C14 UNK     1      17.851   1.904  28.598  1.00  0.00     0.009 C 
ENDBRANCH  15  16
ENDBRANCH  14  15
ENDBRANCH   7  14
TORSDOF 3
ENDMDL
MODEL 7
REMARK VINA RESULT:      -6.6      2.355      5.493
REMARK  3 active torsions:
REMARK  status: ('A' for Active; 'I' for Inactive)
REMARK    1  A    between atoms: C12_15  and  O2_2 
REMARK    2  A    between atoms: C5_8  and  O2_2 
REMARK    3  A    between atoms: C12_15  and  C13_16 
ROOT
HETATM    1  O1  UNK     1      18.468   1.460  31.587  1.00  0.00    -0.274 OA
HETATM    2  O3  UNK     1      18.253   2.972  29.885  1.00  0.00    -0.260 OA
HETATM    3  C1  UNK     1      19.788  -0.563  31.229  1.00  0.00     0.005 A 
HETATM    4  C2  UNK     1      18.997   0.240  32.052  1.00  0.00     0.099 A 
HETATM    5  C3  UNK     1      18.689  -0.115  33.367  1.00  0.00     0.006 A 
HETATM    6  C4  UNK     1      20.063  -0.111  29.859  1.00  0.00    -0.043 A 
HETATM    7  C5  UNK     1      19.183  -1.309  33.881  1.00  0.00     0.077 A 
HETATM    8  C6  UNK     1      20.277  -1.761  31.767  1.00  0.00     0.017 A 
HETATM    9  C7  UNK     1      19.977  -2.131  33.082  1.00  0.00     0.038 A 
HETATM   10  C8  UNK     1      17.839   0.773  34.216  1.00  0.00     0.054 C 
HETATM   11  C9  UNK     1      19.546   1.054  29.444  1.00  0.00     0.090 A 
HETATM   12  C10 UNK     1      20.909  -0.952  28.949  1.00  0.00     0.049 C 
HETATM   13  C11 UNK     1      18.710   1.912  30.300  1.00  0.00     0.288 A 
ENDROOT
BRANCH   7  14
HETATM   14  O2  UNK     1      18.906  -1.689  35.159  1.00  0.00    -0.347 OA
BRANCH  14  15
HETATM   15  C12 UNK     1      20.009  -2.093  35.969  1.00  0.00     0.202 C 
BRANCH  15  16
HETATM   16  C13 UNK     1      19.713  -3.436  36.549  1.00  0.00    -0.011 C 
HETATM   17  C14 UNK     1      20.527  -4.080  37.392  1.00  0.00     0.009 C 
ENDBRANCH  15  16
ENDBRANCH  14  15
ENDBRANCH   7  14
TORSDOF 3
ENDMDL
MODEL 8
REMARK VINA RESULT:      -6.5      1.289      5.656
REMARK  3 active torsions:
REMARK  status: ('A' for Active; 'I' for Inactive)
REMARK    1  A    between atoms: C12_15  and  O2_2 
REMARK    2  A    between atoms: C5_8  and  O2_2 
REMARK    3  A    between atoms: C12_15  and  C13_16 
ROOT
HETATM    1  O1  UNK     1      17.917   4.201  33.496  1.00  0.00    -0.274 OA
HETATM    2  O3  UNK     1      17.548   6.307  34.305  1.00  0.00    -0.260 OA
HETATM    3  C1  UNK     1      18.638   3.920  31.179  1.00  0.00     0.005 A 
HETATM    4  C2  UNK     1      18.292   3.376  32.417  1.00  0.00     0.099 A 
HETATM    5  C3  UNK     1      18.300   2.001  32.655  1.00  0.00     0.006 A 
HETATM    6  C4  UNK     1      18.602   5.380  31.018  1.00  0.00    -0.043 A 
HETATM    7  C5  UNK     1      18.662   1.136  31.627  1.00  0.00     0.077 A 
HETATM    8  C6  UNK     1      19.000   3.033  30.157  1.00  0.00     0.017 A 
HETATM    9  C7  UNK     1      19.012   1.652  30.380  1.00  0.00     0.038 A 
HETATM   10  C8  UNK     1      17.925   1.457  33.994  1.00  0.00     0.054 C 
HETATM   11  C9  UNK     1      18.241   6.140  32.062  1.00  0.00     0.090 A 
HETATM   12  C10 UNK     1      18.967   5.996  29.699  1.00  0.00     0.049 C 
HETATM   13  C11 UNK     1      17.874   5.581  33.373  1.00  0.00     0.288 A 
ENDROOT
BRANCH   7  14
HETATM   14  O2  UNK     1      18.684  -0.212  31.821  1.00  0.00    -0.347 OA
BRANCH  14  15
HETATM   15  C12 UNK     1      19.963  -0.842  31.855  1.00  0.00     0.202 C 
BRANCH  15  16
HETATM   16  C13 UNK     1      20.003  -1.907  30.810  1.00  0.00    -0.011 C 
HETATM   17  C14 UNK     1      20.390  -1.699  29.547  1.00  0.00     0.009 C 
ENDBRANCH  15  16
ENDBRANCH  14  15
ENDBRANCH   7  14
TORSDOF 3
ENDMDL
MODEL 9
REMARK VINA RESULT:      -6.5      4.176      8.079
REMARK  3 active torsions:
REMARK  status: ('A' for Active; 'I' for Inactive)
REMARK    1  A    between atoms: C12_15  and  O2_2 
REMARK    2  A    between atoms: C5_8  and  O2_2 
REMARK    3  A    between atoms: C12_15  and  C13_16 
ROOT
HETATM    1  O1  UNK     1      18.954  -0.245  33.921  1.00  0.00    -0.274 OA
HETATM    2  O3  UNK     1      18.214   1.587  32.772  1.00  0.00    -0.260 OA
HETATM    3  C1  UNK     1      18.315  -0.526  36.262  1.00  0.00     0.005 A 
HETATM    4  C2  UNK     1      18.990  -0.975  35.126  1.00  0.00     0.099 A 
HETATM    5  C3  UNK     1      19.729  -2.160  35.117  1.00  0.00     0.006 A 
HETATM    6  C4  UNK     1      17.561   0.732  36.180  1.00  0.00    -0.043 A 
HETATM    7  C5  UNK     1      19.800  -2.923  36.278  1.00  0.00     0.077 A 
HETATM    8  C6  UNK     1      18.400  -1.309  37.420  1.00  0.00     0.017 A 
HETATM    9  C7  UNK     1      19.136  -2.499  37.428  1.00  0.00     0.038 A 
HETATM   10  C8  UNK     1      20.436  -2.608  33.880  1.00  0.00     0.054 C 
HETATM   11  C9  UNK     1      17.544   1.405  35.021  1.00  0.00     0.090 A 
HETATM   12  C10 UNK     1      16.825   1.243  37.385  1.00  0.00     0.049 C 
HETATM   13  C11 UNK     1      18.251   0.944  33.815  1.00  0.00     0.288 A 
ENDROOT
BRANCH   7  14
HETATM   14  O2  UNK     1      20.510  -4.085  36.309  1.00  0.00    -0.347 OA
BRANCH  14  15
HETATM   15  C12 UNK     1      20.933  -4.553  37.588  1.00  0.00     0.202 C 
BRANCH  15  16
HETATM   16  C13 UNK     1      20.326  -5.895  37.834  1.00  0.00    -0.011 C 
HETATM   17  C14 UNK     1      20.249  -6.469  39.040  1.00  0.00     0.009 C 
ENDBRANCH  15  16
ENDBRANCH  14  15
ENDBRANCH   7  14
TORSDOF 3
ENDMDL
MODEL 10
REMARK VINA RESULT:      -6.4      2.997      5.175
REMARK  3 active torsions:
REMARK  status: ('A' for Active; 'I' for Inactive)
REMARK    1  A    between atoms: C12_15  and  O2_2 
REMARK    2  A    between atoms: C5_8  and  O2_2 
REMARK    3  A    between atoms: C12_15  and  C13_16 
ROOT
HETATM    1  O1  UNK     1      18.031   1.245  36.233  1.00  0.00    -0.274 OA
HETATM    2  O3  UNK     1      17.721   1.254  38.499  1.00  0.00    -0.260 OA
HETATM    3  C1  UNK     1      18.601  -0.849  35.113  1.00  0.00     0.005 A 
HETATM    4  C2  UNK     1      18.334   0.520  35.064  1.00  0.00     0.099 A 
HETATM    5  C3  UNK     1      18.353   1.240  33.868  1.00  0.00     0.006 A 
HETATM    6  C4  UNK     1      18.560  -1.527  36.416  1.00  0.00    -0.043 A 
HETATM    7  C5  UNK     1      18.647   0.578  32.682  1.00  0.00     0.077 A 
HETATM    8  C6  UNK     1      18.895  -1.498  33.907  1.00  0.00     0.017 A 
HETATM    9  C7  UNK     1      18.917  -0.790  32.700  1.00  0.00     0.038 A 
HETATM   10  C8  UNK     1      18.060   2.705  33.857  1.00  0.00     0.054 C 
HETATM   11  C9  UNK     1      18.267  -0.812  37.511  1.00  0.00     0.090 A 
HETATM   12  C10 UNK     1      18.843  -2.998  36.502  1.00  0.00     0.049 C 
HETATM   13  C11 UNK     1      17.984   0.632  37.475  1.00  0.00     0.288 A 
ENDROOT
BRANCH   7  14
HETATM   14  O2  UNK     1      18.672   1.246  31.494  1.00  0.00    -0.347 OA
BRANCH  14  15
HETATM   15  C12 UNK     1      19.520   0.722  30.474  1.00  0.00     0.202 C 
BRANCH  15  16
HETATM   16  C13 UNK     1      18.868   0.939  29.149  1.00  0.00    -0.011 C 
HETATM   17  C14 UNK     1      18.078   1.981  28.867  1.00  0.00     0.009 C 
ENDBRANCH  15  16
ENDBRANCH  14  15
ENDBRANCH   7  14
TORSDOF 3
ENDMDL
