MODEL 1
REMARK VINA RESULT:     -10.9      0.000      0.000
REMARK  6 active torsions:
REMARK  status: ('A' for Active; 'I' for Inactive)
REMARK    1  A    between atoms: C1_10  and  O1_3 
REMARK    2  A    between atoms: C3_12  and  O1_3 
REMARK       I    between atoms: C5_14  and  N1_8 
REMARK    3  A    between atoms: N1_8  and  N2_9 
REMARK       I    between atoms: C19_28  and  N2_9 
REMARK    4  A    between atoms: C1_10  and  C2_11 
REMARK    5  A    between atoms: C1_10  and  C5_14 
REMARK    6  A    between atoms: C14_23  and  C19_28 
ROOT
HETATM    1  O3  UNK     1      18.062   5.037  33.815  1.00  0.00    -0.269 OA
HETATM    2  N1  UNK     1      17.369   6.396  32.067  1.00  0.00    -0.265 N 
HETATM    3  C5  UNK     1      18.011   5.302  32.616  1.00  0.00     0.265 C 
HETATM    4  H10 UNK     1      17.377   6.619  31.077  1.00  0.00     0.190 HD
ENDROOT
BRANCH   2   5
HETATM    5  N2  UNK     1      16.725   7.277  32.900  1.00  0.00    -0.263 N 
HETATM    6  C19 UNK     1      16.110   8.379  32.350  1.00  0.00     0.276 C 
HETATM    7  O4  UNK     1      16.067   8.681  31.162  1.00  0.00    -0.266 OA
HETATM    8  H15 UNK     1      16.773   7.080  33.894  1.00  0.00     0.190 HD
BRANCH   6   9
HETATM    9  C14 UNK     1      15.466   9.230  33.368  1.00  0.00     0.110 A 
HETATM   10  C16 UNK     1      14.442   9.983  32.947  1.00  0.00     0.037 A 
HETATM   11  C13 UNK     1      13.743  10.855  33.878  1.00  0.00     0.000 A 
HETATM   12  C15 UNK     1      14.156  10.891  35.206  1.00  0.00     0.089 A 
HETATM   13  C20 UNK     1      12.671  11.658  33.484  1.00  0.00     0.033 A 
HETATM   14  O2  UNK     1      15.233  10.095  35.643  1.00  0.00    -0.274 OA
HETATM   15  C22 UNK     1      13.530  11.705  36.148  1.00  0.00     0.039 A 
HETATM   16  C21 UNK     1      15.922   9.251  34.775  1.00  0.00     0.304 A 
HETATM   17  O5  UNK     1      16.860   8.562  35.164  1.00  0.00    -0.259 OA
HETATM   18  C24 UNK     1      12.461  12.503  35.747  1.00  0.00     0.022 A 
HETATM   19  C23 UNK     1      12.032  12.480  34.417  1.00  0.00     0.011 A 
HETATM   20 Br2  UNK     1      10.579  13.565  33.879  1.00  0.00    -0.051 Br
ENDBRANCH   6   9
ENDBRANCH   2   5
BRANCH   3  21
HETATM   21  C1  UNK     1      18.656   4.416  31.556  1.00  0.00     0.222 C 
BRANCH  21  22
HETATM   22  O1  UNK     1      17.829   3.290  31.313  1.00  0.00    -0.335 OA
BRANCH  22  23
HETATM   23  C3  UNK     1      18.447   2.147  30.874  1.00  0.00     0.088 A 
HETATM   24  C9  UNK     1      18.764   2.067  29.524  1.00  0.00     0.039 A 
HETATM   25  C10 UNK     1      19.394   0.924  29.027  1.00  0.00     0.015 A 
HETATM   26  C6  UNK     1      19.710  -0.146  29.879  1.00  0.00    -0.024 A 
HETATM   27  C12 UNK     1      20.344  -1.304  29.397  1.00  0.00     0.012 A 
HETATM   28  C4  UNK     1      19.384  -0.058  31.253  1.00  0.00    -0.006 A 
HETATM   29  C18 UNK     1      20.651  -2.357  30.258  1.00  0.00     0.001 A 
HETATM   30  C17 UNK     1      20.330  -2.270  31.609  1.00  0.00     0.001 A 
HETATM   31  C11 UNK     1      19.700  -1.129  32.105  1.00  0.00     0.014 A 
HETATM   32  C7  UNK     1      18.750   1.099  31.736  1.00  0.00     0.055 A 
HETATM   33 Br1  UNK     1      18.266   1.320  33.578  1.00  0.00    -0.047 Br
ENDBRANCH  22  23
ENDBRANCH  21  22
BRANCH  21  34
HETATM   34  C2  UNK     1      18.899   5.158  30.239  1.00  0.00     0.038 C 
HETATM   35  C8  UNK     1      20.261   5.836  30.160  1.00  0.00     0.008 C 
ENDBRANCH  21  34
ENDBRANCH   3  21
TORSDOF 6
ENDMDL
MODEL 2
REMARK VINA RESULT:     -10.7      6.168      9.625
REMARK  6 active torsions:
REMARK  status: ('A' for Active; 'I' for Inactive)
REMARK    1  A    between atoms: C1_10  and  O1_3 
REMARK    2  A    between atoms: C3_12  and  O1_3 
REMARK       I    between atoms: C5_14  and  N1_8 
REMARK    3  A    between atoms: N1_8  and  N2_9 
REMARK       I    between atoms: C19_28  and  N2_9 
REMARK    4  A    between atoms: C1_10  and  C2_11 
REMARK    5  A    between atoms: C1_10  and  C5_14 
REMARK    6  A    between atoms: C14_23  and  C19_28 
ROOT
HETATM    1  O3  UNK     1      21.142  -2.056  34.820  1.00  0.00    -0.269 OA
HETATM    2  N1  UNK     1      18.867  -1.603  34.825  1.00  0.00    -0.265 N 
HETATM    3  C5  UNK     1      19.997  -2.311  35.187  1.00  0.00     0.265 C 
HETATM    4  H10 UNK     1      17.926  -1.858  35.103  1.00  0.00     0.190 HD
ENDROOT
BRANCH   2   5
HETATM    5  N2  UNK     1      18.999  -0.521  33.990  1.00  0.00    -0.263 N 
HETATM    6  C19 UNK     1      17.962   0.381  33.906  1.00  0.00     0.276 C 
HETATM    7  O4  UNK     1      16.895   0.332  34.508  1.00  0.00    -0.266 OA
HETATM    8  H15 UNK     1      19.854  -0.468  33.446  1.00  0.00     0.190 HD
BRANCH   6   9
HETATM    9  C14 UNK     1      18.250   1.484  32.971  1.00  0.00     0.110 A 
HETATM   10  C16 UNK     1      18.014   2.721  33.424  1.00  0.00     0.037 A 
HETATM   11  C13 UNK     1      18.268   3.874  32.574  1.00  0.00     0.000 A 
HETATM   12  C15 UNK     1      18.758   3.668  31.289  1.00  0.00     0.089 A 
HETATM   13  C20 UNK     1      18.036   5.182  33.005  1.00  0.00     0.033 A 
HETATM   14  O2  UNK     1      19.005   2.363  30.818  1.00  0.00    -0.274 OA
HETATM   15  C22 UNK     1      19.021   4.728  30.424  1.00  0.00     0.039 A 
HETATM   16  C21 UNK     1      18.772   1.240  31.608  1.00  0.00     0.304 A 
HETATM   17  O5  UNK     1      18.989   0.108  31.189  1.00  0.00    -0.259 OA
HETATM   18  C24 UNK     1      18.787   6.030  30.862  1.00  0.00     0.022 A 
HETATM   19  C23 UNK     1      18.296   6.256  32.150  1.00  0.00     0.011 A 
HETATM   20 Br2  UNK     1      17.982   8.026  32.738  1.00  0.00    -0.051 Br
ENDBRANCH   6   9
ENDBRANCH   2   5
BRANCH   3  21
HETATM   21  C1  UNK     1      19.680  -3.466  36.130  1.00  0.00     0.222 C 
BRANCH  21  22
HETATM   22  O1  UNK     1      20.610  -4.516  35.923  1.00  0.00    -0.335 OA
BRANCH  22  23
HETATM   23  C3  UNK     1      20.208  -5.781  36.268  1.00  0.00     0.088 A 
HETATM   24  C9  UNK     1      19.229  -6.379  35.487  1.00  0.00     0.039 A 
HETATM   25  C10 UNK     1      18.785  -7.666  35.797  1.00  0.00     0.015 A 
HETATM   26  C6  UNK     1      19.319  -8.362  36.893  1.00  0.00    -0.024 A 
HETATM   27  C12 UNK     1      18.884  -9.658  37.220  1.00  0.00     0.012 A 
HETATM   28  C4  UNK     1      20.316  -7.747  37.685  1.00  0.00    -0.006 A 
HETATM   29  C18 UNK     1      19.427 -10.335  38.312  1.00  0.00     0.001 A 
HETATM   30  C17 UNK     1      20.408  -9.730  39.092  1.00  0.00     0.001 A 
HETATM   31  C11 UNK     1      20.850  -8.444  38.782  1.00  0.00     0.014 A 
HETATM   32  C7  UNK     1      20.751  -6.452  37.359  1.00  0.00     0.055 A 
HETATM   33 Br1  UNK     1      22.096  -5.529  38.367  1.00  0.00    -0.047 Br
ENDBRANCH  22  23
ENDBRANCH  21  22
BRANCH  21  34
HETATM   34  C2  UNK     1      19.711  -3.047  37.602  1.00  0.00     0.038 C 
HETATM   35  C8  UNK     1      18.679  -1.984  37.959  1.00  0.00     0.008 C 
ENDBRANCH  21  34
ENDBRANCH   3  21
TORSDOF 6
ENDMDL
MODEL 3
REMARK VINA RESULT:     -10.1      6.301     13.237
REMARK  6 active torsions:
REMARK  status: ('A' for Active; 'I' for Inactive)
REMARK    1  A    between atoms: C1_10  and  O1_3 
REMARK    2  A    between atoms: C3_12  and  O1_3 
REMARK       I    between atoms: C5_14  and  N1_8 
REMARK    3  A    between atoms: N1_8  and  N2_9 
REMARK       I    between atoms: C19_28  and  N2_9 
REMARK    4  A    between atoms: C1_10  and  C2_11 
REMARK    5  A    between atoms: C1_10  and  C5_14 
REMARK    6  A    between atoms: C14_23  and  C19_28 
ROOT
HETATM    1  O3  UNK     1      19.395  -0.144  36.403  1.00  0.00    -0.269 OA
HETATM    2  N1  UNK     1      17.963  -1.702  35.453  1.00  0.00    -0.265 N 
HETATM    3  C5  UNK     1      18.434  -0.425  35.689  1.00  0.00     0.265 C 
HETATM    4  H10 UNK     1      17.140  -1.908  34.896  1.00  0.00     0.190 HD
ENDROOT
BRANCH   2   5
HETATM    5  N2  UNK     1      18.596  -2.766  36.046  1.00  0.00    -0.263 N 
HETATM    6  C19 UNK     1      19.673  -3.337  35.407  1.00  0.00     0.276 C 
HETATM    7  O4  UNK     1      20.153  -2.998  34.330  1.00  0.00    -0.266 OA
HETATM    8  H15 UNK     1      18.202  -3.099  36.921  1.00  0.00     0.190 HD
BRANCH   6   9
HETATM    9  C14 UNK     1      20.244  -4.465  36.165  1.00  0.00     0.110 A 
HETATM   10  C16 UNK     1      20.295  -5.641  35.526  1.00  0.00     0.037 A 
HETATM   11  C13 UNK     1      20.842  -6.813  36.192  1.00  0.00     0.000 A 
HETATM   12  C15 UNK     1      21.307  -6.690  37.497  1.00  0.00     0.089 A 
HETATM   13  C20 UNK     1      20.913  -8.059  35.565  1.00  0.00     0.033 A 
HETATM   14  O2  UNK     1      21.252  -5.450  38.163  1.00  0.00    -0.274 OA
HETATM   15  C22 UNK     1      21.841  -7.774  38.191  1.00  0.00     0.039 A 
HETATM   16  C21 UNK     1      20.734  -4.311  37.552  1.00  0.00     0.304 A 
HETATM   17  O5  UNK     1      20.689  -3.235  38.140  1.00  0.00    -0.259 OA
HETATM   18  C24 UNK     1      21.910  -9.013  37.559  1.00  0.00     0.022 A 
HETATM   19  C23 UNK     1      21.447  -9.156  36.248  1.00  0.00     0.011 A 
HETATM   20 Br2  UNK     1      21.545 -10.841  35.395  1.00  0.00    -0.051 Br
ENDBRANCH   6   9
ENDBRANCH   2   5
BRANCH   3  21
HETATM   21  C1  UNK     1      17.634   0.636  34.941  1.00  0.00     0.222 C 
BRANCH  21  22
HETATM   22  O1  UNK     1      18.200   0.839  33.658  1.00  0.00    -0.335 OA
BRANCH  22  23
HETATM   23  C3  UNK     1      18.300   2.135  33.220  1.00  0.00     0.088 A 
HETATM   24  C9  UNK     1      18.105   3.145  34.153  1.00  0.00     0.039 A 
HETATM   25  C10 UNK     1      18.196   4.481  33.758  1.00  0.00     0.015 A 
HETATM   26  C6  UNK     1      18.484   4.815  32.425  1.00  0.00    -0.024 A 
HETATM   27  C12 UNK     1      18.581   6.153  32.009  1.00  0.00     0.012 A 
HETATM   28  C4  UNK     1      18.683   3.781  31.480  1.00  0.00    -0.006 A 
HETATM   29  C18 UNK     1      18.869   6.466  30.681  1.00  0.00     0.001 A 
HETATM   30  C17 UNK     1      19.063   5.450  29.750  1.00  0.00     0.001 A 
HETATM   31  C11 UNK     1      18.971   4.115  30.146  1.00  0.00     0.014 A 
HETATM   32  C7  UNK     1      18.586   2.442  31.895  1.00  0.00     0.055 A 
HETATM   33 Br1  UNK     1      18.837   0.968  30.694  1.00  0.00    -0.047 Br
ENDBRANCH  22  23
ENDBRANCH  21  22
BRANCH  21  34
HETATM   34  C2  UNK     1      16.158   0.258  34.788  1.00  0.00     0.038 C 
HETATM   35  C8  UNK     1      15.326   0.515  36.039  1.00  0.00     0.008 C 
ENDBRANCH  21  34
ENDBRANCH   3  21
TORSDOF 6
ENDMDL
MODEL 4
REMARK VINA RESULT:     -10.0      2.462     11.142
REMARK  6 active torsions:
REMARK  status: ('A' for Active; 'I' for Inactive)
REMARK    1  A    between atoms: C1_10  and  O1_3 
REMARK    2  A    between atoms: C3_12  and  O1_3 
REMARK       I    between atoms: C5_14  and  N1_8 
REMARK    3  A    between atoms: N1_8  and  N2_9 
REMARK       I    between atoms: C19_28  and  N2_9 
REMARK    4  A    between atoms: C1_10  and  C2_11 
REMARK    5  A    between atoms: C1_10  and  C5_14 
REMARK    6  A    between atoms: C14_23  and  C19_28 
ROOT
HETATM    1  O3  UNK     1      20.384   6.239  33.050  1.00  0.00    -0.269 OA
HETATM    2  N1  UNK     1      18.416   6.271  31.822  1.00  0.00    -0.265 N 
HETATM    3  C5  UNK     1      19.311   6.762  32.753  1.00  0.00     0.265 C 
HETATM    4  H10 UNK     1      17.515   6.695  31.625  1.00  0.00     0.190 HD
ENDROOT
BRANCH   2   5
HETATM    5  N2  UNK     1      18.717   5.109  31.156  1.00  0.00    -0.263 N 
HETATM    6  C19 UNK     1      18.242   3.917  31.655  1.00  0.00     0.276 C 
HETATM    7  O4  UNK     1      17.557   3.762  32.661  1.00  0.00    -0.266 OA
HETATM    8  H15 UNK     1      19.314   5.195  30.340  1.00  0.00     0.190 HD
BRANCH   6   9
HETATM    9  C14 UNK     1      18.649   2.762  30.834  1.00  0.00     0.110 A 
HETATM   10  C16 UNK     1      19.086   1.687  31.501  1.00  0.00     0.037 A 
HETATM   11  C13 UNK     1      19.509   0.497  30.778  1.00  0.00     0.000 A 
HETATM   12  C15 UNK     1      19.452   0.499  29.388  1.00  0.00     0.089 A 
HETATM   13  C20 UNK     1      19.972  -0.646  31.433  1.00  0.00     0.033 A 
HETATM   14  O2  UNK     1      18.990   1.633  28.692  1.00  0.00    -0.274 OA
HETATM   15  C22 UNK     1      19.844  -0.606  28.636  1.00  0.00     0.039 A 
HETATM   16  C21 UNK     1      18.578   2.786  29.357  1.00  0.00     0.304 A 
HETATM   17  O5  UNK     1      18.179   3.770  28.742  1.00  0.00    -0.259 OA
HETATM   18  C24 UNK     1      20.304  -1.744  29.297  1.00  0.00     0.022 A 
HETATM   19  C23 UNK     1      20.368  -1.763  30.692  1.00  0.00     0.011 A 
HETATM   20 Br2  UNK     1      20.993  -3.311  31.582  1.00  0.00    -0.051 Br
ENDBRANCH   6   9
ENDBRANCH   2   5
BRANCH   3  21
HETATM   21  C1  UNK     1      18.835   8.065  33.384  1.00  0.00     0.222 C 
BRANCH  21  22
HETATM   22  O1  UNK     1      17.451   7.974  33.674  1.00  0.00    -0.335 OA
BRANCH  22  23
HETATM   23  C3  UNK     1      16.741   9.147  33.696  1.00  0.00     0.088 A 
HETATM   24  C9  UNK     1      17.413  10.298  34.085  1.00  0.00     0.039 A 
HETATM   25  C10 UNK     1      16.735  11.517  34.123  1.00  0.00     0.015 A 
HETATM   26  C6  UNK     1      15.378  11.593  33.774  1.00  0.00    -0.024 A 
HETATM   27  C12 UNK     1      14.679  12.811  33.807  1.00  0.00     0.012 A 
HETATM   28  C4  UNK     1      14.698  10.416  33.379  1.00  0.00    -0.006 A 
HETATM   29  C18 UNK     1      13.330  12.868  33.455  1.00  0.00     0.001 A 
HETATM   30  C17 UNK     1      12.661  11.710  33.067  1.00  0.00     0.001 A 
HETATM   31  C11 UNK     1      13.339  10.492  33.029  1.00  0.00     0.014 A 
HETATM   32  C7  UNK     1      15.396   9.198  33.346  1.00  0.00     0.055 A 
HETATM   33 Br1  UNK     1      14.569   7.548  32.826  1.00  0.00    -0.047 Br
ENDBRANCH  22  23
ENDBRANCH  21  22
BRANCH  21  34
HETATM   34  C2  UNK     1      19.598   8.409  34.667  1.00  0.00     0.038 C 
HETATM   35  C8  UNK     1      20.672   9.473  34.475  1.00  0.00     0.008 C 
ENDBRANCH  21  34
ENDBRANCH   3  21
TORSDOF 6
ENDMDL
MODEL 5
REMARK VINA RESULT:      -9.7      7.625     14.943
REMARK  6 active torsions:
REMARK  status: ('A' for Active; 'I' for Inactive)
REMARK    1  A    between atoms: C1_10  and  O1_3 
REMARK    2  A    between atoms: C3_12  and  O1_3 
REMARK       I    between atoms: C5_14  and  N1_8 
REMARK    3  A    between atoms: N1_8  and  N2_9 
REMARK       I    between atoms: C19_28  and  N2_9 
REMARK    4  A    between atoms: C1_10  and  C2_11 
REMARK    5  A    between atoms: C1_10  and  C5_14 
REMARK    6  A    between atoms: C14_23  and  C19_28 
ROOT
HETATM    1  O3  UNK     1      20.706  -2.938  34.864  1.00  0.00    -0.269 OA
HETATM    2  N1  UNK     1      19.114  -3.802  36.313  1.00  0.00    -0.265 N 
HETATM    3  C5  UNK     1      19.776  -2.785  35.654  1.00  0.00     0.265 C 
HETATM    4  H10 UNK     1      18.378  -3.650  36.995  1.00  0.00     0.190 HD
ENDROOT
BRANCH   2   5
HETATM    5  N2  UNK     1      19.500  -5.101  36.092  1.00  0.00    -0.263 N 
HETATM    6  C19 UNK     1      20.079  -5.805  37.123  1.00  0.00     0.276 C 
HETATM    7  O4  UNK     1      20.302  -5.397  38.258  1.00  0.00    -0.266 OA
HETATM    8  H15 UNK     1      19.366  -5.461  35.153  1.00  0.00     0.190 HD
BRANCH   6   9
HETATM    9  C14 UNK     1      20.439  -7.180  36.733  1.00  0.00     0.110 A 
HETATM   10  C16 UNK     1      21.729  -7.515  36.866  1.00  0.00     0.037 A 
HETATM   11  C13 UNK     1      22.180  -8.850  36.506  1.00  0.00     0.000 A 
HETATM   12  C15 UNK     1      21.252  -9.768  36.024  1.00  0.00     0.089 A 
HETATM   13  C20 UNK     1      23.515  -9.243  36.628  1.00  0.00     0.033 A 
HETATM   14  O2  UNK     1      19.896  -9.410  35.887  1.00  0.00    -0.274 OA
HETATM   15  C22 UNK     1      21.619 -11.062  35.661  1.00  0.00     0.039 A 
HETATM   16  C21 UNK     1      19.434  -8.139  36.223  1.00  0.00     0.304 A 
HETATM   17  O5  UNK     1      18.252  -7.836  36.099  1.00  0.00    -0.259 OA
HETATM   18  C24 UNK     1      22.952 -11.446  35.786  1.00  0.00     0.022 A 
HETATM   19  C23 UNK     1      23.899 -10.538  36.268  1.00  0.00     0.011 A 
HETATM   20 Br2  UNK     1      25.707 -11.066  36.436  1.00  0.00    -0.051 Br
ENDBRANCH   6   9
ENDBRANCH   2   5
BRANCH   3  21
HETATM   21  C1  UNK     1      19.213  -1.409  35.995  1.00  0.00     0.222 C 
BRANCH  21  22
HETATM   22  O1  UNK     1      18.098  -1.135  35.164  1.00  0.00    -0.335 OA
BRANCH  22  23
HETATM   23  C3  UNK     1      18.343  -0.453  33.999  1.00  0.00     0.088 A 
HETATM   24  C9  UNK     1      18.809  -1.182  32.914  1.00  0.00     0.039 A 
HETATM   25  C10 UNK     1      19.074  -0.535  31.706  1.00  0.00     0.015 A 
HETATM   26  C6  UNK     1      18.874   0.848  31.576  1.00  0.00    -0.024 A 
HETATM   27  C12 UNK     1      19.134   1.517  30.368  1.00  0.00     0.012 A 
HETATM   28  C4  UNK     1      18.398   1.586  32.686  1.00  0.00    -0.006 A 
HETATM   29  C18 UNK     1      18.928   2.892  30.257  1.00  0.00     0.001 A 
HETATM   30  C17 UNK     1      18.461   3.618  31.349  1.00  0.00     0.001 A 
HETATM   31  C11 UNK     1      18.198   2.970  32.557  1.00  0.00     0.014 A 
HETATM   32  C7  UNK     1      18.137   0.918  33.894  1.00  0.00     0.055 A 
HETATM   33 Br1  UNK     1      17.491   1.824  35.456  1.00  0.00    -0.047 Br
ENDBRANCH  22  23
ENDBRANCH  21  22
BRANCH  21  34
HETATM   34  C2  UNK     1      18.790  -1.296  37.462  1.00  0.00     0.038 C 
HETATM   35  C8  UNK     1      17.446  -0.604  37.660  1.00  0.00     0.008 C 
ENDBRANCH  21  34
ENDBRANCH   3  21
TORSDOF 6
ENDMDL
MODEL 6
REMARK VINA RESULT:      -9.7      1.641      1.850
REMARK  6 active torsions:
REMARK  status: ('A' for Active; 'I' for Inactive)
REMARK    1  A    between atoms: C1_10  and  O1_3 
REMARK    2  A    between atoms: C3_12  and  O1_3 
REMARK       I    between atoms: C5_14  and  N1_8 
REMARK    3  A    between atoms: N1_8  and  N2_9 
REMARK       I    between atoms: C19_28  and  N2_9 
REMARK    4  A    between atoms: C1_10  and  C2_11 
REMARK    5  A    between atoms: C1_10  and  C5_14 
REMARK    6  A    between atoms: C14_23  and  C19_28 
ROOT
HETATM    1  O3  UNK     1      17.369   5.114  33.508  1.00  0.00    -0.269 OA
HETATM    2  N1  UNK     1      17.414   6.605  31.732  1.00  0.00    -0.265 N 
HETATM    3  C5  UNK     1      17.713   5.415  32.367  1.00  0.00     0.265 C 
HETATM    4  H10 UNK     1      17.746   6.851  30.805  1.00  0.00     0.190 HD
ENDROOT
BRANCH   2   5
HETATM    5  N2  UNK     1      16.675   7.549  32.400  1.00  0.00    -0.263 N 
HETATM    6  C19 UNK     1      17.328   8.446  33.216  1.00  0.00     0.276 C 
HETATM    7  O4  UNK     1      18.535   8.505  33.426  1.00  0.00    -0.266 OA
HETATM    8  H15 UNK     1      15.668   7.507  32.281  1.00  0.00     0.190 HD
BRANCH   6   9
HETATM    9  C14 UNK     1      16.403   9.393  33.864  1.00  0.00     0.110 A 
HETATM   10  C16 UNK     1      16.822  10.662  33.955  1.00  0.00     0.037 A 
HETATM   11  C13 UNK     1      15.979  11.670  34.578  1.00  0.00     0.000 A 
HETATM   12  C15 UNK     1      14.735  11.293  35.076  1.00  0.00     0.089 A 
HETATM   13  C20 UNK     1      16.376  13.004  34.695  1.00  0.00     0.033 A 
HETATM   14  O2  UNK     1      14.299   9.957  34.976  1.00  0.00    -0.274 OA
HETATM   15  C22 UNK     1      13.880  12.209  35.685  1.00  0.00     0.039 A 
HETATM   16  C21 UNK     1      15.084   8.970  34.385  1.00  0.00     0.304 A 
HETATM   17  O5  UNK     1      14.697   7.809  34.304  1.00  0.00    -0.259 OA
HETATM   18  C24 UNK     1      14.283  13.538  35.797  1.00  0.00     0.022 A 
HETATM   19  C23 UNK     1      15.528  13.934  35.303  1.00  0.00     0.011 A 
HETATM   20 Br2  UNK     1      16.069  15.740  35.457  1.00  0.00    -0.051 Br
ENDBRANCH   6   9
ENDBRANCH   2   5
BRANCH   3  21
HETATM   21  C1  UNK     1      18.519   4.471  31.482  1.00  0.00     0.222 C 
BRANCH  21  22
HETATM   22  O1  UNK     1      17.708   3.375  31.095  1.00  0.00    -0.335 OA
BRANCH  22  23
HETATM   23  C3  UNK     1      18.355   2.232  30.699  1.00  0.00     0.088 A 
HETATM   24  C9  UNK     1      18.644   2.093  29.348  1.00  0.00     0.039 A 
HETATM   25  C10 UNK     1      19.301   0.948  28.894  1.00  0.00     0.015 A 
HETATM   26  C6  UNK     1      19.672  -0.067  29.790  1.00  0.00    -0.024 A 
HETATM   27  C12 UNK     1      20.334  -1.226  29.351  1.00  0.00     0.012 A 
HETATM   28  C4  UNK     1      19.374   0.081  31.165  1.00  0.00    -0.006 A 
HETATM   29  C18 UNK     1      20.696  -2.224  30.256  1.00  0.00     0.001 A 
HETATM   30  C17 UNK     1      20.402  -2.079  31.609  1.00  0.00     0.001 A 
HETATM   31  C11 UNK     1      19.745  -0.935  32.062  1.00  0.00     0.014 A 
HETATM   32  C7  UNK     1      18.712   1.239  31.605  1.00  0.00     0.055 A 
HETATM   33 Br1  UNK     1      18.262   1.536  33.445  1.00  0.00    -0.047 Br
ENDBRANCH  22  23
ENDBRANCH  21  22
BRANCH  21  34
HETATM   34  C2  UNK     1      19.063   5.163  30.229  1.00  0.00     0.038 C 
HETATM   35  C8  UNK     1      20.450   5.767  30.416  1.00  0.00     0.008 C 
ENDBRANCH  21  34
ENDBRANCH   3  21
TORSDOF 6
ENDMDL
MODEL 7
REMARK VINA RESULT:      -9.6      8.725     13.576
REMARK  6 active torsions:
REMARK  status: ('A' for Active; 'I' for Inactive)
REMARK    1  A    between atoms: C1_10  and  O1_3 
REMARK    2  A    between atoms: C3_12  and  O1_3 
REMARK       I    between atoms: C5_14  and  N1_8 
REMARK    3  A    between atoms: N1_8  and  N2_9 
REMARK       I    between atoms: C19_28  and  N2_9 
REMARK    4  A    between atoms: C1_10  and  C2_11 
REMARK    5  A    between atoms: C1_10  and  C5_14 
REMARK    6  A    between atoms: C14_23  and  C19_28 
ROOT
HETATM    1  O3  UNK     1      20.818  -7.243  34.500  1.00  0.00    -0.269 OA
HETATM    2  N1  UNK     1      19.656  -6.339  36.293  1.00  0.00    -0.265 N 
HETATM    3  C5  UNK     1      20.374  -7.325  35.643  1.00  0.00     0.265 C 
HETATM    4  H10 UNK     1      19.260  -6.446  37.221  1.00  0.00     0.190 HD
ENDROOT
BRANCH   2   5
HETATM    5  N2  UNK     1      19.402  -5.160  35.638  1.00  0.00    -0.263 N 
HETATM    6  C19 UNK     1      20.152  -4.050  35.957  1.00  0.00     0.276 C 
HETATM    7  O4  UNK     1      21.053  -3.985  36.787  1.00  0.00    -0.266 OA
HETATM    8  H15 UNK     1      18.637  -5.166  34.971  1.00  0.00     0.190 HD
BRANCH   6   9
HETATM    9  C14 UNK     1      19.762  -2.864  35.174  1.00  0.00     0.110 A 
HETATM   10  C16 UNK     1      20.168  -2.837  33.898  1.00  0.00     0.037 A 
HETATM   11  C13 UNK     1      19.831  -1.707  33.046  1.00  0.00     0.000 A 
HETATM   12  C15 UNK     1      19.084  -0.661  33.578  1.00  0.00     0.089 A 
HETATM   13  C20 UNK     1      20.234  -1.637  31.710  1.00  0.00     0.033 A 
HETATM   14  O2  UNK     1      18.659  -0.696  34.921  1.00  0.00    -0.274 OA
HETATM   15  C22 UNK     1      18.730   0.450  32.816  1.00  0.00     0.039 A 
HETATM   16  C21 UNK     1      18.966  -1.763  35.761  1.00  0.00     0.304 A 
HETATM   17  O5  UNK     1      18.593  -1.784  36.930  1.00  0.00    -0.259 OA
HETATM   18  C24 UNK     1      19.135   0.513  31.484  1.00  0.00     0.022 A 
HETATM   19  C23 UNK     1      19.885  -0.529  30.933  1.00  0.00     0.011 A 
HETATM   20 Br2  UNK     1      20.431  -0.438  29.124  1.00  0.00    -0.051 Br
ENDBRANCH   6   9
ENDBRANCH   2   5
BRANCH   3  21
HETATM   21  C1  UNK     1      20.584  -8.559  36.514  1.00  0.00     0.222 C 
BRANCH  21  22
HETATM   22  O1  UNK     1      21.461  -8.241  37.581  1.00  0.00    -0.335 OA
BRANCH  22  23
HETATM   23  C3  UNK     1      22.767  -8.642  37.454  1.00  0.00     0.088 A 
HETATM   24  C9  UNK     1      23.035  -9.688  36.583  1.00  0.00     0.039 A 
HETATM   25  C10 UNK     1      24.348 -10.134  36.418  1.00  0.00     0.015 A 
HETATM   26  C6  UNK     1      25.401  -9.534  37.126  1.00  0.00    -0.024 A 
HETATM   27  C12 UNK     1      26.729  -9.969  36.973  1.00  0.00     0.012 A 
HETATM   28  C4  UNK     1      25.121  -8.468  38.013  1.00  0.00    -0.006 A 
HETATM   29  C18 UNK     1      27.763  -9.360  37.684  1.00  0.00     0.001 A 
HETATM   30  C17 UNK     1      27.487  -8.312  38.556  1.00  0.00     0.001 A 
HETATM   31  C11 UNK     1      26.175  -7.867  38.721  1.00  0.00     0.014 A 
HETATM   32  C7  UNK     1      23.794  -8.033  38.166  1.00  0.00     0.055 A 
HETATM   33 Br1  UNK     1      23.308  -6.597  39.341  1.00  0.00    -0.047 Br
ENDBRANCH  22  23
ENDBRANCH  21  22
BRANCH  21  34
HETATM   34  C2  UNK     1      19.273  -9.106  37.085  1.00  0.00     0.038 C 
HETATM   35  C8  UNK     1      19.445 -10.380  37.902  1.00  0.00     0.008 C 
ENDBRANCH  21  34
ENDBRANCH   3  21
TORSDOF 6
ENDMDL
MODEL 8
REMARK VINA RESULT:      -9.6     16.272     19.494
REMARK  6 active torsions:
REMARK  status: ('A' for Active; 'I' for Inactive)
REMARK    1  A    between atoms: C1_10  and  O1_3 
REMARK    2  A    between atoms: C3_12  and  O1_3 
REMARK       I    between atoms: C5_14  and  N1_8 
REMARK    3  A    between atoms: N1_8  and  N2_9 
REMARK       I    between atoms: C19_28  and  N2_9 
REMARK    4  A    between atoms: C1_10  and  C2_11 
REMARK    5  A    between atoms: C1_10  and  C5_14 
REMARK    6  A    between atoms: C14_23  and  C19_28 
ROOT
HETATM    1  O3  UNK     1      26.943  -7.625  36.644  1.00  0.00    -0.269 OA
HETATM    2  N1  UNK     1      27.807  -6.742  38.607  1.00  0.00    -0.265 N 
HETATM    3  C5  UNK     1      26.908  -7.484  37.865  1.00  0.00     0.265 C 
HETATM    4  H10 UNK     1      27.734  -6.603  39.610  1.00  0.00     0.190 HD
ENDROOT
BRANCH   2   5
HETATM    5  N2  UNK     1      28.833  -6.098  37.962  1.00  0.00    -0.263 N 
HETATM    6  C19 UNK     1      30.072  -6.695  37.926  1.00  0.00     0.276 C 
HETATM    7  O4  UNK     1      30.383  -7.774  38.421  1.00  0.00    -0.266 OA
HETATM    8  H15 UNK     1      28.622  -5.184  37.573  1.00  0.00     0.190 HD
BRANCH   6   9
HETATM    9  C14 UNK     1      31.067  -5.884  37.201  1.00  0.00     0.110 A 
HETATM   10  C16 UNK     1      31.887  -6.549  36.378  1.00  0.00     0.037 A 
HETATM   11  C13 UNK     1      32.902  -5.835  35.619  1.00  0.00     0.000 A 
HETATM   12  C15 UNK     1      33.004  -4.455  35.765  1.00  0.00     0.089 A 
HETATM   13  C20 UNK     1      33.779  -6.488  34.750  1.00  0.00     0.033 A 
HETATM   14  O2  UNK     1      32.137  -3.760  36.631  1.00  0.00    -0.274 OA
HETATM   15  C22 UNK     1      33.954  -3.712  35.068  1.00  0.00     0.039 A 
HETATM   16  C21 UNK     1      31.157  -4.417  37.371  1.00  0.00     0.304 A 
HETATM   17  O5  UNK     1      30.407  -3.804  38.124  1.00  0.00    -0.259 OA
HETATM   18  C24 UNK     1      34.825  -4.370  34.202  1.00  0.00     0.022 A 
HETATM   19  C23 UNK     1      34.737  -5.756  34.044  1.00  0.00     0.011 A 
HETATM   20 Br2  UNK     1      35.922  -6.643  32.866  1.00  0.00    -0.051 Br
ENDBRANCH   6   9
ENDBRANCH   2   5
BRANCH   3  21
HETATM   21  C1  UNK     1      25.847  -8.149  38.734  1.00  0.00     0.222 C 
BRANCH  21  22
HETATM   22  O1  UNK     1      24.852  -8.728  37.906  1.00  0.00    -0.335 OA
BRANCH  22  23
HETATM   23  C3  UNK     1      23.568  -8.272  38.065  1.00  0.00     0.088 A 
HETATM   24  C9  UNK     1      23.354  -7.268  39.000  1.00  0.00     0.039 A 
HETATM   25  C10 UNK     1      22.066  -6.770  39.199  1.00  0.00     0.015 A 
HETATM   26  C6  UNK     1      20.981  -7.274  38.463  1.00  0.00    -0.024 A 
HETATM   27  C12 UNK     1      19.678  -6.785  38.650  1.00  0.00     0.012 A 
HETATM   28  C4  UNK     1      21.206  -8.297  37.512  1.00  0.00    -0.006 A 
HETATM   29  C18 UNK     1      18.613  -7.297  37.910  1.00  0.00     0.001 A 
HETATM   30  C17 UNK     1      18.833  -8.304  36.974  1.00  0.00     0.001 A 
HETATM   31  C11 UNK     1      20.121  -8.802  36.776  1.00  0.00     0.014 A 
HETATM   32  C7  UNK     1      22.509  -8.787  37.325  1.00  0.00     0.055 A 
HETATM   33 Br1  UNK     1      22.921 -10.171  36.063  1.00  0.00    -0.047 Br
ENDBRANCH  22  23
ENDBRANCH  21  22
BRANCH  21  34
HETATM   34  C2  UNK     1      26.430  -9.227  39.651  1.00  0.00     0.038 C 
HETATM   35  C8  UNK     1      27.208 -10.308  38.909  1.00  0.00     0.008 C 
ENDBRANCH  21  34
ENDBRANCH   3  21
TORSDOF 6
ENDMDL
MODEL 9
REMARK VINA RESULT:      -9.6      8.867     13.355
REMARK  6 active torsions:
REMARK  status: ('A' for Active; 'I' for Inactive)
REMARK    1  A    between atoms: C1_10  and  O1_3 
REMARK    2  A    between atoms: C3_12  and  O1_3 
REMARK       I    between atoms: C5_14  and  N1_8 
REMARK    3  A    between atoms: N1_8  and  N2_9 
REMARK       I    between atoms: C19_28  and  N2_9 
REMARK    4  A    between atoms: C1_10  and  C2_11 
REMARK    5  A    between atoms: C1_10  and  C5_14 
REMARK    6  A    between atoms: C14_23  and  C19_28 
ROOT
HETATM    1  O3  UNK     1      20.698  -7.279  34.500  1.00  0.00    -0.269 OA
HETATM    2  N1  UNK     1      19.747  -6.631  36.514  1.00  0.00    -0.265 N 
HETATM    3  C5  UNK     1      20.384  -7.515  35.666  1.00  0.00     0.265 C 
HETATM    4  H10 UNK     1      19.457  -6.862  37.459  1.00  0.00     0.190 HD
ENDROOT
BRANCH   2   5
HETATM    5  N2  UNK     1      19.423  -5.379  36.052  1.00  0.00    -0.263 N 
HETATM    6  C19 UNK     1      20.219  -4.315  36.410  1.00  0.00     0.276 C 
HETATM    7  O4  UNK     1      21.218  -4.350  37.120  1.00  0.00    -0.266 OA
HETATM    8  H15 UNK     1      18.580  -5.306  35.492  1.00  0.00     0.190 HD
BRANCH   6   9
HETATM    9  C14 UNK     1      19.744  -3.041  35.839  1.00  0.00     0.110 A 
HETATM   10  C16 UNK     1      18.981  -2.283  36.636  1.00  0.00     0.037 A 
HETATM   11  C13 UNK     1      18.466  -1.008  36.162  1.00  0.00     0.000 A 
HETATM   12  C15 UNK     1      18.778  -0.594  34.871  1.00  0.00     0.089 A 
HETATM   13  C20 UNK     1      17.666  -0.186  36.958  1.00  0.00     0.033 A 
HETATM   14  O2  UNK     1      19.583  -1.396  34.037  1.00  0.00    -0.274 OA
HETATM   15  C22 UNK     1      18.316   0.615  34.355  1.00  0.00     0.039 A 
HETATM   16  C21 UNK     1      20.091  -2.620  34.463  1.00  0.00     0.304 A 
HETATM   17  O5  UNK     1      20.789  -3.313  33.730  1.00  0.00    -0.259 OA
HETATM   18  C24 UNK     1      17.519   1.430  35.156  1.00  0.00     0.022 A 
HETATM   19  C23 UNK     1      17.195   1.030  36.455  1.00  0.00     0.011 A 
HETATM   20 Br2  UNK     1      16.113   2.142  37.538  1.00  0.00    -0.051 Br
ENDBRANCH   6   9
ENDBRANCH   2   5
BRANCH   3  21
HETATM   21  C1  UNK     1      20.689  -8.849  36.339  1.00  0.00     0.222 C 
BRANCH  21  22
HETATM   22  O1  UNK     1      21.494  -8.628  37.484  1.00  0.00    -0.335 OA
BRANCH  22  23
HETATM   23  C3  UNK     1      22.831  -8.915  37.370  1.00  0.00     0.088 A 
HETATM   24  C9  UNK     1      23.197  -9.925  36.491  1.00  0.00     0.039 A 
HETATM   25  C10 UNK     1      24.545 -10.256  36.338  1.00  0.00     0.015 A 
HETATM   26  C6  UNK     1      25.535  -9.578  37.066  1.00  0.00    -0.024 A 
HETATM   27  C12 UNK     1      26.896  -9.898  36.926  1.00  0.00     0.012 A 
HETATM   28  C4  UNK     1      25.155  -8.550  37.961  1.00  0.00    -0.006 A 
HETATM   29  C18 UNK     1      27.867  -9.213  37.657  1.00  0.00     0.001 A 
HETATM   30  C17 UNK     1      27.493  -8.202  38.538  1.00  0.00     0.001 A 
HETATM   31  C11 UNK     1      26.146  -7.872  38.690  1.00  0.00     0.014 A 
HETATM   32  C7  UNK     1      23.794  -8.231  38.102  1.00  0.00     0.055 A 
HETATM   33 Br1  UNK     1      23.174  -6.856  39.287  1.00  0.00    -0.047 Br
ENDBRANCH  22  23
ENDBRANCH  21  22
BRANCH  21  34
HETATM   34  C2  UNK     1      19.421  -9.601  36.752  1.00  0.00     0.038 C 
HETATM   35  C8  UNK     1      19.694 -10.887  37.522  1.00  0.00     0.008 C 
ENDBRANCH  21  34
ENDBRANCH   3  21
TORSDOF 6
ENDMDL
MODEL 10
REMARK VINA RESULT:      -9.6     21.976     23.863
REMARK  6 active torsions:
REMARK  status: ('A' for Active; 'I' for Inactive)
REMARK    1  A    between atoms: C1_10  and  O1_3 
REMARK    2  A    between atoms: C3_12  and  O1_3 
REMARK       I    between atoms: C5_14  and  N1_8 
REMARK    3  A    between atoms: N1_8  and  N2_9 
REMARK       I    between atoms: C19_28  and  N2_9 
REMARK    4  A    between atoms: C1_10  and  C2_11 
REMARK    5  A    between atoms: C1_10  and  C5_14 
REMARK    6  A    between atoms: C14_23  and  C19_28 
ROOT
HETATM    1  O3  UNK     1       9.982   4.635   9.448  1.00  0.00    -0.269 OA
HETATM    2  N1  UNK     1       8.043   5.887   9.686  1.00  0.00    -0.265 N 
HETATM    3  C5  UNK     1       9.275   5.591   9.133  1.00  0.00     0.265 C 
HETATM    4  H10 UNK     1       7.496   6.706   9.442  1.00  0.00     0.190 HD
ENDROOT
BRANCH   2   5
HETATM    5  N2  UNK     1       7.539   5.070  10.667  1.00  0.00    -0.263 N 
HETATM    6  C19 UNK     1       6.197   5.141  10.963  1.00  0.00     0.276 C 
HETATM    7  O4  UNK     1       5.365   5.873  10.438  1.00  0.00    -0.266 OA
HETATM    8  H15 UNK     1       8.206   4.477  11.151  1.00  0.00     0.190 HD
BRANCH   6   9
HETATM    9  C14 UNK     1       5.808   4.207  12.036  1.00  0.00     0.110 A 
HETATM   10  C16 UNK     1       5.643   4.739  13.253  1.00  0.00     0.037 A 
HETATM   11  C13 UNK     1       5.259   3.898  14.375  1.00  0.00     0.000 A 
HETATM   12  C15 UNK     1       5.068   2.536  14.161  1.00  0.00     0.089 A 
HETATM   13  C20 UNK     1       5.078   4.410  15.662  1.00  0.00     0.033 A 
HETATM   14  O2  UNK     1       5.241   1.982  12.878  1.00  0.00    -0.274 OA
HETATM   15  C22 UNK     1       4.700   1.675  15.193  1.00  0.00     0.039 A 
HETATM   16  C21 UNK     1       5.608   2.763  11.784  1.00  0.00     0.304 A 
HETATM   17  O5  UNK     1       5.758   2.271  10.670  1.00  0.00    -0.259 OA
HETATM   18  C24 UNK     1       4.520   2.194  16.474  1.00  0.00     0.022 A 
HETATM   19  C23 UNK     1       4.709   3.559  16.708  1.00  0.00     0.011 A 
HETATM   20 Br2  UNK     1       4.462   4.256  18.448  1.00  0.00    -0.051 Br
ENDBRANCH   6   9
ENDBRANCH   2   5
BRANCH   3  21
HETATM   21  C1  UNK     1       9.677   6.582   8.048  1.00  0.00     0.222 C 
BRANCH  21  22
HETATM   22  O1  UNK     1      11.082   6.535   7.861  1.00  0.00    -0.335 OA
BRANCH  22  23
HETATM   23  C3  UNK     1      11.847   7.299   8.705  1.00  0.00     0.088 A 
HETATM   24  C9  UNK     1      11.359   8.550   9.059  1.00  0.00     0.039 A 
HETATM   25  C10 UNK     1      12.101   9.366   9.915  1.00  0.00     0.015 A 
HETATM   26  C6  UNK     1      13.337   8.935  10.422  1.00  0.00    -0.024 A 
HETATM   27  C12 UNK     1      14.097   9.743  11.285  1.00  0.00     0.012 A 
HETATM   28  C4  UNK     1      13.829   7.660  10.057  1.00  0.00    -0.006 A 
HETATM   29  C18 UNK     1      15.323   9.298  11.779  1.00  0.00     0.001 A 
HETATM   30  C17 UNK     1      15.807   8.044  11.420  1.00  0.00     0.001 A 
HETATM   31  C11 UNK     1      15.066   7.229  10.563  1.00  0.00     0.014 A 
HETATM   32  C7  UNK     1      13.070   6.852   9.194  1.00  0.00     0.055 A 
HETATM   33 Br1  UNK     1      13.645   5.109   8.638  1.00  0.00    -0.047 Br
ENDBRANCH  22  23
ENDBRANCH  21  22
BRANCH  21  34
HETATM   34  C2  UNK     1       8.981   6.305   6.712  1.00  0.00     0.038 C 
HETATM   35  C8  UNK     1       9.943   6.149   5.540  1.00  0.00     0.008 C 
ENDBRANCH  21  34
ENDBRANCH   3  21
TORSDOF 6
ENDMDL
