MODEL 1
REMARK VINA RESULT:      -8.4      0.000      0.000
REMARK  4 active torsions:
REMARK  status: ('A' for Active; 'I' for Inactive)
REMARK    1  A    between atoms: C11_16  and  O2_2 
REMARK    2  A    between atoms: C3_8  and  O2_2 
REMARK    3  A    between atoms: C2_7  and  C6_11 
REMARK    4  A    between atoms: C11_16  and  C15_20 
ROOT
HETATM    1  O1  UNK     1      19.097   0.038  32.740  1.00  0.00    -0.304 OA
HETATM    2  O4  UNK     1      18.410   2.903  29.924  1.00  0.00    -0.284 OA
HETATM    3  C1  UNK     1      19.261   0.762  30.428  1.00  0.00     0.051 A 
HETATM    4  C2  UNK     1      18.473   1.233  33.061  1.00  0.00     0.147 A 
HETATM    5  C3  UNK     1      18.222   2.223  32.184  1.00  0.00     0.157 A 
HETATM    6  C4  UNK     1      19.470  -0.175  31.438  1.00  0.00     0.090 A 
HETATM    7  C5  UNK     1      18.614   2.039  30.766  1.00  0.00     0.221 A 
HETATM    8  C7  UNK     1      19.663   0.490  29.119  1.00  0.00     0.018 A 
HETATM    9  C8  UNK     1      20.084  -1.393  31.142  1.00  0.00     0.038 A 
HETATM   10  C9  UNK     1      20.277  -0.728  28.826  1.00  0.00     0.001 A 
HETATM   11  C10 UNK     1      20.487  -1.668  29.836  1.00  0.00     0.003 A 
ENDROOT
BRANCH   4  12
HETATM   12  C6  UNK     1      18.124   1.334  34.489  1.00  0.00     0.111 A 
HETATM   13  C12 UNK     1      18.859   1.930  35.496  1.00  0.00     0.042 A 
HETATM   14  C13 UNK     1      18.112   1.767  36.688  1.00  0.00     0.027 A 
HETATM   15  C14 UNK     1      16.973   1.083  36.333  1.00  0.00     0.142 A 
HETATM   16  O3  UNK     1      16.971   0.816  35.001  1.00  0.00    -0.320 OA
ENDBRANCH   4  12
BRANCH   5  17
HETATM   17  O2  UNK     1      17.629   3.414  32.545  1.00  0.00    -0.337 OA
BRANCH  17  18
HETATM   18  C11 UNK     1      18.604   4.418  32.751  1.00  0.00     0.253 C 
BRANCH  18  19
HETATM   19  C15 UNK     1      18.232   5.683  32.007  1.00  0.00     0.146 C 
HETATM   20  C16 UNK     1      19.237   6.185  31.003  1.00  0.00     0.093 C 
HETATM   21  O5  UNK     1      17.174   6.277  32.202  1.00  0.00    -0.296 OA
ENDBRANCH  18  19
ENDBRANCH  17  18
ENDBRANCH   5  17
TORSDOF 4
ENDMDL
MODEL 2
REMARK VINA RESULT:      -8.1      1.519      5.035
REMARK  4 active torsions:
REMARK  status: ('A' for Active; 'I' for Inactive)
REMARK    1  A    between atoms: C11_16  and  O2_2 
REMARK    2  A    between atoms: C3_8  and  O2_2 
REMARK    3  A    between atoms: C2_7  and  C6_11 
REMARK    4  A    between atoms: C11_16  and  C15_20 
ROOT
HETATM    1  O1  UNK     1      18.161   3.430  33.854  1.00  0.00    -0.304 OA
HETATM    2  O4  UNK     1      18.668   3.530  29.811  1.00  0.00    -0.284 OA
HETATM    3  C1  UNK     1      18.477   4.734  31.831  1.00  0.00     0.051 A 
HETATM    4  C2  UNK     1      18.216   2.266  33.102  1.00  0.00     0.147 A 
HETATM    5  C3  UNK     1      18.374   2.227  31.766  1.00  0.00     0.157 A 
HETATM    6  C4  UNK     1      18.298   4.631  33.209  1.00  0.00     0.090 A 
HETATM    7  C5  UNK     1      18.520   3.503  31.026  1.00  0.00     0.221 A 
HETATM    8  C7  UNK     1      18.610   5.986  31.227  1.00  0.00     0.018 A 
HETATM    9  C8  UNK     1      18.251   5.784  33.993  1.00  0.00     0.038 A 
HETATM   10  C9  UNK     1      18.563   7.138  32.014  1.00  0.00     0.001 A 
HETATM   11  C10 UNK     1      18.383   7.037  33.395  1.00  0.00     0.003 A 
ENDROOT
BRANCH   4  12
HETATM   12  C6  UNK     1      18.057   1.048  33.916  1.00  0.00     0.111 A 
HETATM   13  C12 UNK     1      16.936   0.642  34.615  1.00  0.00     0.042 A 
HETATM   14  C13 UNK     1      17.275  -0.584  35.237  1.00  0.00     0.027 A 
HETATM   15  C14 UNK     1      18.577  -0.847  34.881  1.00  0.00     0.142 A 
HETATM   16  O3  UNK     1      19.061   0.138  34.079  1.00  0.00    -0.320 OA
ENDBRANCH   4  12
BRANCH   5  17
HETATM   17  O2  UNK     1      18.392   1.052  31.046  1.00  0.00    -0.337 OA
BRANCH  17  18
HETATM   18  C11 UNK     1      19.715   0.698  30.693  1.00  0.00     0.253 C 
BRANCH  18  19
HETATM   19  C15 UNK     1      19.774   0.213  29.261  1.00  0.00     0.146 C 
HETATM   20  C16 UNK     1      20.812  -0.836  28.955  1.00  0.00     0.093 C 
HETATM   21  O5  UNK     1      19.024   0.643  28.387  1.00  0.00    -0.296 OA
ENDBRANCH  18  19
ENDBRANCH  17  18
ENDBRANCH   5  17
TORSDOF 4
ENDMDL
MODEL 3
REMARK VINA RESULT:      -7.6      1.558      5.123
REMARK  4 active torsions:
REMARK  status: ('A' for Active; 'I' for Inactive)
REMARK    1  A    between atoms: C11_16  and  O2_2 
REMARK    2  A    between atoms: C3_8  and  O2_2 
REMARK    3  A    between atoms: C2_7  and  C6_11 
REMARK    4  A    between atoms: C11_16  and  C15_20 
ROOT
HETATM    1  O1  UNK     1      17.965   3.153  34.693  1.00  0.00    -0.304 OA
HETATM    2  O4  UNK     1      18.899  -0.032  32.328  1.00  0.00    -0.284 OA
HETATM    3  C1  UNK     1      18.270   0.756  34.461  1.00  0.00     0.051 A 
HETATM    4  C2  UNK     1      18.273   3.314  33.351  1.00  0.00     0.147 A 
HETATM    5  C3  UNK     1      18.596   2.309  32.516  1.00  0.00     0.157 A 
HETATM    6  C4  UNK     1      17.963   1.886  35.215  1.00  0.00     0.090 A 
HETATM    7  C5  UNK     1      18.614   0.922  33.039  1.00  0.00     0.221 A 
HETATM    8  C7  UNK     1      18.253  -0.511  35.047  1.00  0.00     0.018 A 
HETATM    9  C8  UNK     1      17.637   1.754  36.565  1.00  0.00     0.038 A 
HETATM   10  C9  UNK     1      17.926  -0.640  36.398  1.00  0.00     0.001 A 
HETATM   11  C10 UNK     1      17.618   0.491  37.155  1.00  0.00     0.003 A 
ENDROOT
BRANCH   4  12
HETATM   12  C6  UNK     1      18.237   4.722  32.917  1.00  0.00     0.111 A 
HETATM   13  C12 UNK     1      19.240   5.665  33.036  1.00  0.00     0.042 A 
HETATM   14  C13 UNK     1      18.730   6.863  32.479  1.00  0.00     0.027 A 
HETATM   15  C14 UNK     1      17.453   6.576  32.058  1.00  0.00     0.142 A 
HETATM   16  O3  UNK     1      17.144   5.278  32.320  1.00  0.00    -0.320 OA
ENDBRANCH   4  12
BRANCH   5  17
HETATM   17  O2  UNK     1      18.930   2.508  31.194  1.00  0.00    -0.337 OA
BRANCH  17  18
HETATM   18  C11 UNK     1      17.793   2.379  30.363  1.00  0.00     0.253 C 
BRANCH  18  19
HETATM   19  C15 UNK     1      18.189   1.888  28.987  1.00  0.00     0.146 C 
HETATM   20  C16 UNK     1      19.173   0.749  28.944  1.00  0.00     0.093 C 
HETATM   21  O5  UNK     1      17.741   2.384  27.955  1.00  0.00    -0.296 OA
ENDBRANCH  18  19
ENDBRANCH  17  18
ENDBRANCH   5  17
TORSDOF 4
ENDMDL
MODEL 4
REMARK VINA RESULT:      -7.6     14.271     18.286
REMARK  4 active torsions:
REMARK  status: ('A' for Active; 'I' for Inactive)
REMARK    1  A    between atoms: C11_16  and  O2_2 
REMARK    2  A    between atoms: C3_8  and  O2_2 
REMARK    3  A    between atoms: C2_7  and  C6_11 
REMARK    4  A    between atoms: C11_16  and  C15_20 
ROOT
HETATM    1  O1  UNK     1      19.519   0.800  14.975  1.00  0.00    -0.304 OA
HETATM    2  O4  UNK     1      18.622  -1.555  18.178  1.00  0.00    -0.284 OA
HETATM    3  C1  UNK     1      19.032   0.614  17.347  1.00  0.00     0.051 A 
HETATM    4  C2  UNK     1      19.368  -0.571  14.845  1.00  0.00     0.147 A 
HETATM    5  C3  UNK     1      19.080  -1.407  15.859  1.00  0.00     0.157 A 
HETATM    6  C4  UNK     1      19.343   1.362  16.213  1.00  0.00     0.090 A 
HETATM    7  C5  UNK     1      18.887  -0.845  17.217  1.00  0.00     0.221 A 
HETATM    8  C7  UNK     1      18.865   1.241  18.583  1.00  0.00     0.018 A 
HETATM    9  C8  UNK     1      19.488   2.747  16.311  1.00  0.00     0.038 A 
HETATM   10  C9  UNK     1      19.011   2.625  18.678  1.00  0.00     0.001 A 
HETATM   11  C10 UNK     1      19.321   3.377  17.543  1.00  0.00     0.003 A 
ENDROOT
BRANCH   4  12
HETATM   12  C6  UNK     1      19.582  -1.045  13.466  1.00  0.00     0.111 A 
HETATM   13  C12 UNK     1      20.785  -1.344  12.855  1.00  0.00     0.042 A 
HETATM   14  C13 UNK     1      20.473  -1.753  11.536  1.00  0.00     0.027 A 
HETATM   15  C14 UNK     1      19.105  -1.675  11.425  1.00  0.00     0.142 A 
HETATM   16  O3  UNK     1      18.554  -1.247  12.592  1.00  0.00    -0.320 OA
ENDBRANCH   4  12
BRANCH   5  17
HETATM   17  O2  UNK     1      18.970  -2.772  15.700  1.00  0.00    -0.337 OA
BRANCH  17  18
HETATM   18  C11 UNK     1      20.224  -3.401  15.878  1.00  0.00     0.253 C 
BRANCH  18  19
HETATM   19  C15 UNK     1      20.315  -4.658  15.040  1.00  0.00     0.146 C 
HETATM   20  C16 UNK     1      19.570  -5.860  15.559  1.00  0.00     0.093 C 
HETATM   21  O5  UNK     1      20.958  -4.709  13.993  1.00  0.00    -0.296 OA
ENDBRANCH  18  19
ENDBRANCH  17  18
ENDBRANCH   5  17
TORSDOF 4
ENDMDL
MODEL 5
REMARK VINA RESULT:      -7.5      2.126      4.850
REMARK  4 active torsions:
REMARK  status: ('A' for Active; 'I' for Inactive)
REMARK    1  A    between atoms: C11_16  and  O2_2 
REMARK    2  A    between atoms: C3_8  and  O2_2 
REMARK    3  A    between atoms: C2_7  and  C6_11 
REMARK    4  A    between atoms: C11_16  and  C15_20 
ROOT
HETATM    1  O1  UNK     1      19.504  -1.079  33.330  1.00  0.00    -0.304 OA
HETATM    2  O4  UNK     1      17.199   1.407  35.591  1.00  0.00    -0.284 OA
HETATM    3  C1  UNK     1      18.503  -0.555  35.479  1.00  0.00     0.051 A 
HETATM    4  C2  UNK     1      18.947   0.073  32.798  1.00  0.00     0.147 A 
HETATM    5  C3  UNK     1      18.172   0.933  33.485  1.00  0.00     0.157 A 
HETATM    6  C4  UNK     1      19.279  -1.365  34.651  1.00  0.00     0.090 A 
HETATM    7  C5  UNK     1      17.896   0.661  34.916  1.00  0.00     0.221 A 
HETATM    8  C7  UNK     1      18.307  -0.897  36.819  1.00  0.00     0.018 A 
HETATM    9  C8  UNK     1      19.863  -2.524  35.162  1.00  0.00     0.038 A 
HETATM   10  C9  UNK     1      18.893  -2.057  37.326  1.00  0.00     0.001 A 
HETATM   11  C10 UNK     1      19.670  -2.869  36.499  1.00  0.00     0.003 A 
ENDROOT
BRANCH   4  12
HETATM   12  C6  UNK     1      19.267   0.261  31.373  1.00  0.00     0.111 A 
HETATM   13  C12 UNK     1      20.384  -0.185  30.693  1.00  0.00     0.042 A 
HETATM   14  C13 UNK     1      20.237   0.245  29.352  1.00  0.00     0.027 A 
HETATM   15  C14 UNK     1      19.043   0.926  29.299  1.00  0.00     0.142 A 
HETATM   16  O3  UNK     1      18.447   0.941  30.521  1.00  0.00    -0.320 OA
ENDBRANCH   4  12
BRANCH   5  17
HETATM   17  O2  UNK     1      17.606   2.053  32.916  1.00  0.00    -0.337 OA
BRANCH  17  18
HETATM   18  C11 UNK     1      18.329   3.216  33.268  1.00  0.00     0.253 C 
BRANCH  18  19
HETATM   19  C15 UNK     1      18.054   4.335  32.286  1.00  0.00     0.146 C 
HETATM   20  C16 UNK     1      18.883   4.336  31.028  1.00  0.00     0.093 C 
HETATM   21  O5  UNK     1      17.205   5.200  32.492  1.00  0.00    -0.296 OA
ENDBRANCH  18  19
ENDBRANCH  17  18
ENDBRANCH   5  17
TORSDOF 4
ENDMDL
MODEL 6
REMARK VINA RESULT:      -7.3     13.796     17.445
REMARK  4 active torsions:
REMARK  status: ('A' for Active; 'I' for Inactive)
REMARK    1  A    between atoms: C11_16  and  O2_2 
REMARK    2  A    between atoms: C3_8  and  O2_2 
REMARK    3  A    between atoms: C2_7  and  C6_11 
REMARK    4  A    between atoms: C11_16  and  C15_20 
ROOT
HETATM    1  O1  UNK     1      18.633  -1.141  17.609  1.00  0.00    -0.304 OA
HETATM    2  O4  UNK     1      19.832   2.056  15.384  1.00  0.00    -0.284 OA
HETATM    3  C1  UNK     1      19.071   1.242  17.463  1.00  0.00     0.051 A 
HETATM    4  C2  UNK     1      19.028  -1.286  16.288  1.00  0.00     0.147 A 
HETATM    5  C3  UNK     1      19.428  -0.274  15.496  1.00  0.00     0.157 A 
HETATM    6  C4  UNK     1      18.669   0.109  18.168  1.00  0.00     0.090 A 
HETATM    7  C5  UNK     1      19.476   1.097  16.056  1.00  0.00     0.221 A 
HETATM    8  C7  UNK     1      19.087   2.492  18.085  1.00  0.00     0.018 A 
HETATM    9  C8  UNK     1      18.278   0.222  19.503  1.00  0.00     0.038 A 
HETATM   10  C9  UNK     1      18.696   2.602  19.420  1.00  0.00     0.001 A 
HETATM   11  C10 UNK     1      18.293   1.469  20.128  1.00  0.00     0.003 A 
ENDROOT
BRANCH   4  12
HETATM   12  C6  UNK     1      18.943  -2.678  15.812  1.00  0.00     0.111 A 
HETATM   13  C12 UNK     1      19.983  -3.567  15.619  1.00  0.00     0.042 A 
HETATM   14  C13 UNK     1      19.400  -4.770  15.153  1.00  0.00     0.027 A 
HETATM   15  C14 UNK     1      18.046  -4.539  15.090  1.00  0.00     0.142 A 
HETATM   16  O3  UNK     1      17.758  -3.272  15.488  1.00  0.00    -0.320 OA
ENDBRANCH   4  12
BRANCH   5  17
HETATM   17  O2  UNK     1      19.781  -0.449  14.175  1.00  0.00    -0.337 OA
BRANCH  17  18
HETATM   18  C11 UNK     1      18.700  -0.973  13.430  1.00  0.00     0.253 C 
BRANCH  18  19
HETATM   19  C15 UNK     1      19.163  -1.427  12.062  1.00  0.00     0.146 C 
HETATM   20  C16 UNK     1      20.215  -2.505  12.039  1.00  0.00     0.093 C 
HETATM   21  O5  UNK     1      18.715  -0.950  11.021  1.00  0.00    -0.296 OA
ENDBRANCH  18  19
ENDBRANCH  17  18
ENDBRANCH   5  17
TORSDOF 4
ENDMDL
MODEL 7
REMARK VINA RESULT:      -7.2     22.528     24.952
REMARK  4 active torsions:
REMARK  status: ('A' for Active; 'I' for Inactive)
REMARK    1  A    between atoms: C11_16  and  O2_2 
REMARK    2  A    between atoms: C3_8  and  O2_2 
REMARK    3  A    between atoms: C2_7  and  C6_11 
REMARK    4  A    between atoms: C11_16  and  C15_20 
ROOT
HETATM    1  O1  UNK     1      10.815   8.224   9.441  1.00  0.00    -0.304 OA
HETATM    2  O4  UNK     1      13.461   6.878   6.648  1.00  0.00    -0.284 OA
HETATM    3  C1  UNK     1      11.224   6.990   7.391  1.00  0.00     0.051 A 
HETATM    4  C2  UNK     1      12.167   8.517   9.525  1.00  0.00     0.147 A 
HETATM    5  C3  UNK     1      13.094   8.100   8.644  1.00  0.00     0.157 A 
HETATM    6  C4  UNK     1      10.373   7.477   8.380  1.00  0.00     0.090 A 
HETATM    7  C5  UNK     1      12.663   7.285   7.483  1.00  0.00     0.221 A 
HETATM    8  C7  UNK     1      10.718   6.233   6.332  1.00  0.00     0.018 A 
HETATM    9  C8  UNK     1       9.005   7.209   8.315  1.00  0.00     0.038 A 
HETATM   10  C9  UNK     1       9.349   5.966   6.270  1.00  0.00     0.001 A 
HETATM   11  C10 UNK     1       8.495   6.454   7.260  1.00  0.00     0.003 A 
ENDROOT
BRANCH   4  12
HETATM   12  C6  UNK     1      12.507   9.325  10.709  1.00  0.00     0.111 A 
HETATM   13  C12 UNK     1      12.932  10.640  10.739  1.00  0.00     0.042 A 
HETATM   14  C13 UNK     1      13.133  10.965  12.102  1.00  0.00     0.027 A 
HETATM   15  C14 UNK     1      12.820   9.832  12.815  1.00  0.00     0.142 A 
HETATM   16  O3  UNK     1      12.439   8.831  11.979  1.00  0.00    -0.320 OA
ENDBRANCH   4  12
BRANCH   5  17
HETATM   17  O2  UNK     1      14.437   8.383   8.776  1.00  0.00    -0.337 OA
BRANCH  17  18
HETATM   18  C11 UNK     1      15.110   7.327   9.433  1.00  0.00     0.253 C 
BRANCH  18  19
HETATM   19  C15 UNK     1      16.257   7.860  10.265  1.00  0.00     0.146 C 
HETATM   20  C16 UNK     1      15.940   8.195  11.699  1.00  0.00     0.093 C 
HETATM   21  O5  UNK     1      17.387   8.018   9.808  1.00  0.00    -0.296 OA
ENDBRANCH  18  19
ENDBRANCH  17  18
ENDBRANCH   5  17
TORSDOF 4
ENDMDL
MODEL 8
REMARK VINA RESULT:      -7.1      1.439      4.869
REMARK  4 active torsions:
REMARK  status: ('A' for Active; 'I' for Inactive)
REMARK    1  A    between atoms: C11_16  and  O2_2 
REMARK    2  A    between atoms: C3_8  and  O2_2 
REMARK    3  A    between atoms: C2_7  and  C6_11 
REMARK    4  A    between atoms: C11_16  and  C15_20 
ROOT
HETATM    1  O1  UNK     1      18.663   0.480  32.806  1.00  0.00    -0.304 OA
HETATM    2  O4  UNK     1      17.909   4.328  33.917  1.00  0.00    -0.284 OA
HETATM    3  C1  UNK     1      18.234   2.086  34.575  1.00  0.00     0.051 A 
HETATM    4  C2  UNK     1      18.591   1.501  31.872  1.00  0.00     0.147 A 
HETATM    5  C3  UNK     1      18.339   2.790  32.168  1.00  0.00     0.157 A 
HETATM    6  C4  UNK     1      18.492   0.791  34.129  1.00  0.00     0.090 A 
HETATM    7  C5  UNK     1      18.140   3.172  33.587  1.00  0.00     0.221 A 
HETATM    8  C7  UNK     1      18.066   2.344  35.937  1.00  0.00     0.018 A 
HETATM    9  C8  UNK     1      18.583  -0.256  35.047  1.00  0.00     0.038 A 
HETATM   10  C9  UNK     1      18.158   1.295  36.853  1.00  0.00     0.001 A 
HETATM   11  C10 UNK     1      18.417  -0.003  36.408  1.00  0.00     0.003 A 
ENDROOT
BRANCH   4  12
HETATM   12  C6  UNK     1      18.795   1.033  30.490  1.00  0.00     0.111 A 
HETATM   13  C12 UNK     1      19.843   0.277  30.002  1.00  0.00     0.042 A 
HETATM   14  C13 UNK     1      19.592   0.087  28.622  1.00  0.00     0.027 A 
HETATM   15  C14 UNK     1      18.411   0.738  28.355  1.00  0.00     0.142 A 
HETATM   16  O3  UNK     1      17.918   1.316  29.483  1.00  0.00    -0.320 OA
ENDBRANCH   4  12
BRANCH   5  17
HETATM   17  O2  UNK     1      18.240   3.776  31.210  1.00  0.00    -0.337 OA
BRANCH  17  18
HETATM   18  C11 UNK     1      19.516   4.302  30.897  1.00  0.00     0.253 C 
BRANCH  18  19
HETATM   19  C15 UNK     1      19.412   5.762  30.514  1.00  0.00     0.146 C 
HETATM   20  C16 UNK     1      18.418   6.586  31.291  1.00  0.00     0.093 C 
HETATM   21  O5  UNK     1      20.093   6.260  29.619  1.00  0.00    -0.296 OA
ENDBRANCH  18  19
ENDBRANCH  17  18
ENDBRANCH   5  17
TORSDOF 4
ENDMDL
MODEL 9
REMARK VINA RESULT:      -6.9      1.914      5.240
REMARK  4 active torsions:
REMARK  status: ('A' for Active; 'I' for Inactive)
REMARK    1  A    between atoms: C11_16  and  O2_2 
REMARK    2  A    between atoms: C3_8  and  O2_2 
REMARK    3  A    between atoms: C2_7  and  C6_11 
REMARK    4  A    between atoms: C11_16  and  C15_20 
ROOT
HETATM    1  O1  UNK     1      18.911  -0.873  33.486  1.00  0.00    -0.304 OA
HETATM    2  O4  UNK     1      17.854   3.056  33.719  1.00  0.00    -0.284 OA
HETATM    3  C1  UNK     1      17.956   0.949  34.775  1.00  0.00     0.051 A 
HETATM    4  C2  UNK     1      19.133  -0.001  32.432  1.00  0.00     0.147 A 
HETATM    5  C3  UNK     1      18.804   1.304  32.439  1.00  0.00     0.157 A 
HETATM    6  C4  UNK     1      18.337  -0.384  34.630  1.00  0.00     0.090 A 
HETATM    7  C5  UNK     1      18.175   1.877  33.654  1.00  0.00     0.221 A 
HETATM    8  C7  UNK     1      17.375   1.392  35.965  1.00  0.00     0.018 A 
HETATM    9  C8  UNK     1      18.138  -1.283  35.678  1.00  0.00     0.038 A 
HETATM   10  C9  UNK     1      17.176   0.491  37.011  1.00  0.00     0.001 A 
HETATM   11  C10 UNK     1      17.558  -0.845  36.868  1.00  0.00     0.003 A 
ENDROOT
BRANCH   4  12
HETATM   12  C6  UNK     1      19.755  -0.653  31.267  1.00  0.00     0.111 A 
HETATM   13  C12 UNK     1      20.582  -0.078  30.320  1.00  0.00     0.042 A 
HETATM   14  C13 UNK     1      20.917  -1.104  29.404  1.00  0.00     0.027 A 
HETATM   15  C14 UNK     1      20.275  -2.236  29.848  1.00  0.00     0.142 A 
HETATM   16  O3  UNK     1      19.567  -1.973  30.978  1.00  0.00    -0.320 OA
ENDBRANCH   4  12
BRANCH   5  17
HETATM   17  O2  UNK     1      19.009   2.137  31.361  1.00  0.00    -0.337 OA
BRANCH  17  18
HETATM   18  C11 UNK     1      17.800   2.361  30.662  1.00  0.00     0.253 C 
BRANCH  18  19
HETATM   19  C15 UNK     1      18.056   2.481  29.175  1.00  0.00     0.146 C 
HETATM   20  C16 UNK     1      17.926   1.214  28.371  1.00  0.00     0.093 C 
HETATM   21  O5  UNK     1      18.356   3.548  28.641  1.00  0.00    -0.296 OA
ENDBRANCH  18  19
ENDBRANCH  17  18
ENDBRANCH   5  17
TORSDOF 4
ENDMDL
MODEL 10
REMARK VINA RESULT:      -6.9      8.144     10.139
REMARK  4 active torsions:
REMARK  status: ('A' for Active; 'I' for Inactive)
REMARK    1  A    between atoms: C11_16  and  O2_2 
REMARK    2  A    between atoms: C3_8  and  O2_2 
REMARK    3  A    between atoms: C2_7  and  C6_11 
REMARK    4  A    between atoms: C11_16  and  C15_20 
ROOT
HETATM    1  O1  UNK     1      19.507  -7.794  37.854  1.00  0.00    -0.304 OA
HETATM    2  O4  UNK     1      22.122  -4.691  37.471  1.00  0.00    -0.284 OA
HETATM    3  C1  UNK     1      21.594  -6.741  38.511  1.00  0.00     0.051 A 
HETATM    4  C2  UNK     1      19.271  -6.754  36.968  1.00  0.00     0.147 A 
HETATM    5  C3  UNK     1      20.086  -5.697  36.797  1.00  0.00     0.157 A 
HETATM    6  C4  UNK     1      20.659  -7.771  38.596  1.00  0.00     0.090 A 
HETATM    7  C5  UNK     1      21.341  -5.626  37.585  1.00  0.00     0.221 A 
HETATM    8  C7  UNK     1      22.750  -6.770  39.293  1.00  0.00     0.018 A 
HETATM    9  C8  UNK     1      20.876  -8.838  39.469  1.00  0.00     0.038 A 
HETATM   10  C9  UNK     1      22.965  -7.839  40.165  1.00  0.00     0.001 A 
HETATM   11  C10 UNK     1      22.029  -8.871  40.252  1.00  0.00     0.003 A 
ENDROOT
BRANCH   4  12
HETATM   12  C6  UNK     1      18.003  -6.901  36.233  1.00  0.00     0.111 A 
HETATM   13  C12 UNK     1      17.748  -7.716  35.147  1.00  0.00     0.042 A 
HETATM   14  C13 UNK     1      16.392  -7.506  34.797  1.00  0.00     0.027 A 
HETATM   15  C14 UNK     1      15.908  -6.578  35.689  1.00  0.00     0.142 A 
HETATM   16  O3  UNK     1      16.877  -6.205  36.565  1.00  0.00    -0.320 OA
ENDBRANCH   4  12
BRANCH   5  17
HETATM   17  O2  UNK     1      19.804  -4.662  35.932  1.00  0.00    -0.337 OA
BRANCH  17  18
HETATM   18  C11 UNK     1      19.494  -3.481  36.645  1.00  0.00     0.253 C 
BRANCH  18  19
HETATM   19  C15 UNK     1      20.013  -2.262  35.912  1.00  0.00     0.146 C 
HETATM   20  C16 UNK     1      19.041  -1.124  35.739  1.00  0.00     0.093 C 
HETATM   21  O5  UNK     1      21.160  -2.194  35.476  1.00  0.00    -0.296 OA
ENDBRANCH  18  19
ENDBRANCH  17  18
ENDBRANCH   5  17
TORSDOF 4
ENDMDL
