MODEL 1
REMARK VINA RESULT:      -9.6      0.000      0.000
REMARK  5 active torsions:
REMARK  status: ('A' for Active; 'I' for Inactive)
REMARK    1  A    between atoms: C13_17  and  O2_2 
REMARK    2  A    between atoms: C8_12  and  O2_2 
REMARK    3  A    between atoms: C3_7  and  C5_9 
REMARK    4  A    between atoms: C13_17  and  C14_18 
REMARK    5  A    between atoms: C14_18  and  C15_19 
ROOT
HETATM    1  O1  UNK     1      17.911   3.394  33.092  1.00  0.00    -0.274 OA
HETATM    2  O3  UNK     1      18.155   1.138  32.856  1.00  0.00    -0.259 OA
HETATM    3  C1  UNK     1      18.454   4.871  31.244  1.00  0.00    -0.001 A 
HETATM    4  C2  UNK     1      17.999   4.687  32.544  1.00  0.00     0.092 A 
HETATM    5  C3  UNK     1      18.756   2.471  30.978  1.00  0.00     0.051 A 
HETATM    6  C4  UNK     1      18.842   3.707  30.464  1.00  0.00     0.032 A 
HETATM    7  C6  UNK     1      17.614   5.759  33.346  1.00  0.00     0.075 A 
HETATM    8  C7  UNK     1      18.527   6.170  30.732  1.00  0.00     0.017 A 
HETATM    9  C8  UNK     1      17.689   7.051  32.829  1.00  0.00     0.072 A 
HETATM   10  C9  UNK     1      18.144   7.256  31.524  1.00  0.00     0.038 A 
HETATM   11  C10 UNK     1      18.261   2.259  32.366  1.00  0.00     0.299 A 
ENDROOT
BRANCH   9  12
HETATM   12  O2  UNK     1      17.318   8.113  33.595  1.00  0.00    -0.344 OA
BRANCH  12  13
HETATM   13  C13 UNK     1      16.420   7.854  34.673  1.00  0.00     0.259 C 
BRANCH  13  14
HETATM   14  C14 UNK     1      14.995   8.141  34.243  1.00  0.00     0.183 C 
HETATM   15  O4  UNK     1      14.231   7.243  33.902  1.00  0.00    -0.290 OA
BRANCH  14  16
HETATM   16  C15 UNK     1      14.519   9.555  34.236  1.00  0.00     0.012 A 
HETATM   17  C19 UNK     1      14.011  10.075  33.067  1.00  0.00     0.015 A 
HETATM   18  C21 UNK     1      13.566  11.397  33.061  1.00  0.00     0.001 A 
HETATM   19  C23 UNK     1      13.641  12.164  34.224  1.00  0.00     0.000 A 
HETATM   20  C22 UNK     1      14.162  11.609  35.393  1.00  0.00     0.001 A 
HETATM   21  C20 UNK     1      14.607  10.287  35.399  1.00  0.00     0.015 A 
ENDBRANCH  14  16
ENDBRANCH  13  14
ENDBRANCH  12  13
ENDBRANCH   9  12
BRANCH   5  22
HETATM   22  C5  UNK     1      19.177   1.323  30.153  1.00  0.00    -0.020 A 
HETATM   23  C11 UNK     1      20.206   0.489  30.593  1.00  0.00     0.012 A 
HETATM   24  C16 UNK     1      20.603  -0.596  29.812  1.00  0.00     0.001 A 
HETATM   25  C18 UNK     1      19.974  -0.849  28.594  1.00  0.00     0.000 A 
HETATM   26  C17 UNK     1      18.944  -0.015  28.156  1.00  0.00     0.001 A 
HETATM   27  C12 UNK     1      18.546   1.071  28.935  1.00  0.00     0.012 A 
ENDBRANCH   5  22
TORSDOF 5
ENDMDL
MODEL 2
REMARK VINA RESULT:      -9.5      1.609      9.819
REMARK  5 active torsions:
REMARK  status: ('A' for Active; 'I' for Inactive)
REMARK    1  A    between atoms: C13_17  and  O2_2 
REMARK    2  A    between atoms: C8_12  and  O2_2 
REMARK    3  A    between atoms: C3_7  and  C5_9 
REMARK    4  A    between atoms: C13_17  and  C14_18 
REMARK    5  A    between atoms: C14_18  and  C15_19 
ROOT
HETATM    1  O1  UNK     1      16.276   7.810  31.784  1.00  0.00    -0.274 OA
HETATM    2  O3  UNK     1      14.617   9.284  32.313  1.00  0.00    -0.259 OA
HETATM    3  C1  UNK     1      18.323   7.771  33.086  1.00  0.00    -0.001 A 
HETATM    4  C2  UNK     1      17.549   7.272  32.046  1.00  0.00     0.092 A 
HETATM    5  C3  UNK     1      16.583   9.376  33.651  1.00  0.00     0.051 A 
HETATM    6  C4  UNK     1      17.798   8.861  33.893  1.00  0.00     0.032 A 
HETATM    7  C6  UNK     1      17.993   6.231  31.234  1.00  0.00     0.075 A 
HETATM    8  C7  UNK     1      19.582   7.210  33.319  1.00  0.00     0.017 A 
HETATM    9  C8  UNK     1      19.249   5.677  31.473  1.00  0.00     0.072 A 
HETATM   10  C9  UNK     1      20.042   6.165  32.513  1.00  0.00     0.038 A 
HETATM   11  C10 UNK     1      15.739   8.844  32.546  1.00  0.00     0.299 A 
ENDROOT
BRANCH   9  12
HETATM   12  O2  UNK     1      19.703   4.659  30.691  1.00  0.00    -0.344 OA
BRANCH  12  13
HETATM   13  C13 UNK     1      18.724   3.870  30.018  1.00  0.00     0.259 C 
BRANCH  13  14
HETATM   14  C14 UNK     1      18.505   2.567  30.763  1.00  0.00     0.183 C 
HETATM   15  O4  UNK     1      17.868   2.523  31.812  1.00  0.00    -0.290 OA
BRANCH  14  16
HETATM   16  C15 UNK     1      19.084   1.313  30.200  1.00  0.00     0.012 A 
HETATM   17  C19 UNK     1      19.804   0.486  31.033  1.00  0.00     0.015 A 
HETATM   18  C21 UNK     1      20.345  -0.686  30.505  1.00  0.00     0.001 A 
HETATM   19  C23 UNK     1      20.153  -1.001  29.160  1.00  0.00     0.000 A 
HETATM   20  C22 UNK     1      19.419  -0.142  28.341  1.00  0.00     0.001 A 
HETATM   21  C20 UNK     1      18.878   1.031  28.868  1.00  0.00     0.015 A 
ENDBRANCH  14  16
ENDBRANCH  13  14
ENDBRANCH  12  13
ENDBRANCH   9  12
BRANCH   5  22
HETATM   22  C5  UNK     1      16.100  10.492  34.487  1.00  0.00    -0.020 A 
HETATM   23  C11 UNK     1      14.951  10.335  35.262  1.00  0.00     0.012 A 
HETATM   24  C16 UNK     1      14.495  11.390  36.052  1.00  0.00     0.001 A 
HETATM   25  C18 UNK     1      15.187  12.601  36.067  1.00  0.00     0.000 A 
HETATM   26  C17 UNK     1      16.337  12.757  35.291  1.00  0.00     0.001 A 
HETATM   27  C12 UNK     1      16.794  11.702  34.501  1.00  0.00     0.012 A 
ENDBRANCH   5  22
TORSDOF 5
ENDMDL
MODEL 3
REMARK VINA RESULT:      -9.4      1.948      2.909
REMARK  5 active torsions:
REMARK  status: ('A' for Active; 'I' for Inactive)
REMARK    1  A    between atoms: C13_17  and  O2_2 
REMARK    2  A    between atoms: C8_12  and  O2_2 
REMARK    3  A    between atoms: C3_7  and  C5_9 
REMARK    4  A    between atoms: C13_17  and  C14_18 
REMARK    5  A    between atoms: C14_18  and  C15_19 
ROOT
HETATM    1  O1  UNK     1      17.839   3.142  32.663  1.00  0.00    -0.274 OA
HETATM    2  O3  UNK     1      18.082   0.912  33.080  1.00  0.00    -0.259 OA
HETATM    3  C1  UNK     1      18.697   4.089  30.600  1.00  0.00    -0.001 A 
HETATM    4  C2  UNK     1      18.035   4.245  31.811  1.00  0.00     0.092 A 
HETATM    5  C3  UNK     1      19.000   1.714  31.036  1.00  0.00     0.051 A 
HETATM    6  C4  UNK     1      19.188   2.772  30.231  1.00  0.00     0.032 A 
HETATM    7  C6  UNK     1      17.542   5.480  32.226  1.00  0.00     0.075 A 
HETATM    8  C7  UNK     1      18.872   5.207  29.779  1.00  0.00     0.017 A 
HETATM    9  C8  UNK     1      17.720   6.589  31.402  1.00  0.00     0.072 A 
HETATM   10  C9  UNK     1      18.384   6.453  30.181  1.00  0.00     0.038 A 
HETATM   11  C10 UNK     1      18.284   1.865  32.332  1.00  0.00     0.299 A 
ENDROOT
BRANCH   9  12
HETATM   12  O2  UNK     1      17.247   7.806  31.788  1.00  0.00    -0.344 OA
BRANCH  12  13
HETATM   13  C13 UNK     1      16.122   7.818  32.664  1.00  0.00     0.259 C 
BRANCH  13  14
HETATM   14  C14 UNK     1      16.427   8.658  33.890  1.00  0.00     0.183 C 
HETATM   15  O4  UNK     1      15.551   8.967  34.693  1.00  0.00    -0.290 OA
BRANCH  14  16
HETATM   16  C15 UNK     1      17.828   9.116  34.113  1.00  0.00     0.012 A 
HETATM   17  C19 UNK     1      18.120  10.451  33.946  1.00  0.00     0.015 A 
HETATM   18  C21 UNK     1      19.431  10.880  34.155  1.00  0.00     0.001 A 
HETATM   19  C23 UNK     1      20.415   9.963  34.527  1.00  0.00     0.000 A 
HETATM   20  C22 UNK     1      20.087   8.617  34.689  1.00  0.00     0.001 A 
HETATM   21  C20 UNK     1      18.777   8.188  34.479  1.00  0.00     0.015 A 
ENDBRANCH  14  16
ENDBRANCH  13  14
ENDBRANCH  12  13
ENDBRANCH   9  12
BRANCH   5  22
HETATM   22  C5  UNK     1      19.531   0.400  30.626  1.00  0.00    -0.020 A 
HETATM   23  C11 UNK     1      19.540  -0.660  31.531  1.00  0.00     0.012 A 
HETATM   24  C16 UNK     1      20.041  -1.903  31.143  1.00  0.00     0.001 A 
HETATM   25  C18 UNK     1      20.534  -2.084  29.851  1.00  0.00     0.000 A 
HETATM   26  C17 UNK     1      20.524  -1.022  28.945  1.00  0.00     0.001 A 
HETATM   27  C12 UNK     1      20.022   0.220  29.333  1.00  0.00     0.012 A 
ENDBRANCH   5  22
TORSDOF 5
ENDMDL
MODEL 4
REMARK VINA RESULT:      -9.3      5.576     10.841
REMARK  5 active torsions:
REMARK  status: ('A' for Active; 'I' for Inactive)
REMARK    1  A    between atoms: C13_17  and  O2_2 
REMARK    2  A    between atoms: C8_12  and  O2_2 
REMARK    3  A    between atoms: C3_7  and  C5_9 
REMARK    4  A    between atoms: C13_17  and  C14_18 
REMARK    5  A    between atoms: C14_18  and  C15_19 
ROOT
HETATM    1  O1  UNK     1      18.362   0.596  32.545  1.00  0.00    -0.274 OA
HETATM    2  O3  UNK     1      18.349   1.841  30.634  1.00  0.00    -0.259 OA
HETATM    3  C1  UNK     1      18.243   1.693  34.707  1.00  0.00    -0.001 A 
HETATM    4  C2  UNK     1      18.315   0.530  33.950  1.00  0.00     0.092 A 
HETATM    5  C3  UNK     1      18.262   3.046  32.684  1.00  0.00     0.051 A 
HETATM    6  C4  UNK     1      18.223   2.976  34.024  1.00  0.00     0.032 A 
HETATM    7  C6  UNK     1      18.340  -0.731  34.542  1.00  0.00     0.075 A 
HETATM    8  C7  UNK     1      18.196   1.589  36.100  1.00  0.00     0.017 A 
HETATM    9  C8  UNK     1      18.292  -0.826  35.931  1.00  0.00     0.072 A 
HETATM   10  C9  UNK     1      18.220   0.332  36.709  1.00  0.00     0.038 A 
HETATM   11  C10 UNK     1      18.330   1.808  31.861  1.00  0.00     0.299 A 
ENDROOT
BRANCH   9  12
HETATM   12  O2  UNK     1      18.316  -2.048  36.530  1.00  0.00    -0.344 OA
BRANCH  12  13
HETATM   13  C13 UNK     1      19.583  -2.526  36.981  1.00  0.00     0.259 C 
BRANCH  13  14
HETATM   14  C14 UNK     1      19.924  -3.830  36.287  1.00  0.00     0.183 C 
HETATM   15  O4  UNK     1      20.354  -3.855  35.137  1.00  0.00    -0.290 OA
BRANCH  14  16
HETATM   16  C15 UNK     1      19.725  -5.109  37.028  1.00  0.00     0.012 A 
HETATM   17  C19 UNK     1      20.571  -5.405  38.073  1.00  0.00     0.015 A 
HETATM   18  C21 UNK     1      20.385  -6.601  38.766  1.00  0.00     0.001 A 
HETATM   19  C23 UNK     1      19.358  -7.470  38.396  1.00  0.00     0.000 A 
HETATM   20  C22 UNK     1      18.517  -7.142  37.332  1.00  0.00     0.001 A 
HETATM   21  C20 UNK     1      18.703  -5.946  36.639  1.00  0.00     0.015 A 
ENDBRANCH  14  16
ENDBRANCH  13  14
ENDBRANCH  12  13
ENDBRANCH   9  12
BRANCH   5  22
HETATM   22  C5  UNK     1      18.256   4.372  32.037  1.00  0.00    -0.020 A 
HETATM   23  C11 UNK     1      19.096   4.621  30.951  1.00  0.00     0.012 A 
HETATM   24  C16 UNK     1      19.089   5.874  30.340  1.00  0.00     0.001 A 
HETATM   25  C18 UNK     1      18.245   6.878  30.813  1.00  0.00     0.000 A 
HETATM   26  C17 UNK     1      17.405   6.628  31.899  1.00  0.00     0.001 A 
HETATM   27  C12 UNK     1      17.411   5.375  32.511  1.00  0.00     0.012 A 
ENDBRANCH   5  22
TORSDOF 5
ENDMDL
MODEL 5
REMARK VINA RESULT:      -9.1      1.836      2.047
REMARK  5 active torsions:
REMARK  status: ('A' for Active; 'I' for Inactive)
REMARK    1  A    between atoms: C13_17  and  O2_2 
REMARK    2  A    between atoms: C8_12  and  O2_2 
REMARK    3  A    between atoms: C3_7  and  C5_9 
REMARK    4  A    between atoms: C13_17  and  C14_18 
REMARK    5  A    between atoms: C14_18  and  C15_19 
ROOT
HETATM    1  O1  UNK     1      17.858   3.252  32.787  1.00  0.00    -0.274 OA
HETATM    2  O3  UNK     1      18.076   0.990  32.983  1.00  0.00    -0.259 OA
HETATM    3  C1  UNK     1      18.674   4.381  30.800  1.00  0.00    -0.001 A 
HETATM    4  C2  UNK     1      18.048   4.429  32.039  1.00  0.00     0.092 A 
HETATM    5  C3  UNK     1      18.950   1.971  30.999  1.00  0.00     0.051 A 
HETATM    6  C4  UNK     1      19.133   3.097  30.293  1.00  0.00     0.032 A 
HETATM    7  C6  UNK     1      17.588   5.625  32.584  1.00  0.00     0.075 A 
HETATM    8  C7  UNK     1      18.845   5.569  30.084  1.00  0.00     0.017 A 
HETATM    9  C8  UNK     1      17.761   6.805  31.864  1.00  0.00     0.072 A 
HETATM   10  C9  UNK     1      18.389   6.778  30.617  1.00  0.00     0.038 A 
HETATM   11  C10 UNK     1      18.272   2.007  32.324  1.00  0.00     0.299 A 
ENDROOT
BRANCH   9  12
HETATM   12  O2  UNK     1      17.320   7.986  32.377  1.00  0.00    -0.344 OA
BRANCH  12  13
HETATM   13  C13 UNK     1      18.034   8.518  33.492  1.00  0.00     0.259 C 
BRANCH  13  14
HETATM   14  C14 UNK     1      17.106   9.351  34.355  1.00  0.00     0.183 C 
HETATM   15  O4  UNK     1      16.372   8.836  35.194  1.00  0.00    -0.290 OA
BRANCH  14  16
HETATM   16  C15 UNK     1      17.091  10.831  34.170  1.00  0.00     0.012 A 
HETATM   17  C19 UNK     1      18.290  11.488  34.006  1.00  0.00     0.015 A 
HETATM   18  C21 UNK     1      18.275  12.872  33.833  1.00  0.00     0.001 A 
HETATM   19  C23 UNK     1      17.063  13.562  33.829  1.00  0.00     0.000 A 
HETATM   20  C22 UNK     1      15.864  12.868  33.998  1.00  0.00     0.001 A 
HETATM   21  C20 UNK     1      15.879  11.484  34.171  1.00  0.00     0.015 A 
ENDBRANCH  14  16
ENDBRANCH  13  14
ENDBRANCH  12  13
ENDBRANCH   9  12
BRANCH   5  22
HETATM   22  C5  UNK     1      19.447   0.695  30.450  1.00  0.00    -0.020 A 
HETATM   23  C11 UNK     1      19.929  -0.292  31.310  1.00  0.00     0.012 A 
HETATM   24  C16 UNK     1      20.399  -1.499  30.791  1.00  0.00     0.001 A 
HETATM   25  C18 UNK     1      20.388  -1.718  29.413  1.00  0.00     0.000 A 
HETATM   26  C17 UNK     1      19.905  -0.730  28.554  1.00  0.00     0.001 A 
HETATM   27  C12 UNK     1      19.434   0.476  29.073  1.00  0.00     0.012 A 
ENDBRANCH   5  22
TORSDOF 5
ENDMDL
MODEL 6
REMARK VINA RESULT:      -9.1     22.935     25.298
REMARK  5 active torsions:
REMARK  status: ('A' for Active; 'I' for Inactive)
REMARK    1  A    between atoms: C13_17  and  O2_2 
REMARK    2  A    between atoms: C8_12  and  O2_2 
REMARK    3  A    between atoms: C3_7  and  C5_9 
REMARK    4  A    between atoms: C13_17  and  C14_18 
REMARK    5  A    between atoms: C14_18  and  C15_19 
ROOT
HETATM    1  O1  UNK     1      14.962  10.341   8.196  1.00  0.00    -0.274 OA
HETATM    2  O3  UNK     1      15.308  12.330   7.135  1.00  0.00    -0.259 OA
HETATM    3  C1  UNK     1      16.763   9.308   9.452  1.00  0.00    -0.001 A 
HETATM    4  C2  UNK     1      15.448   9.297   9.004  1.00  0.00     0.092 A 
HETATM    5  C3  UNK     1      17.169  11.413   8.301  1.00  0.00     0.051 A 
HETATM    6  C4  UNK     1      17.627  10.412   9.067  1.00  0.00     0.032 A 
HETATM    7  C6  UNK     1      14.568   8.268   9.334  1.00  0.00     0.075 A 
HETATM    8  C7  UNK     1      17.211   8.255  10.254  1.00  0.00     0.017 A 
HETATM    9  C8  UNK     1      15.022   7.222  10.134  1.00  0.00     0.072 A 
HETATM   10  C9  UNK     1      16.341   7.215  10.594  1.00  0.00     0.038 A 
HETATM   11  C10 UNK     1      15.760  11.419   7.822  1.00  0.00     0.299 A 
ENDROOT
BRANCH   9  12
HETATM   12  O2  UNK     1      14.180   6.206  10.468  1.00  0.00    -0.344 OA
BRANCH  12  13
HETATM   13  C13 UNK     1      13.655   5.420   9.400  1.00  0.00     0.259 C 
BRANCH  13  14
HETATM   14  C14 UNK     1      12.142   5.372   9.486  1.00  0.00     0.183 C 
HETATM   15  O4  UNK     1      11.564   5.048  10.520  1.00  0.00    -0.290 OA
BRANCH  14  16
HETATM   16  C15 UNK     1      11.344   5.726   8.276  1.00  0.00     0.012 A 
HETATM   17  C19 UNK     1       9.982   5.883   8.406  1.00  0.00     0.015 A 
HETATM   18  C21 UNK     1       9.237   6.214   7.274  1.00  0.00     0.001 A 
HETATM   19  C23 UNK     1       9.872   6.380   6.043  1.00  0.00     0.000 A 
HETATM   20  C22 UNK     1      11.254   6.214   5.944  1.00  0.00     0.001 A 
HETATM   21  C20 UNK     1      11.999   5.882   7.075  1.00  0.00     0.015 A 
ENDBRANCH  14  16
ENDBRANCH  13  14
ENDBRANCH  12  13
ENDBRANCH   9  12
BRANCH   5  22
HETATM   22  C5  UNK     1      18.088  12.503   7.924  1.00  0.00    -0.020 A 
HETATM   23  C11 UNK     1      18.197  13.635   8.733  1.00  0.00     0.012 A 
HETATM   24  C16 UNK     1      19.066  14.665   8.376  1.00  0.00     0.001 A 
HETATM   25  C18 UNK     1      19.826  14.565   7.211  1.00  0.00     0.000 A 
HETATM   26  C17 UNK     1      19.718  13.433   6.403  1.00  0.00     0.001 A 
HETATM   27  C12 UNK     1      18.849  12.402   6.759  1.00  0.00     0.012 A 
ENDBRANCH   5  22
TORSDOF 5
ENDMDL
MODEL 7
REMARK VINA RESULT:      -9.0     22.928     25.288
REMARK  5 active torsions:
REMARK  status: ('A' for Active; 'I' for Inactive)
REMARK    1  A    between atoms: C13_17  and  O2_2 
REMARK    2  A    between atoms: C8_12  and  O2_2 
REMARK    3  A    between atoms: C3_7  and  C5_9 
REMARK    4  A    between atoms: C13_17  and  C14_18 
REMARK    5  A    between atoms: C14_18  and  C15_19 
ROOT
HETATM    1  O1  UNK     1      14.933  10.354   8.230  1.00  0.00    -0.274 OA
HETATM    2  O3  UNK     1      15.284  12.351   7.184  1.00  0.00    -0.259 OA
HETATM    3  C1  UNK     1      16.740   9.294   9.455  1.00  0.00    -0.001 A 
HETATM    4  C2  UNK     1      15.419   9.298   9.022  1.00  0.00     0.092 A 
HETATM    5  C3  UNK     1      17.150  11.407   8.319  1.00  0.00     0.051 A 
HETATM    6  C4  UNK     1      17.609  10.394   9.070  1.00  0.00     0.032 A 
HETATM    7  C6  UNK     1      14.535   8.274   9.352  1.00  0.00     0.075 A 
HETATM    8  C7  UNK     1      17.188   8.229  10.242  1.00  0.00     0.017 A 
HETATM    9  C8  UNK     1      14.989   7.217  10.138  1.00  0.00     0.072 A 
HETATM   10  C9  UNK     1      16.313   7.194  10.582  1.00  0.00     0.038 A 
HETATM   11  C10 UNK     1      15.736  11.429   7.857  1.00  0.00     0.299 A 
ENDROOT
BRANCH   9  12
HETATM   12  O2  UNK     1      14.142   6.205  10.472  1.00  0.00    -0.344 OA
BRANCH  12  13
HETATM   13  C13 UNK     1      13.623   5.413   9.405  1.00  0.00     0.259 C 
BRANCH  13  14
HETATM   14  C14 UNK     1      12.109   5.361   9.485  1.00  0.00     0.183 C 
HETATM   15  O4  UNK     1      11.529   5.024  10.514  1.00  0.00    -0.290 OA
BRANCH  14  16
HETATM   16  C15 UNK     1      11.315   5.729   8.278  1.00  0.00     0.012 A 
HETATM   17  C19 UNK     1      11.974   5.903   7.081  1.00  0.00     0.015 A 
HETATM   18  C21 UNK     1      11.230   6.247   5.953  1.00  0.00     0.001 A 
HETATM   19  C23 UNK     1       9.848   6.409   6.049  1.00  0.00     0.000 A 
HETATM   20  C22 UNK     1       9.209   6.226   7.276  1.00  0.00     0.001 A 
HETATM   21  C20 UNK     1       9.952   5.882   8.405  1.00  0.00     0.015 A 
ENDBRANCH  14  16
ENDBRANCH  13  14
ENDBRANCH  12  13
ENDBRANCH   9  12
BRANCH   5  22
HETATM   22  C5  UNK     1      18.075  12.493   7.942  1.00  0.00    -0.020 A 
HETATM   23  C11 UNK     1      18.747  12.441   6.721  1.00  0.00     0.012 A 
HETATM   24  C16 UNK     1      19.621  13.468   6.364  1.00  0.00     0.001 A 
HETATM   25  C18 UNK     1      19.823  14.545   7.227  1.00  0.00     0.000 A 
HETATM   26  C17 UNK     1      19.149  14.596   8.447  1.00  0.00     0.001 A 
HETATM   27  C12 UNK     1      18.275  13.570   8.805  1.00  0.00     0.012 A 
ENDBRANCH   5  22
TORSDOF 5
ENDMDL
MODEL 8
REMARK VINA RESULT:      -9.0      1.642      9.815
REMARK  5 active torsions:
REMARK  status: ('A' for Active; 'I' for Inactive)
REMARK    1  A    between atoms: C13_17  and  O2_2 
REMARK    2  A    between atoms: C8_12  and  O2_2 
REMARK    3  A    between atoms: C3_7  and  C5_9 
REMARK    4  A    between atoms: C13_17  and  C14_18 
REMARK    5  A    between atoms: C14_18  and  C15_19 
ROOT
HETATM    1  O1  UNK     1      17.282   6.580  34.430  1.00  0.00    -0.274 OA
HETATM    2  O3  UNK     1      16.535   7.948  36.096  1.00  0.00    -0.259 OA
HETATM    3  C1  UNK     1      17.479   7.427  32.164  1.00  0.00    -0.001 A 
HETATM    4  C2  UNK     1      17.622   6.390  33.078  1.00  0.00     0.092 A 
HETATM    5  C3  UNK     1      16.648   8.897  33.916  1.00  0.00     0.051 A 
HETATM    6  C4  UNK     1      16.969   8.707  32.628  1.00  0.00     0.032 A 
HETATM    7  C6  UNK     1      18.102   5.138  32.700  1.00  0.00     0.075 A 
HETATM    8  C7  UNK     1      17.828   7.202  30.830  1.00  0.00     0.017 A 
HETATM    9  C8  UNK     1      18.448   4.922  31.368  1.00  0.00     0.072 A 
HETATM   10  C9  UNK     1      18.312   5.952  30.434  1.00  0.00     0.038 A 
HETATM   11  C10 UNK     1      16.805   7.798  34.908  1.00  0.00     0.299 A 
ENDROOT
BRANCH   9  12
HETATM   12  O2  UNK     1      18.919   3.707  30.976  1.00  0.00    -0.344 OA
BRANCH  12  13
HETATM   13  C13 UNK     1      17.952   2.702  30.674  1.00  0.00     0.259 C 
BRANCH  13  14
HETATM   14  C14 UNK     1      18.412   1.879  29.486  1.00  0.00     0.183 C 
HETATM   15  O4  UNK     1      18.156   2.212  28.333  1.00  0.00    -0.290 OA
BRANCH  14  16
HETATM   16  C15 UNK     1      19.192   0.632  29.737  1.00  0.00     0.012 A 
HETATM   17  C19 UNK     1      19.682  -0.069  28.658  1.00  0.00     0.015 A 
HETATM   18  C21 UNK     1      20.411  -1.234  28.894  1.00  0.00     0.001 A 
HETATM   19  C23 UNK     1      20.632  -1.668  30.201  1.00  0.00     0.000 A 
HETATM   20  C22 UNK     1      20.122  -0.935  31.274  1.00  0.00     0.001 A 
HETATM   21  C20 UNK     1      19.393   0.230  31.039  1.00  0.00     0.015 A 
ENDBRANCH  14  16
ENDBRANCH  13  14
ENDBRANCH  12  13
ENDBRANCH   9  12
BRANCH   5  22
HETATM   22  C5  UNK     1      16.119  10.209  34.336  1.00  0.00    -0.020 A 
HETATM   23  C11 UNK     1      16.961  11.320  34.370  1.00  0.00     0.012 A 
HETATM   24  C16 UNK     1      16.461  12.561  34.767  1.00  0.00     0.001 A 
HETATM   25  C18 UNK     1      15.121  12.690  35.129  1.00  0.00     0.000 A 
HETATM   26  C17 UNK     1      14.279  11.577  35.093  1.00  0.00     0.001 A 
HETATM   27  C12 UNK     1      14.778  10.337  34.696  1.00  0.00     0.012 A 
ENDBRANCH   5  22
TORSDOF 5
ENDMDL
MODEL 9
REMARK VINA RESULT:      -8.8      5.536      7.465
REMARK  5 active torsions:
REMARK  status: ('A' for Active; 'I' for Inactive)
REMARK    1  A    between atoms: C13_17  and  O2_2 
REMARK    2  A    between atoms: C8_12  and  O2_2 
REMARK    3  A    between atoms: C3_7  and  C5_9 
REMARK    4  A    between atoms: C13_17  and  C14_18 
REMARK    5  A    between atoms: C14_18  and  C15_19 
ROOT
HETATM    1  O1  UNK     1      19.611  -1.478  34.606  1.00  0.00    -0.274 OA
HETATM    2  O3  UNK     1      20.568  -3.524  34.290  1.00  0.00    -0.259 OA
HETATM    3  C1  UNK     1      18.555  -0.948  36.726  1.00  0.00    -0.001 A 
HETATM    4  C2  UNK     1      18.926  -0.575  35.440  1.00  0.00     0.092 A 
HETATM    5  C3  UNK     1      19.539  -3.150  36.403  1.00  0.00     0.051 A 
HETATM    6  C4  UNK     1      18.881  -2.286  37.191  1.00  0.00     0.032 A 
HETATM    7  C6  UNK     1      18.643   0.691  34.931  1.00  0.00     0.075 A 
HETATM    8  C7  UNK     1      17.878  -0.025  37.527  1.00  0.00     0.017 A 
HETATM    9  C8  UNK     1      17.967   1.606  35.736  1.00  0.00     0.072 A 
HETATM   10  C9  UNK     1      17.586   1.249  37.032  1.00  0.00     0.038 A 
HETATM   11  C10 UNK     1      19.951  -2.761  35.027  1.00  0.00     0.299 A 
ENDROOT
BRANCH   9  12
HETATM   12  O2  UNK     1      17.679   2.848  35.260  1.00  0.00    -0.344 OA
BRANCH  12  13
HETATM   13  C13 UNK     1      18.710   3.524  34.543  1.00  0.00     0.259 C 
BRANCH  13  14
HETATM   14  C14 UNK     1      18.133   4.199  33.314  1.00  0.00     0.183 C 
HETATM   15  O4  UNK     1      17.702   3.550  32.365  1.00  0.00    -0.290 OA
BRANCH  14  16
HETATM   16  C15 UNK     1      18.095   5.689  33.266  1.00  0.00     0.012 A 
HETATM   17  C19 UNK     1      19.074   6.396  33.927  1.00  0.00     0.015 A 
HETATM   18  C21 UNK     1      19.038   7.790  33.882  1.00  0.00     0.001 A 
HETATM   19  C23 UNK     1      18.025   8.440  33.178  1.00  0.00     0.000 A 
HETATM   20  C22 UNK     1      17.047   7.695  32.518  1.00  0.00     0.001 A 
HETATM   21  C20 UNK     1      17.082   6.302  32.563  1.00  0.00     0.015 A 
ENDBRANCH  14  16
ENDBRANCH  13  14
ENDBRANCH  12  13
ENDBRANCH   9  12
BRANCH   5  22
HETATM   22  C5  UNK     1      19.833  -4.503  36.914  1.00  0.00    -0.020 A 
HETATM   23  C11 UNK     1      18.947  -5.550  36.663  1.00  0.00     0.012 A 
HETATM   24  C16 UNK     1      19.225  -6.829  37.147  1.00  0.00     0.001 A 
HETATM   25  C18 UNK     1      20.388  -7.060  37.881  1.00  0.00     0.000 A 
HETATM   26  C17 UNK     1      21.274  -6.011  38.131  1.00  0.00     0.001 A 
HETATM   27  C12 UNK     1      20.997  -4.733  37.648  1.00  0.00     0.012 A 
ENDBRANCH   5  22
TORSDOF 5
ENDMDL
MODEL 10
REMARK VINA RESULT:      -8.8      5.452      7.910
REMARK  5 active torsions:
REMARK  status: ('A' for Active; 'I' for Inactive)
REMARK    1  A    between atoms: C13_17  and  O2_2 
REMARK    2  A    between atoms: C8_12  and  O2_2 
REMARK    3  A    between atoms: C3_7  and  C5_9 
REMARK    4  A    between atoms: C13_17  and  C14_18 
REMARK    5  A    between atoms: C14_18  and  C15_19 
ROOT
HETATM    1  O1  UNK     1      19.630  -1.367  34.539  1.00  0.00    -0.274 OA
HETATM    2  O3  UNK     1      20.614  -3.407  34.267  1.00  0.00    -0.259 OA
HETATM    3  C1  UNK     1      18.522  -0.824  36.629  1.00  0.00    -0.001 A 
HETATM    4  C2  UNK     1      18.918  -0.462  35.347  1.00  0.00     0.092 A 
HETATM    5  C3  UNK     1      19.535  -3.020  36.353  1.00  0.00     0.051 A 
HETATM    6  C4  UNK     1      18.852  -2.154  37.116  1.00  0.00     0.032 A 
HETATM    7  C6  UNK     1      18.633   0.795  34.818  1.00  0.00     0.075 A 
HETATM    8  C7  UNK     1      17.818   0.101  37.404  1.00  0.00     0.017 A 
HETATM    9  C8  UNK     1      17.931   1.712  35.597  1.00  0.00     0.072 A 
HETATM   10  C9  UNK     1      17.524   1.366  36.888  1.00  0.00     0.038 A 
HETATM   11  C10 UNK     1      19.973  -2.642  34.982  1.00  0.00     0.299 A 
ENDROOT
BRANCH   9  12
HETATM   12  O2  UNK     1      17.640   2.946  35.100  1.00  0.00    -0.344 OA
BRANCH  12  13
HETATM   13  C13 UNK     1      18.722   3.694  34.548  1.00  0.00     0.259 C 
BRANCH  13  14
HETATM   14  C14 UNK     1      18.187   4.809  33.670  1.00  0.00     0.183 C 
HETATM   15  O4  UNK     1      17.488   5.709  34.126  1.00  0.00    -0.290 OA
BRANCH  14  16
HETATM   16  C15 UNK     1      18.523   4.801  32.217  1.00  0.00     0.012 A 
HETATM   17  C19 UNK     1      18.973   5.966  31.637  1.00  0.00     0.015 A 
HETATM   18  C21 UNK     1      19.288   5.958  30.278  1.00  0.00     0.001 A 
HETATM   19  C23 UNK     1      19.144   4.786  29.535  1.00  0.00     0.000 A 
HETATM   20  C22 UNK     1      18.686   3.621  30.151  1.00  0.00     0.001 A 
HETATM   21  C20 UNK     1      18.371   3.629  31.510  1.00  0.00     0.015 A 
ENDBRANCH  14  16
ENDBRANCH  13  14
ENDBRANCH  12  13
ENDBRANCH   9  12
BRANCH   5  22
HETATM   22  C5  UNK     1      19.831  -4.363  36.886  1.00  0.00    -0.020 A 
HETATM   23  C11 UNK     1      18.957  -5.421  36.633  1.00  0.00     0.012 A 
HETATM   24  C16 UNK     1      19.238  -6.691  37.137  1.00  0.00     0.001 A 
HETATM   25  C18 UNK     1      20.390  -6.903  37.893  1.00  0.00     0.000 A 
HETATM   26  C17 UNK     1      21.264  -5.845  38.144  1.00  0.00     0.001 A 
HETATM   27  C12 UNK     1      20.985  -4.575  37.641  1.00  0.00     0.012 A 
ENDBRANCH   5  22
TORSDOF 5
ENDMDL
