MODEL 1
REMARK VINA RESULT:      -7.6      0.000      0.000
REMARK  3 active torsions:
REMARK  status: ('A' for Active; 'I' for Inactive)
REMARK    1  A    between atoms: C8_12  and  O2_2 
REMARK    2  A    between atoms: C12_16  and  O4_4 
REMARK    3  A    between atoms: C1_5  and  C3_7 
ROOT
HETATM    1  O1  UNK     1      19.371   8.164  33.389  1.00  0.00    -0.313 OA
HETATM    2  O3  UNK     1      16.014   6.510  31.792  1.00  0.00    -0.286 OA
HETATM    3  C1  UNK     1      18.347   6.312  32.218  1.00  0.00     0.057 A 
HETATM    4  C2  UNK     1      16.997   8.315  32.933  1.00  0.00     0.049 A 
HETATM    5  C4  UNK     1      19.418   6.922  32.769  1.00  0.00     0.065 A 
HETATM    6  C5  UNK     1      17.028   7.004  32.272  1.00  0.00     0.198 A 
HETATM    7  C6  UNK     1      18.176   8.828  33.460  1.00  0.00     0.092 A 
HETATM    8  C7  UNK     1      15.805   9.039  33.035  1.00  0.00     0.021 A 
HETATM    9  C9  UNK     1      18.176  10.071  34.094  1.00  0.00     0.075 A 
HETATM   10  C11 UNK     1      20.809   6.352  32.793  1.00  0.00     0.077 C 
HETATM   11  C12 UNK     1      16.989  10.797  34.199  1.00  0.00     0.070 A 
HETATM   12  C13 UNK     1      15.805  10.282  33.669  1.00  0.00     0.038 A 
ENDROOT
BRANCH   3  13
HETATM   13  C3  UNK     1      18.442   5.007  31.577  1.00  0.00     0.014 A 
HETATM   14  C10 UNK     1      18.740   4.944  30.216  1.00  0.00     0.015 A 
HETATM   15  C15 UNK     1      18.836   3.707  29.580  1.00  0.00     0.001 A 
HETATM   16  C16 UNK     1      18.635   2.531  30.305  1.00  0.00     0.003 A 
HETATM   17  C14 UNK     1      18.338   2.595  31.667  1.00  0.00     0.037 A 
HETATM   18  C8  UNK     1      18.241   3.833  32.302  1.00  0.00     0.079 A 
BRANCH  18  19
HETATM   19  O2  UNK     1      17.951   3.866  33.635  1.00  0.00    -0.355 OA
HETATM   20  C17 UNK     1      18.235   2.689  34.388  1.00  0.00     0.210 C 
ENDBRANCH  18  19
ENDBRANCH   3  13
BRANCH  11  21
HETATM   21  O4  UNK     1      16.985  12.010  34.817  1.00  0.00    -0.356 OA
HETATM   22  C18 UNK     1      18.134  12.837  34.631  1.00  0.00     0.210 C 
ENDBRANCH  11  21
TORSDOF 3
ENDMDL
MODEL 2
REMARK VINA RESULT:      -7.6     22.568     25.065
REMARK  3 active torsions:
REMARK  status: ('A' for Active; 'I' for Inactive)
REMARK    1  A    between atoms: C8_12  and  O2_2 
REMARK    2  A    between atoms: C12_16  and  O4_4 
REMARK    3  A    between atoms: C1_5  and  C3_7 
ROOT
HETATM    1  O1  UNK     1      11.225   8.150   9.969  1.00  0.00    -0.313 OA
HETATM    2  O3  UNK     1      13.800   7.435   6.901  1.00  0.00    -0.286 OA
HETATM    3  C1  UNK     1      13.434   8.439   9.027  1.00  0.00     0.057 A 
HETATM    4  C2  UNK     1      11.651   7.144   7.807  1.00  0.00     0.049 A 
HETATM    5  C4  UNK     1      12.525   8.637  10.006  1.00  0.00     0.065 A 
HETATM    6  C5  UNK     1      13.028   7.653   7.827  1.00  0.00     0.198 A 
HETATM    7  C6  UNK     1      10.818   7.420   8.885  1.00  0.00     0.092 A 
HETATM    8  C7  UNK     1      11.179   6.393   6.726  1.00  0.00     0.021 A 
HETATM    9  C9  UNK     1       9.504   6.949   8.892  1.00  0.00     0.075 A 
HETATM   10  C11 UNK     1      12.784   9.407  11.271  1.00  0.00     0.077 C 
HETATM   11  C12 UNK     1       9.030   6.199   7.815  1.00  0.00     0.070 A 
HETATM   12  C13 UNK     1       9.866   5.922   6.733  1.00  0.00     0.038 A 
ENDROOT
BRANCH   3  13
HETATM   13  C3  UNK     1      14.789   8.970   9.108  1.00  0.00     0.014 A 
HETATM   14  C10 UNK     1      15.065  10.207   8.526  1.00  0.00     0.015 A 
HETATM   15  C15 UNK     1      16.354  10.735   8.590  1.00  0.00     0.001 A 
HETATM   16  C16 UNK     1      17.368  10.025   9.235  1.00  0.00     0.003 A 
HETATM   17  C14 UNK     1      17.091   8.788   9.818  1.00  0.00     0.037 A 
HETATM   18  C8  UNK     1      15.802   8.260   9.753  1.00  0.00     0.079 A 
BRANCH  18  19
HETATM   19  O2  UNK     1      15.558   7.049  10.331  1.00  0.00    -0.355 OA
HETATM   20  C17 UNK     1      16.043   5.896   9.645  1.00  0.00     0.210 C 
ENDBRANCH  18  19
ENDBRANCH   3  13
BRANCH  11  21
HETATM   21  O4  UNK     1       7.749   5.738   7.820  1.00  0.00    -0.356 OA
HETATM   22  C18 UNK     1       7.341   4.965   8.948  1.00  0.00     0.210 C 
ENDBRANCH  11  21
TORSDOF 3
ENDMDL
MODEL 3
REMARK VINA RESULT:      -7.5      2.488      7.532
REMARK  3 active torsions:
REMARK  status: ('A' for Active; 'I' for Inactive)
REMARK    1  A    between atoms: C8_12  and  O2_2 
REMARK    2  A    between atoms: C12_16  and  O4_4 
REMARK    3  A    between atoms: C1_5  and  C3_7 
ROOT
HETATM    1  O1  UNK     1      18.997   3.739  29.886  1.00  0.00    -0.313 OA
HETATM    2  O3  UNK     1      17.934   3.103  33.761  1.00  0.00    -0.286 OA
HETATM    3  C1  UNK     1      18.239   4.662  31.989  1.00  0.00     0.057 A 
HETATM    4  C2  UNK     1      18.668   2.194  31.722  1.00  0.00     0.049 A 
HETATM    5  C4  UNK     1      18.606   4.797  30.696  1.00  0.00     0.065 A 
HETATM    6  C5  UNK     1      18.253   3.300  32.595  1.00  0.00     0.198 A 
HETATM    7  C6  UNK     1      19.020   2.473  30.407  1.00  0.00     0.092 A 
HETATM    8  C7  UNK     1      18.710   0.880  32.200  1.00  0.00     0.021 A 
HETATM    9  C9  UNK     1      19.417   1.442  29.555  1.00  0.00     0.075 A 
HETATM   10  C11 UNK     1      18.642   6.100  29.949  1.00  0.00     0.077 C 
HETATM   11  C12 UNK     1      19.460   0.130  30.028  1.00  0.00     0.070 A 
HETATM   12  C13 UNK     1      19.108  -0.151  31.348  1.00  0.00     0.038 A 
ENDROOT
BRANCH   3  13
HETATM   13  C3  UNK     1      17.834   5.801  32.803  1.00  0.00     0.014 A 
HETATM   14  C10 UNK     1      16.524   6.269  32.704  1.00  0.00     0.015 A 
HETATM   15  C15 UNK     1      16.113   7.357  33.474  1.00  0.00     0.001 A 
HETATM   16  C16 UNK     1      17.012   7.978  34.342  1.00  0.00     0.003 A 
HETATM   17  C14 UNK     1      18.323   7.508  34.440  1.00  0.00     0.037 A 
HETATM   18  C8  UNK     1      18.733   6.420  33.671  1.00  0.00     0.079 A 
BRANCH  18  19
HETATM   19  O2  UNK     1      20.019   5.981  33.787  1.00  0.00    -0.355 OA
HETATM   20  C17 UNK     1      20.992   6.599  32.946  1.00  0.00     0.210 C 
ENDBRANCH  18  19
ENDBRANCH   3  13
BRANCH  11  21
HETATM   21  O4  UNK     1      19.848  -0.879  29.199  1.00  0.00    -0.356 OA
HETATM   22  C18 UNK     1      20.444  -2.025  29.806  1.00  0.00     0.210 C 
ENDBRANCH  11  21
TORSDOF 3
ENDMDL
MODEL 4
REMARK VINA RESULT:      -7.4      1.020      1.972
REMARK  3 active torsions:
REMARK  status: ('A' for Active; 'I' for Inactive)
REMARK    1  A    between atoms: C8_12  and  O2_2 
REMARK    2  A    between atoms: C12_16  and  O4_4 
REMARK    3  A    between atoms: C1_5  and  C3_7 
ROOT
HETATM    1  O1  UNK     1      19.244   8.449  33.653  1.00  0.00    -0.313 OA
HETATM    2  O3  UNK     1      15.848   6.551  32.463  1.00  0.00    -0.286 OA
HETATM    3  C1  UNK     1      18.198   6.432  32.825  1.00  0.00     0.057 A 
HETATM    4  C2  UNK     1      16.853   8.516  33.271  1.00  0.00     0.049 A 
HETATM    5  C4  UNK     1      19.282   7.126  33.232  1.00  0.00     0.065 A 
HETATM    6  C5  UNK     1      16.874   7.118  32.820  1.00  0.00     0.198 A 
HETATM    7  C6  UNK     1      18.046   9.111  33.666  1.00  0.00     0.092 A 
HETATM    8  C7  UNK     1      15.658   9.241  33.304  1.00  0.00     0.021 A 
HETATM    9  C9  UNK     1      18.055  10.437  34.099  1.00  0.00     0.075 A 
HETATM   10  C11 UNK     1      20.679   6.573  33.292  1.00  0.00     0.077 C 
HETATM   11  C12 UNK     1      16.865  11.164  34.134  1.00  0.00     0.070 A 
HETATM   12  C13 UNK     1      15.669  10.568  33.737  1.00  0.00     0.038 A 
ENDROOT
BRANCH   3  13
HETATM   13  C3  UNK     1      18.283   5.044  32.391  1.00  0.00     0.014 A 
HETATM   14  C10 UNK     1      18.088   4.031  33.330  1.00  0.00     0.015 A 
HETATM   15  C15 UNK     1      18.164   2.694  32.938  1.00  0.00     0.001 A 
HETATM   16  C16 UNK     1      18.437   2.370  31.609  1.00  0.00     0.003 A 
HETATM   17  C14 UNK     1      18.631   3.385  30.670  1.00  0.00     0.037 A 
HETATM   18  C8  UNK     1      18.555   4.721  31.062  1.00  0.00     0.079 A 
BRANCH  18  19
HETATM   19  O2  UNK     1      18.748   5.692  30.124  1.00  0.00    -0.355 OA
HETATM   20  C17 UNK     1      20.096   5.968  29.749  1.00  0.00     0.210 C 
ENDBRANCH  18  19
ENDBRANCH   3  13
BRANCH  11  21
HETATM   21  O4  UNK     1      16.872  12.459  34.556  1.00  0.00    -0.356 OA
HETATM   22  C18 UNK     1      18.124  12.999  34.975  1.00  0.00     0.210 C 
ENDBRANCH  11  21
TORSDOF 3
ENDMDL
MODEL 5
REMARK VINA RESULT:      -7.4      1.184      1.404
REMARK  3 active torsions:
REMARK  status: ('A' for Active; 'I' for Inactive)
REMARK    1  A    between atoms: C8_12  and  O2_2 
REMARK    2  A    between atoms: C12_16  and  O4_4 
REMARK    3  A    between atoms: C1_5  and  C3_7 
ROOT
HETATM    1  O1  UNK     1      18.255   9.017  33.998  1.00  0.00    -0.313 OA
HETATM    2  O3  UNK     1      15.640   7.428  31.317  1.00  0.00    -0.286 OA
HETATM    3  C1  UNK     1      17.783   7.315  32.346  1.00  0.00     0.057 A 
HETATM    4  C2  UNK     1      16.086   9.085  32.923  1.00  0.00     0.049 A 
HETATM    5  C4  UNK     1      18.598   7.897  33.252  1.00  0.00     0.065 A 
HETATM    6  C5  UNK     1      16.431   7.903  32.123  1.00  0.00     0.198 A 
HETATM    7  C6  UNK     1      17.021   9.582  33.823  1.00  0.00     0.092 A 
HETATM    8  C7  UNK     1      14.840   9.705  32.786  1.00  0.00     0.021 A 
HETATM    9  C9  UNK     1      16.720  10.705  34.596  1.00  0.00     0.075 A 
HETATM   10  C11 UNK     1      19.984   7.421  33.585  1.00  0.00     0.077 C 
HETATM   11  C12 UNK     1      15.478  11.326  34.463  1.00  0.00     0.070 A 
HETATM   12  C13 UNK     1      14.539  10.827  33.559  1.00  0.00     0.038 A 
ENDROOT
BRANCH   3  13
HETATM   13  C3  UNK     1      18.183   6.138  31.585  1.00  0.00     0.014 A 
HETATM   14  C10 UNK     1      18.697   6.310  30.300  1.00  0.00     0.015 A 
HETATM   15  C15 UNK     1      19.087   5.199  29.552  1.00  0.00     0.001 A 
HETATM   16  C16 UNK     1      18.963   3.917  30.088  1.00  0.00     0.003 A 
HETATM   17  C14 UNK     1      18.449   3.747  31.374  1.00  0.00     0.037 A 
HETATM   18  C8  UNK     1      18.059   4.857  32.122  1.00  0.00     0.079 A 
BRANCH  18  19
HETATM   19  O2  UNK     1      17.561   4.663  33.377  1.00  0.00    -0.355 OA
HETATM   20  C17 UNK     1      18.285   3.778  34.229  1.00  0.00     0.210 C 
ENDBRANCH  18  19
ENDBRANCH   3  13
BRANCH  11  21
HETATM   21  O4  UNK     1      15.181  12.421  35.216  1.00  0.00    -0.356 OA
HETATM   22  C18 UNK     1      16.273  13.099  35.834  1.00  0.00     0.210 C 
ENDBRANCH  11  21
TORSDOF 3
ENDMDL
MODEL 6
REMARK VINA RESULT:      -7.4      2.360      7.418
REMARK  3 active torsions:
REMARK  status: ('A' for Active; 'I' for Inactive)
REMARK    1  A    between atoms: C8_12  and  O2_2 
REMARK    2  A    between atoms: C12_16  and  O4_4 
REMARK    3  A    between atoms: C1_5  and  C3_7 
ROOT
HETATM    1  O1  UNK     1      18.903   4.002  30.094  1.00  0.00    -0.313 OA
HETATM    2  O3  UNK     1      18.083   3.362  34.027  1.00  0.00    -0.286 OA
HETATM    3  C1  UNK     1      18.325   4.928  32.252  1.00  0.00     0.057 A 
HETATM    4  C2  UNK     1      18.642   2.449  31.934  1.00  0.00     0.049 A 
HETATM    5  C4  UNK     1      18.608   5.064  30.938  1.00  0.00     0.065 A 
HETATM    6  C5  UNK     1      18.330   3.560  32.843  1.00  0.00     0.198 A 
HETATM    7  C6  UNK     1      18.913   2.731  30.600  1.00  0.00     0.092 A 
HETATM    8  C7  UNK     1      18.668   1.130  32.396  1.00  0.00     0.021 A 
HETATM    9  C9  UNK     1      19.213   1.695  29.714  1.00  0.00     0.075 A 
HETATM   10  C11 UNK     1      18.642   6.374  30.202  1.00  0.00     0.077 C 
HETATM   11  C12 UNK     1      19.239   0.377  30.171  1.00  0.00     0.070 A 
HETATM   12  C13 UNK     1      18.967   0.095  31.509  1.00  0.00     0.038 A 
ENDROOT
BRANCH   3  13
HETATM   13  C3  UNK     1      18.020   6.072  33.102  1.00  0.00     0.014 A 
HETATM   14  C10 UNK     1      19.022   6.588  33.924  1.00  0.00     0.015 A 
HETATM   15  C15 UNK     1      18.753   7.682  34.746  1.00  0.00     0.001 A 
HETATM   16  C16 UNK     1      17.483   8.259  34.748  1.00  0.00     0.003 A 
HETATM   17  C14 UNK     1      16.481   7.742  33.925  1.00  0.00     0.037 A 
HETATM   18  C8  UNK     1      16.750   6.648  33.103  1.00  0.00     0.079 A 
BRANCH  18  19
HETATM   19  O2  UNK     1      15.753   6.163  32.308  1.00  0.00    -0.355 OA
HETATM   20  C17 UNK     1      14.660   7.039  32.036  1.00  0.00     0.210 C 
ENDBRANCH  18  19
ENDBRANCH   3  13
BRANCH  11  21
HETATM   21  O4  UNK     1      19.532  -0.636  29.308  1.00  0.00    -0.356 OA
HETATM   22  C18 UNK     1      20.903  -0.814  28.957  1.00  0.00     0.210 C 
ENDBRANCH  11  21
TORSDOF 3
ENDMDL
MODEL 7
REMARK VINA RESULT:      -7.1      1.496      3.038
REMARK  3 active torsions:
REMARK  status: ('A' for Active; 'I' for Inactive)
REMARK    1  A    between atoms: C8_12  and  O2_2 
REMARK    2  A    between atoms: C12_16  and  O4_4 
REMARK    3  A    between atoms: C1_5  and  C3_7 
ROOT
HETATM    1  O1  UNK     1      16.887   8.370  33.043  1.00  0.00    -0.313 OA
HETATM    2  O3  UNK     1      20.431   6.438  33.560  1.00  0.00    -0.286 OA
HETATM    3  C1  UNK     1      18.168   6.330  32.829  1.00  0.00     0.057 A 
HETATM    4  C2  UNK     1      19.197   8.428  33.770  1.00  0.00     0.049 A 
HETATM    5  C4  UNK     1      17.025   7.034  32.688  1.00  0.00     0.065 A 
HETATM    6  C5  UNK     1      19.361   7.016  33.402  1.00  0.00     0.198 A 
HETATM    7  C6  UNK     1      17.962   9.034  33.569  1.00  0.00     0.092 A 
HETATM    8  C7  UNK     1      20.260   9.157  34.312  1.00  0.00     0.021 A 
HETATM    9  C9  UNK     1      17.778  10.375  33.909  1.00  0.00     0.075 A 
HETATM   10  C11 UNK     1      15.744   6.482  32.128  1.00  0.00     0.077 C 
HETATM   11  C12 UNK     1      18.836  11.105  34.450  1.00  0.00     0.070 A 
HETATM   12  C13 UNK     1      20.075  10.497  34.652  1.00  0.00     0.038 A 
ENDROOT
BRANCH   3  13
HETATM   13  C3  UNK     1      18.269   4.928  32.442  1.00  0.00     0.014 A 
HETATM   14  C10 UNK     1      18.067   3.945  33.411  1.00  0.00     0.015 A 
HETATM   15  C15 UNK     1      18.158   2.597  33.064  1.00  0.00     0.001 A 
HETATM   16  C16 UNK     1      18.451   2.232  31.750  1.00  0.00     0.003 A 
HETATM   17  C14 UNK     1      18.652   3.216  30.782  1.00  0.00     0.037 A 
HETATM   18  C8  UNK     1      18.562   4.564  31.128  1.00  0.00     0.079 A 
BRANCH  18  19
HETATM   19  O2  UNK     1      18.762   5.506  30.162  1.00  0.00    -0.355 OA
HETATM   20  C17 UNK     1      20.109   5.909  29.923  1.00  0.00     0.210 C 
ENDBRANCH  18  19
ENDBRANCH   3  13
BRANCH  11  21
HETATM   21  O4  UNK     1      18.659  12.414  34.783  1.00  0.00    -0.356 OA
HETATM   22  C18 UNK     1      18.008  13.246  33.823  1.00  0.00     0.210 C 
ENDBRANCH  11  21
TORSDOF 3
ENDMDL
MODEL 8
REMARK VINA RESULT:      -7.0     15.228     18.159
REMARK  3 active torsions:
REMARK  status: ('A' for Active; 'I' for Inactive)
REMARK    1  A    between atoms: C8_12  and  O2_2 
REMARK    2  A    between atoms: C12_16  and  O4_4 
REMARK    3  A    between atoms: C1_5  and  C3_7 
ROOT
HETATM    1  O1  UNK     1      24.424 -10.376  36.360  1.00  0.00    -0.313 OA
HETATM    2  O3  UNK     1      22.907  -7.112  38.257  1.00  0.00    -0.286 OA
HETATM    3  C1  UNK     1      22.530  -8.927  36.764  1.00  0.00     0.057 A 
HETATM    4  C2  UNK     1      24.754  -8.515  37.875  1.00  0.00     0.049 A 
HETATM    5  C4  UNK     1      23.102  -9.995  36.168  1.00  0.00     0.065 A 
HETATM    6  C5  UNK     1      23.359  -8.096  37.684  1.00  0.00     0.198 A 
HETATM    7  C6  UNK     1      25.215  -9.639  37.200  1.00  0.00     0.092 A 
HETATM    8  C7  UNK     1      25.608  -7.801  38.721  1.00  0.00     0.021 A 
HETATM    9  C9  UNK     1      26.535 -10.060  37.363  1.00  0.00     0.075 A 
HETATM   10  C11 UNK     1      22.398 -10.924  35.219  1.00  0.00     0.077 C 
HETATM   11  C12 UNK     1      27.390  -9.351  38.207  1.00  0.00     0.070 A 
HETATM   12  C13 UNK     1      26.928  -8.222  38.884  1.00  0.00     0.038 A 
ENDROOT
BRANCH   3  13
HETATM   13  C3  UNK     1      21.138  -8.563  36.535  1.00  0.00     0.014 A 
HETATM   14  C10 UNK     1      20.831  -7.692  35.490  1.00  0.00     0.015 A 
HETATM   15  C15 UNK     1      19.506  -7.330  35.251  1.00  0.00     0.001 A 
HETATM   16  C16 UNK     1      18.487  -7.838  36.057  1.00  0.00     0.003 A 
HETATM   17  C14 UNK     1      18.794  -8.710  37.102  1.00  0.00     0.037 A 
HETATM   18  C8  UNK     1      20.120  -9.072  37.341  1.00  0.00     0.079 A 
BRANCH  18  19
HETATM   19  O2  UNK     1      20.393  -9.927  38.368  1.00  0.00    -0.355 OA
HETATM   20  C17 UNK     1      19.401 -10.904  38.676  1.00  0.00     0.210 C 
ENDBRANCH  18  19
ENDBRANCH   3  13
BRANCH  11  21
HETATM   21  O4  UNK     1      28.680  -9.759  38.368  1.00  0.00    -0.356 OA
HETATM   22  C18 UNK     1      29.689  -9.002  37.702  1.00  0.00     0.210 C 
ENDBRANCH  11  21
TORSDOF 3
ENDMDL
MODEL 9
REMARK VINA RESULT:      -7.0      2.609      7.798
REMARK  3 active torsions:
REMARK  status: ('A' for Active; 'I' for Inactive)
REMARK    1  A    between atoms: C8_12  and  O2_2 
REMARK    2  A    between atoms: C12_16  and  O4_4 
REMARK    3  A    between atoms: C1_5  and  C3_7 
ROOT
HETATM    1  O1  UNK     1      18.724   1.653  32.889  1.00  0.00    -0.313 OA
HETATM    2  O3  UNK     1      18.671   4.305  29.804  1.00  0.00    -0.286 OA
HETATM    3  C1  UNK     1      18.387   3.927  32.136  1.00  0.00     0.057 A 
HETATM    4  C2  UNK     1      19.005   2.093  30.523  1.00  0.00     0.049 A 
HETATM    5  C4  UNK     1      18.422   2.991  33.109  1.00  0.00     0.065 A 
HETATM    6  C5  UNK     1      18.686   3.511  30.736  1.00  0.00     0.198 A 
HETATM    7  C6  UNK     1      19.008   1.235  31.617  1.00  0.00     0.092 A 
HETATM    8  C7  UNK     1      19.303   1.608  29.246  1.00  0.00     0.021 A 
HETATM    9  C9  UNK     1      19.308  -0.117  31.444  1.00  0.00     0.075 A 
HETATM   10  C11 UNK     1      18.144   3.257  34.562  1.00  0.00     0.077 C 
HETATM   11  C12 UNK     1      19.606  -0.604  30.171  1.00  0.00     0.070 A 
HETATM   12  C13 UNK     1      19.602   0.257  29.074  1.00  0.00     0.038 A 
ENDROOT
BRANCH   3  13
HETATM   13  C3  UNK     1      18.065   5.321  32.412  1.00  0.00     0.014 A 
HETATM   14  C10 UNK     1      16.749   5.755  32.250  1.00  0.00     0.015 A 
HETATM   15  C15 UNK     1      16.418   7.085  32.509  1.00  0.00     0.001 A 
HETATM   16  C16 UNK     1      17.401   7.981  32.928  1.00  0.00     0.003 A 
HETATM   17  C14 UNK     1      18.717   7.546  33.091  1.00  0.00     0.037 A 
HETATM   18  C8  UNK     1      19.049   6.216  32.832  1.00  0.00     0.079 A 
BRANCH  18  19
HETATM   19  O2  UNK     1      20.342   5.818  33.000  1.00  0.00    -0.355 OA
HETATM   20  C17 UNK     1      21.259   6.144  31.957  1.00  0.00     0.210 C 
ENDBRANCH  18  19
ENDBRANCH   3  13
BRANCH  11  21
HETATM   21  O4  UNK     1      19.899  -1.923  29.999  1.00  0.00    -0.356 OA
HETATM   22  C18 UNK     1      20.626  -2.568  31.043  1.00  0.00     0.210 C 
ENDBRANCH  11  21
TORSDOF 3
ENDMDL
MODEL 10
REMARK VINA RESULT:      -7.0      3.937      6.916
REMARK  3 active torsions:
REMARK  status: ('A' for Active; 'I' for Inactive)
REMARK    1  A    between atoms: C8_12  and  O2_2 
REMARK    2  A    between atoms: C12_16  and  O4_4 
REMARK    3  A    between atoms: C1_5  and  C3_7 
ROOT
HETATM    1  O1  UNK     1      18.709   1.017  31.746  1.00  0.00    -0.313 OA
HETATM    2  O3  UNK     1      18.198   2.191  35.608  1.00  0.00    -0.286 OA
HETATM    3  C1  UNK     1      18.513   0.397  34.076  1.00  0.00     0.057 A 
HETATM    4  C2  UNK     1      18.390   2.806  33.348  1.00  0.00     0.049 A 
HETATM    5  C4  UNK     1      18.678   0.082  32.773  1.00  0.00     0.065 A 
HETATM    6  C5  UNK     1      18.352   1.832  34.447  1.00  0.00     0.198 A 
HETATM    7  C6  UNK     1      18.568   2.344  32.049  1.00  0.00     0.092 A 
HETATM    8  C7  UNK     1      18.250   4.175  33.597  1.00  0.00     0.021 A 
HETATM    9  C9  UNK     1      18.608   3.247  30.986  1.00  0.00     0.075 A 
HETATM   10  C11 UNK     1      18.852  -1.315  32.246  1.00  0.00     0.077 C 
HETATM   11  C12 UNK     1      18.469   4.614  31.230  1.00  0.00     0.070 A 
HETATM   12  C13 UNK     1      18.290   5.077  32.533  1.00  0.00     0.038 A 
ENDROOT
BRANCH   3  13
HETATM   13  C3  UNK     1      18.487  -0.617  35.122  1.00  0.00     0.014 A 
HETATM   14  C10 UNK     1      19.695  -1.127  35.597  1.00  0.00     0.015 A 
HETATM   15  C15 UNK     1      19.695  -2.098  36.599  1.00  0.00     0.001 A 
HETATM   16  C16 UNK     1      18.488  -2.560  37.124  1.00  0.00     0.003 A 
HETATM   17  C14 UNK     1      17.280  -2.049  36.648  1.00  0.00     0.037 A 
HETATM   18  C8  UNK     1      17.280  -1.078  35.647  1.00  0.00     0.079 A 
BRANCH  18  19
HETATM   19  O2  UNK     1      16.085  -0.595  35.200  1.00  0.00    -0.355 OA
HETATM   20  C17 UNK     1      15.394   0.312  36.057  1.00  0.00     0.210 C 
ENDBRANCH  18  19
ENDBRANCH   3  13
BRANCH  11  21
HETATM   21  O4  UNK     1      18.508   5.497  30.194  1.00  0.00    -0.356 OA
HETATM   22  C18 UNK     1      19.786   6.022  29.836  1.00  0.00     0.210 C 
ENDBRANCH  11  21
TORSDOF 3
ENDMDL
