MODEL 1
REMARK VINA RESULT:     -10.2      0.000      0.000
REMARK  4 active torsions:
REMARK  status: ('A' for Active; 'I' for Inactive)
REMARK    1  A    between atoms: C7_15  and  S1_1 
REMARK    2  A    between atoms: N1_7  and  S1_1 
REMARK    3  A    between atoms: C14_22  and  N2_8 
REMARK       I    between atoms: C15_23  and  N2_8 
REMARK    4  A    between atoms: C15_23  and  C16_24 
ROOT
HETATM    1  C7  UNK     1      16.014   8.282  33.479  1.00  0.00     0.075 A 
HETATM    2  C10 UNK     1      16.634   7.549  34.475  1.00  0.00     0.027 A 
HETATM    3  C11 UNK     1      15.882   7.790  32.191  1.00  0.00     0.027 A 
HETATM    4  C12 UNK     1      17.139   6.283  34.174  1.00  0.00     0.031 A 
HETATM    5  C13 UNK     1      16.388   6.525  31.891  1.00  0.00     0.031 A 
HETATM    6  C14 UNK     1      17.017   5.771  32.883  1.00  0.00     0.035 A 
ENDROOT
BRANCH   6   7
HETATM    7  N2  UNK     1      17.522   4.506  32.582  1.00  0.00    -0.323 N 
HETATM    8  C15 UNK     1      18.298   4.131  31.483  1.00  0.00     0.262 C 
HETATM    9  O4  UNK     1      18.694   4.834  30.561  1.00  0.00    -0.267 OA
HETATM   10  H13 UNK     1      17.265   3.784  33.250  1.00  0.00     0.169 HD
BRANCH   8  11
HETATM   11  C16 UNK     1      18.650   2.697  31.502  1.00  0.00     0.108 A 
HETATM   12  C18 UNK     1      19.115   2.185  30.356  1.00  0.00     0.037 A 
HETATM   13  C17 UNK     1      19.486   0.782  30.276  1.00  0.00    -0.001 A 
HETATM   14  C19 UNK     1      19.350  -0.017  31.407  1.00  0.00     0.089 A 
HETATM   15  C21 UNK     1      19.978   0.207  29.102  1.00  0.00     0.014 A 
HETATM   16  C22 UNK     1      19.688  -1.368  31.397  1.00  0.00     0.038 A 
HETATM   17  O3  UNK     1      18.860   0.527  32.611  1.00  0.00    -0.274 OA
HETATM   18  C24 UNK     1      20.176  -1.933  30.221  1.00  0.00     0.003 A 
HETATM   19  C23 UNK     1      20.321  -1.148  29.076  1.00  0.00     0.001 A 
HETATM   20  C20 UNK     1      18.496   1.866  32.718  1.00  0.00     0.304 A 
HETATM   21  O5  UNK     1      18.070   2.330  33.770  1.00  0.00    -0.259 OA
ENDBRANCH   8  11
ENDBRANCH   6   7
BRANCH   1  22
HETATM   22  S1  UNK     1      15.373   9.885  33.859  1.00  0.00     0.248 S 
HETATM   23  O1  UNK     1      14.921  10.480  32.613  1.00  0.00    -0.205 OA
HETATM   24  O2  UNK     1      14.456   9.737  34.975  1.00  0.00    -0.205 OA
BRANCH  22  25
HETATM   25  N1  UNK     1      16.784  10.667  34.385  1.00  0.00    -0.171 NA
HETATM   26  C1  UNK     1      18.089  10.240  33.774  1.00  0.00     0.118 C 
HETATM   27  C2  UNK     1      19.029  11.450  33.907  1.00  0.00     0.056 C 
HETATM   28  C4  UNK     1      18.072  12.576  34.129  1.00  0.00    -0.035 A 
HETATM   29  C3  UNK     1      16.790  12.101  34.399  1.00  0.00     0.031 A 
HETATM   30  C6  UNK     1      18.345  13.934  34.145  1.00  0.00     0.009 A 
HETATM   31  C5  UNK     1      15.758  12.959  34.738  1.00  0.00     0.025 A 
HETATM   32  C8  UNK     1      16.022  14.331  34.747  1.00  0.00     0.002 A 
HETATM   33  C9  UNK     1      17.305  14.816  34.448  1.00  0.00     0.001 A 
ENDBRANCH  22  25
ENDBRANCH   1  22
TORSDOF 4
ENDMDL
MODEL 2
REMARK VINA RESULT:     -10.2      2.108      3.165
REMARK  4 active torsions:
REMARK  status: ('A' for Active; 'I' for Inactive)
REMARK    1  A    between atoms: C7_15  and  S1_1 
REMARK    2  A    between atoms: N1_7  and  S1_1 
REMARK    3  A    between atoms: C14_22  and  N2_8 
REMARK       I    between atoms: C15_23  and  N2_8 
REMARK    4  A    between atoms: C15_23  and  C16_24 
ROOT
HETATM    1  C7  UNK     1      18.003   7.408  33.208  1.00  0.00     0.075 A 
HETATM    2  C10 UNK     1      17.937   6.281  34.008  1.00  0.00     0.027 A 
HETATM    3  C11 UNK     1      18.345   7.328  31.869  1.00  0.00     0.027 A 
HETATM    4  C12 UNK     1      18.223   5.034  33.452  1.00  0.00     0.031 A 
HETATM    5  C13 UNK     1      18.631   6.080  31.314  1.00  0.00     0.031 A 
HETATM    6  C14 UNK     1      18.570   4.933  32.105  1.00  0.00     0.035 A 
ENDROOT
BRANCH   6   7
HETATM    7  N2  UNK     1      18.856   3.686  31.548  1.00  0.00    -0.323 N 
HETATM    8  C15 UNK     1      17.969   2.792  30.946  1.00  0.00     0.262 C 
HETATM    9  O4  UNK     1      16.761   2.918  30.782  1.00  0.00    -0.267 OA
HETATM   10  H13 UNK     1      19.832   3.411  31.619  1.00  0.00     0.169 HD
BRANCH   8  11
HETATM   11  C16 UNK     1      18.639   1.565  30.469  1.00  0.00     0.108 A 
HETATM   12  C18 UNK     1      19.063   0.716  31.413  1.00  0.00     0.037 A 
HETATM   13  C17 UNK     1      19.736  -0.518  31.041  1.00  0.00    -0.001 A 
HETATM   14  C19 UNK     1      19.930  -0.800  29.693  1.00  0.00     0.089 A 
HETATM   15  C21 UNK     1      20.193  -1.432  31.993  1.00  0.00     0.014 A 
HETATM   16  C22 UNK     1      20.567  -1.965  29.270  1.00  0.00     0.038 A 
HETATM   17  O3  UNK     1      19.481   0.097  28.704  1.00  0.00    -0.274 OA
HETATM   18  C24 UNK     1      21.020  -2.871  30.227  1.00  0.00     0.003 A 
HETATM   19  C23 UNK     1      20.835  -2.606  31.585  1.00  0.00     0.001 A 
HETATM   20  C20 UNK     1      18.834   1.286  29.028  1.00  0.00     0.304 A 
HETATM   21  O5  UNK     1      18.448   2.060  28.160  1.00  0.00    -0.259 OA
ENDBRANCH   8  11
ENDBRANCH   6   7
BRANCH   1  22
HETATM   22  S1  UNK     1      17.640   8.989  33.912  1.00  0.00     0.248 S 
HETATM   23  O1  UNK     1      17.394   8.787  35.330  1.00  0.00    -0.205 OA
HETATM   24  O2  UNK     1      18.670   9.912  33.471  1.00  0.00    -0.205 OA
BRANCH  22  25
HETATM   25  N1  UNK     1      16.179   9.350  33.127  1.00  0.00    -0.171 NA
HETATM   26  C1  UNK     1      15.180   8.240  32.962  1.00  0.00     0.118 C 
HETATM   27  C2  UNK     1      13.808   8.926  32.845  1.00  0.00     0.056 C 
HETATM   28  C4  UNK     1      14.077  10.278  33.420  1.00  0.00    -0.035 A 
HETATM   29  C3  UNK     1      15.445  10.498  33.574  1.00  0.00     0.031 A 
HETATM   30  C6  UNK     1      13.159  11.269  33.729  1.00  0.00     0.009 A 
HETATM   31  C5  UNK     1      15.938  11.721  33.994  1.00  0.00     0.025 A 
HETATM   32  C8  UNK     1      15.019  12.722  34.317  1.00  0.00     0.002 A 
HETATM   33  C9  UNK     1      13.639  12.497  34.191  1.00  0.00     0.001 A 
ENDBRANCH  22  25
ENDBRANCH   1  22
TORSDOF 4
ENDMDL
MODEL 3
REMARK VINA RESULT:     -10.1      9.209     16.106
REMARK  4 active torsions:
REMARK  status: ('A' for Active; 'I' for Inactive)
REMARK    1  A    between atoms: C7_15  and  S1_1 
REMARK    2  A    between atoms: N1_7  and  S1_1 
REMARK    3  A    between atoms: C14_22  and  N2_8 
REMARK       I    between atoms: C15_23  and  N2_8 
REMARK    4  A    between atoms: C15_23  and  C16_24 
ROOT
HETATM    1  C7  UNK     1      19.333  -8.697  37.167  1.00  0.00     0.075 A 
HETATM    2  C10 UNK     1      19.628  -8.218  35.903  1.00  0.00     0.027 A 
HETATM    3  C11 UNK     1      18.907  -7.856  38.181  1.00  0.00     0.027 A 
HETATM    4  C12 UNK     1      19.494  -6.853  35.644  1.00  0.00     0.031 A 
HETATM    5  C13 UNK     1      18.773  -6.491  37.921  1.00  0.00     0.031 A 
HETATM    6  C14 UNK     1      19.066  -5.990  36.652  1.00  0.00     0.035 A 
ENDROOT
BRANCH   6   7
HETATM    7  N2  UNK     1      18.932  -4.625  36.393  1.00  0.00    -0.323 N 
HETATM    8  C15 UNK     1      19.931  -3.650  36.391  1.00  0.00     0.262 C 
HETATM    9  O4  UNK     1      21.127  -3.791  36.615  1.00  0.00    -0.267 OA
HETATM   10  H13 UNK     1      17.978  -4.328  36.203  1.00  0.00     0.169 HD
BRANCH   8  11
HETATM   11  C16 UNK     1      19.410  -2.306  36.069  1.00  0.00     0.108 A 
HETATM   12  C18 UNK     1      18.731  -1.685  37.042  1.00  0.00     0.037 A 
HETATM   13  C17 UNK     1      18.178  -0.359  36.818  1.00  0.00    -0.001 A 
HETATM   14  C19 UNK     1      18.365   0.249  35.582  1.00  0.00     0.089 A 
HETATM   15  C21 UNK     1      17.465   0.326  37.806  1.00  0.00     0.014 A 
HETATM   16  C22 UNK     1      17.860   1.518  35.304  1.00  0.00     0.038 A 
HETATM   17  O3  UNK     1      19.080  -0.409  34.562  1.00  0.00    -0.274 OA
HETATM   18  C24 UNK     1      17.150   2.193  36.294  1.00  0.00     0.003 A 
HETATM   19  C23 UNK     1      16.952   1.599  37.542  1.00  0.00     0.001 A 
HETATM   20  C20 UNK     1      19.621  -1.678  34.745  1.00  0.00     0.304 A 
HETATM   21  O5  UNK     1      20.241  -2.243  33.851  1.00  0.00    -0.259 OA
ENDBRANCH   8  11
ENDBRANCH   6   7
BRANCH   1  22
HETATM   22  S1  UNK     1      19.502 -10.426  37.496  1.00  0.00     0.248 S 
HETATM   23  O1  UNK     1      19.100 -10.648  38.873  1.00  0.00    -0.205 OA
HETATM   24  O2  UNK     1      18.849 -11.143  36.416  1.00  0.00    -0.205 OA
BRANCH  22  25
HETATM   25  N1  UNK     1      21.184 -10.604  37.358  1.00  0.00    -0.171 NA
HETATM   26  C1  UNK     1      21.748 -10.901  35.997  1.00  0.00     0.118 C 
HETATM   27  C2  UNK     1      23.198 -10.387  36.023  1.00  0.00     0.056 C 
HETATM   28  C4  UNK     1      23.181  -9.442  37.181  1.00  0.00    -0.035 A 
HETATM   29  C3  UNK     1      22.015  -9.585  37.931  1.00  0.00     0.031 A 
HETATM   30  C6  UNK     1      24.172  -8.556  37.570  1.00  0.00     0.009 A 
HETATM   31  C5  UNK     1      21.824  -8.886  39.110  1.00  0.00     0.025 A 
HETATM   32  C8  UNK     1      22.814  -7.982  39.504  1.00  0.00     0.002 A 
HETATM   33  C9  UNK     1      23.978  -7.815  38.738  1.00  0.00     0.001 A 
ENDBRANCH  22  25
ENDBRANCH   1  22
TORSDOF 4
ENDMDL
MODEL 4
REMARK VINA RESULT:     -10.1     15.213     18.403
REMARK  4 active torsions:
REMARK  status: ('A' for Active; 'I' for Inactive)
REMARK    1  A    between atoms: C7_15  and  S1_1 
REMARK    2  A    between atoms: N1_7  and  S1_1 
REMARK    3  A    between atoms: C14_22  and  N2_8 
REMARK       I    between atoms: C15_23  and  N2_8 
REMARK    4  A    between atoms: C15_23  and  C16_24 
ROOT
HETATM    1  C7  UNK     1      22.510  -7.285  39.027  1.00  0.00     0.075 A 
HETATM    2  C10 UNK     1      22.953  -5.980  39.147  1.00  0.00     0.027 A 
HETATM    3  C11 UNK     1      23.388  -8.331  38.801  1.00  0.00     0.027 A 
HETATM    4  C12 UNK     1      24.318  -5.711  39.037  1.00  0.00     0.031 A 
HETATM    5  C13 UNK     1      24.753  -8.062  38.691  1.00  0.00     0.031 A 
HETATM    6  C14 UNK     1      25.218  -6.752  38.809  1.00  0.00     0.035 A 
ENDROOT
BRANCH   6   7
HETATM    7  N2  UNK     1      26.583  -6.483  38.700  1.00  0.00    -0.323 N 
HETATM    8  C15 UNK     1      27.645  -7.194  39.265  1.00  0.00     0.262 C 
HETATM    9  O4  UNK     1      27.597  -8.194  39.969  1.00  0.00    -0.267 OA
HETATM   10  H13 UNK     1      26.804  -5.656  38.152  1.00  0.00     0.169 HD
BRANCH   8  11
HETATM   11  C16 UNK     1      28.959  -6.609  38.927  1.00  0.00     0.108 A 
HETATM   12  C18 UNK     1      29.927  -7.476  38.605  1.00  0.00     0.037 A 
HETATM   13  C17 UNK     1      31.255  -6.995  38.259  1.00  0.00    -0.001 A 
HETATM   14  C19 UNK     1      31.500  -5.626  38.268  1.00  0.00     0.089 A 
HETATM   15  C21 UNK     1      32.295  -7.863  37.916  1.00  0.00     0.014 A 
HETATM   16  C22 UNK     1      32.750  -5.101  37.947  1.00  0.00     0.038 A 
HETATM   17  O3  UNK     1      30.477  -4.719  38.607  1.00  0.00    -0.274 OA
HETATM   18  C24 UNK     1      33.781  -5.974  37.606  1.00  0.00     0.003 A 
HETATM   19  C23 UNK     1      33.555  -7.352  37.591  1.00  0.00     0.001 A 
HETATM   20  C20 UNK     1      29.196  -5.148  38.943  1.00  0.00     0.304 A 
HETATM   21  O5  UNK     1      28.312  -4.351  39.238  1.00  0.00    -0.259 OA
ENDBRANCH   8  11
ENDBRANCH   6   7
BRANCH   1  22
HETATM   22  S1  UNK     1      20.781  -7.626  39.166  1.00  0.00     0.248 S 
HETATM   23  O1  UNK     1      20.642  -8.887  39.874  1.00  0.00    -0.205 OA
HETATM   24  O2  UNK     1      20.137  -6.427  39.670  1.00  0.00    -0.205 OA
BRANCH  22  25
HETATM   25  N1  UNK     1      20.375  -7.844  37.533  1.00  0.00    -0.171 NA
HETATM   26  C1  UNK     1      20.518  -6.664  36.613  1.00  0.00     0.118 C 
HETATM   27  C2  UNK     1      20.722  -7.252  35.206  1.00  0.00     0.056 C 
HETATM   28  C4  UNK     1      21.148  -8.653  35.504  1.00  0.00    -0.035 A 
HETATM   29  C3  UNK     1      20.941  -8.968  36.846  1.00  0.00     0.031 A 
HETATM   30  C6  UNK     1      21.634  -9.601  34.618  1.00  0.00     0.009 A 
HETATM   31  C5  UNK     1      21.167 -10.244  37.331  1.00  0.00     0.025 A 
HETATM   32  C8  UNK     1      21.667 -11.203  36.447  1.00  0.00     0.002 A 
HETATM   33  C9  UNK     1      21.904 -10.883  35.101  1.00  0.00     0.001 A 
ENDBRANCH  22  25
ENDBRANCH   1  22
TORSDOF 4
ENDMDL
MODEL 5
REMARK VINA RESULT:     -10.1      7.807     14.984
REMARK  4 active torsions:
REMARK  status: ('A' for Active; 'I' for Inactive)
REMARK    1  A    between atoms: C7_15  and  S1_1 
REMARK    2  A    between atoms: N1_7  and  S1_1 
REMARK    3  A    between atoms: C14_22  and  N2_8 
REMARK       I    between atoms: C15_23  and  N2_8 
REMARK    4  A    between atoms: C15_23  and  C16_24 
ROOT
HETATM    1  C7  UNK     1      20.567  -5.630  37.389  1.00  0.00     0.075 A 
HETATM    2  C10 UNK     1      20.119  -5.807  36.092  1.00  0.00     0.027 A 
HETATM    3  C11 UNK     1      20.704  -4.369  37.944  1.00  0.00     0.027 A 
HETATM    4  C12 UNK     1      19.798  -4.686  35.325  1.00  0.00     0.031 A 
HETATM    5  C13 UNK     1      20.383  -3.249  37.175  1.00  0.00     0.031 A 
HETATM    6  C14 UNK     1      19.930  -3.408  35.866  1.00  0.00     0.035 A 
ENDROOT
BRANCH   6   7
HETATM    7  N2  UNK     1      19.609  -2.288  35.098  1.00  0.00    -0.323 N 
HETATM    8  C15 UNK     1      18.538  -1.408  35.271  1.00  0.00     0.262 C 
HETATM    9  O4  UNK     1      17.664  -1.438  36.128  1.00  0.00    -0.267 OA
HETATM   10  H13 UNK     1      20.236  -2.124  34.314  1.00  0.00     0.169 HD
BRANCH   8  11
HETATM   11  C16 UNK     1      18.522  -0.332  34.259  1.00  0.00     0.108 A 
HETATM   12  C18 UNK     1      18.350   0.913  34.721  1.00  0.00     0.037 A 
HETATM   13  C17 UNK     1      18.319   2.039  33.800  1.00  0.00    -0.001 A 
HETATM   14  C19 UNK     1      18.470   1.800  32.439  1.00  0.00     0.089 A 
HETATM   15  C21 UNK     1      18.144   3.353  34.239  1.00  0.00     0.014 A 
HETATM   16  C22 UNK     1      18.450   2.834  31.505  1.00  0.00     0.038 A 
HETATM   17  O3  UNK     1      18.651   0.488  31.958  1.00  0.00    -0.274 OA
HETATM   18  C24 UNK     1      18.274   4.142  31.951  1.00  0.00     0.003 A 
HETATM   19  C23 UNK     1      18.121   4.402  33.314  1.00  0.00     0.001 A 
HETATM   20  C20 UNK     1      18.685  -0.610  32.814  1.00  0.00     0.304 A 
HETATM   21  O5  UNK     1      18.842  -1.748  32.386  1.00  0.00    -0.259 OA
ENDBRANCH   8  11
ENDBRANCH   6   7
BRANCH   1  22
HETATM   22  S1  UNK     1      20.973  -7.049  38.363  1.00  0.00     0.248 S 
HETATM   23  O1  UNK     1      21.315  -6.579  39.694  1.00  0.00    -0.205 OA
HETATM   24  O2  UNK     1      19.913  -8.024  38.180  1.00  0.00    -0.205 OA
BRANCH  22  25
HETATM   25  N1  UNK     1      22.375  -7.579  37.569  1.00  0.00    -0.171 NA
HETATM   26  C1  UNK     1      23.644  -7.661  38.369  1.00  0.00     0.118 C 
HETATM   27  C2  UNK     1      24.518  -8.712  37.663  1.00  0.00     0.056 C 
HETATM   28  C4  UNK     1      23.517  -9.460  36.843  1.00  0.00    -0.035 A 
HETATM   29  C3  UNK     1      22.295  -8.790  36.806  1.00  0.00     0.031 A 
HETATM   30  C6  UNK     1      23.707 -10.632  36.129  1.00  0.00     0.009 A 
HETATM   31  C5  UNK     1      21.247  -9.242  36.022  1.00  0.00     0.025 A 
HETATM   32  C8  UNK     1      21.427 -10.429  35.307  1.00  0.00     0.002 A 
HETATM   33  C9  UNK     1      22.647 -11.122  35.363  1.00  0.00     0.001 A 
ENDBRANCH  22  25
ENDBRANCH   1  22
TORSDOF 4
ENDMDL
MODEL 6
REMARK VINA RESULT:     -10.0      6.842     10.263
REMARK  4 active torsions:
REMARK  status: ('A' for Active; 'I' for Inactive)
REMARK    1  A    between atoms: C7_15  and  S1_1 
REMARK    2  A    between atoms: N1_7  and  S1_1 
REMARK    3  A    between atoms: C14_22  and  N2_8 
REMARK       I    between atoms: C15_23  and  N2_8 
REMARK    4  A    between atoms: C15_23  and  C16_24 
ROOT
HETATM    1  C7  UNK     1      18.537  -0.115  36.165  1.00  0.00     0.075 A 
HETATM    2  C10 UNK     1      17.582  -0.911  36.773  1.00  0.00     0.027 A 
HETATM    3  C11 UNK     1      19.707  -0.649  35.653  1.00  0.00     0.027 A 
HETATM    4  C12 UNK     1      17.804  -2.284  36.873  1.00  0.00     0.031 A 
HETATM    5  C13 UNK     1      19.929  -2.023  35.754  1.00  0.00     0.031 A 
HETATM    6  C14 UNK     1      18.978  -2.841  36.364  1.00  0.00     0.035 A 
ENDROOT
BRANCH   6   7
HETATM    7  N2  UNK     1      19.200  -4.215  36.464  1.00  0.00    -0.323 N 
HETATM    8  C15 UNK     1      20.328  -4.866  36.967  1.00  0.00     0.262 C 
HETATM    9  O4  UNK     1      21.351  -4.369  37.421  1.00  0.00    -0.267 OA
HETATM   10  H13 UNK     1      18.441  -4.788  36.105  1.00  0.00     0.169 HD
BRANCH   8  11
HETATM   11  C16 UNK     1      20.202  -6.337  36.913  1.00  0.00     0.108 A 
HETATM   12  C18 UNK     1      20.024  -6.960  38.085  1.00  0.00     0.037 A 
HETATM   13  C17 UNK     1      19.891  -8.407  38.134  1.00  0.00    -0.001 A 
HETATM   14  C19 UNK     1      19.951  -9.130  36.947  1.00  0.00     0.089 A 
HETATM   15  C21 UNK     1      19.703  -9.097  39.334  1.00  0.00     0.014 A 
HETATM   16  C22 UNK     1      19.830 -10.518  36.925  1.00  0.00     0.038 A 
HETATM   17  O3  UNK     1      20.138  -8.469  35.717  1.00  0.00    -0.274 OA
HETATM   18  C24 UNK     1      19.644 -11.197  38.127  1.00  0.00     0.003 A 
HETATM   19  C23 UNK     1      19.580 -10.490  39.329  1.00  0.00     0.001 A 
HETATM   20  C20 UNK     1      20.269  -7.086  35.638  1.00  0.00     0.304 A 
HETATM   21  O5  UNK     1      20.432  -6.520  34.562  1.00  0.00    -0.259 OA
ENDBRANCH   8  11
ENDBRANCH   6   7
BRANCH   1  22
HETATM   22  S1  UNK     1      18.256   1.626  36.037  1.00  0.00     0.248 S 
HETATM   23  O1  UNK     1      16.824   1.845  36.154  1.00  0.00    -0.205 OA
HETATM   24  O2  UNK     1      19.174   2.286  36.947  1.00  0.00    -0.205 OA
BRANCH  22  25
HETATM   25  N1  UNK     1      18.746   1.903  34.436  1.00  0.00    -0.171 NA
HETATM   26  C1  UNK     1      18.378   0.874  33.404  1.00  0.00     0.118 C 
HETATM   27  C2  UNK     1      18.347   1.622  32.060  1.00  0.00     0.056 C 
HETATM   28  C4  UNK     1      18.224   3.048  32.491  1.00  0.00    -0.035 A 
HETATM   29  C3  UNK     1      18.455   3.183  33.859  1.00  0.00     0.031 A 
HETATM   30  C6  UNK     1      17.980   4.158  31.699  1.00  0.00     0.009 A 
HETATM   31  C5  UNK     1      18.496   4.426  34.466  1.00  0.00     0.025 A 
HETATM   32  C8  UNK     1      18.240   5.550  33.676  1.00  0.00     0.002 A 
HETATM   33  C9  UNK     1      17.979   5.417  32.303  1.00  0.00     0.001 A 
ENDBRANCH  22  25
ENDBRANCH   1  22
TORSDOF 4
ENDMDL
MODEL 7
REMARK VINA RESULT:      -9.9      6.684     13.854
REMARK  4 active torsions:
REMARK  status: ('A' for Active; 'I' for Inactive)
REMARK    1  A    between atoms: C7_15  and  S1_1 
REMARK    2  A    between atoms: N1_7  and  S1_1 
REMARK    3  A    between atoms: C14_22  and  N2_8 
REMARK       I    between atoms: C15_23  and  N2_8 
REMARK    4  A    between atoms: C15_23  and  C16_24 
ROOT
HETATM    1  C7  UNK     1      20.203  -4.009  36.956  1.00  0.00     0.075 A 
HETATM    2  C10 UNK     1      18.904  -3.536  37.005  1.00  0.00     0.027 A 
HETATM    3  C11 UNK     1      21.213  -3.295  36.334  1.00  0.00     0.027 A 
HETATM    4  C12 UNK     1      18.605  -2.309  36.411  1.00  0.00     0.031 A 
HETATM    5  C13 UNK     1      20.913  -2.069  35.741  1.00  0.00     0.031 A 
HETATM    6  C14 UNK     1      19.608  -1.575  35.779  1.00  0.00     0.035 A 
ENDROOT
BRANCH   6   7
HETATM    7  N2  UNK     1      19.309  -0.348  35.186  1.00  0.00    -0.323 N 
HETATM    8  C15 UNK     1      18.333  -0.076  34.224  1.00  0.00     0.262 C 
HETATM    9  O4  UNK     1      17.543  -0.855  33.706  1.00  0.00    -0.267 OA
HETATM   10  H13 UNK     1      19.898   0.421  35.495  1.00  0.00     0.169 HD
BRANCH   8  11
HETATM   11  C16 UNK     1      18.308   1.348  33.832  1.00  0.00     0.108 A 
HETATM   12  C18 UNK     1      18.482   1.607  32.531  1.00  0.00     0.037 A 
HETATM   13  C17 UNK     1      18.474   2.979  32.049  1.00  0.00    -0.001 A 
HETATM   14  C19 UNK     1      18.283   4.012  32.961  1.00  0.00     0.089 A 
HETATM   15  C21 UNK     1      18.650   3.295  30.700  1.00  0.00     0.014 A 
HETATM   16  C22 UNK     1      18.265   5.348  32.564  1.00  0.00     0.038 A 
HETATM   17  O3  UNK     1      18.100   3.733  34.329  1.00  0.00    -0.274 OA
HETATM   18  C24 UNK     1      18.442   5.654  31.217  1.00  0.00     0.003 A 
HETATM   19  C23 UNK     1      18.635   4.631  30.286  1.00  0.00     0.001 A 
HETATM   20  C20 UNK     1      18.103   2.431  34.821  1.00  0.00     0.304 A 
HETATM   21  O5  UNK     1      17.943   2.198  36.014  1.00  0.00    -0.259 OA
ENDBRANCH   8  11
ENDBRANCH   6   7
BRANCH   1  22
HETATM   22  S1  UNK     1      20.584  -5.564  37.709  1.00  0.00     0.248 S 
HETATM   23  O1  UNK     1      22.018  -5.597  37.935  1.00  0.00    -0.205 OA
HETATM   24  O2  UNK     1      19.662  -5.752  38.815  1.00  0.00    -0.205 OA
BRANCH  22  25
HETATM   25  N1  UNK     1      20.181  -6.625  36.448  1.00  0.00    -0.171 NA
HETATM   26  C1  UNK     1      20.249  -6.099  35.042  1.00  0.00     0.118 C 
HETATM   27  C2  UNK     1      20.478  -7.328  34.145  1.00  0.00     0.056 C 
HETATM   28  C4  UNK     1      20.989  -8.342  35.117  1.00  0.00    -0.035 A 
HETATM   29  C3  UNK     1      20.809  -7.914  36.432  1.00  0.00     0.031 A 
HETATM   30  C6  UNK     1      21.524  -9.589  34.842  1.00  0.00     0.009 A 
HETATM   31  C5  UNK     1      21.114  -8.733  37.505  1.00  0.00     0.025 A 
HETATM   32  C8  UNK     1      21.664  -9.989  37.237  1.00  0.00     0.002 A 
HETATM   33  C9  UNK     1      21.873 -10.413  35.915  1.00  0.00     0.001 A 
ENDBRANCH  22  25
ENDBRANCH   1  22
TORSDOF 4
ENDMDL
MODEL 8
REMARK VINA RESULT:      -9.9     17.790     24.292
REMARK  4 active torsions:
REMARK  status: ('A' for Active; 'I' for Inactive)
REMARK    1  A    between atoms: C7_15  and  S1_1 
REMARK    2  A    between atoms: N1_7  and  S1_1 
REMARK    3  A    between atoms: C14_22  and  N2_8 
REMARK       I    between atoms: C15_23  and  N2_8 
REMARK    4  A    between atoms: C15_23  and  C16_24 
ROOT
HETATM    1  C7  UNK     1      20.589  -6.803  12.601  1.00  0.00     0.075 A 
HETATM    2  C10 UNK     1      20.793  -6.685  13.964  1.00  0.00     0.027 A 
HETATM    3  C11 UNK     1      20.166  -5.731  11.834  1.00  0.00     0.027 A 
HETATM    4  C12 UNK     1      20.567  -5.453  14.581  1.00  0.00     0.031 A 
HETATM    5  C13 UNK     1      19.940  -4.501  12.452  1.00  0.00     0.031 A 
HETATM    6  C14 UNK     1      20.141  -4.361  13.825  1.00  0.00     0.035 A 
ENDROOT
BRANCH   6   7
HETATM    7  N2  UNK     1      19.915  -3.130  14.442  1.00  0.00    -0.323 N 
HETATM    8  C15 UNK     1      18.857  -2.772  15.280  1.00  0.00     0.262 C 
HETATM    9  O4  UNK     1      17.913  -3.462  15.644  1.00  0.00    -0.267 OA
HETATM   10  H13 UNK     1      20.610  -2.420  14.225  1.00  0.00     0.169 HD
BRANCH   8  11
HETATM   11  C16 UNK     1      18.954  -1.374  15.747  1.00  0.00     0.108 A 
HETATM   12  C18 UNK     1      18.813  -1.179  17.064  1.00  0.00     0.037 A 
HETATM   13  C17 UNK     1      18.892   0.163  17.619  1.00  0.00    -0.001 A 
HETATM   14  C19 UNK     1      19.116   1.235  16.761  1.00  0.00     0.089 A 
HETATM   15  C21 UNK     1      18.752   0.412  18.986  1.00  0.00     0.014 A 
HETATM   16  C22 UNK     1      19.202   2.544  17.229  1.00  0.00     0.038 A 
HETATM   17  O3  UNK     1      19.264   1.023  15.376  1.00  0.00    -0.274 OA
HETATM   18  C24 UNK     1      19.060   2.784  18.594  1.00  0.00     0.003 A 
HETATM   19  C23 UNK     1      18.836   1.721  19.471  1.00  0.00     0.001 A 
HETATM   20  C20 UNK     1      19.193  -0.249  14.815  1.00  0.00     0.304 A 
HETATM   21  O5  UNK     1      19.322  -0.423  13.608  1.00  0.00    -0.259 OA
ENDBRANCH   8  11
ENDBRANCH   6   7
BRANCH   1  22
HETATM   22  S1  UNK     1      20.876  -8.363  11.818  1.00  0.00     0.248 S 
HETATM   23  O1  UNK     1      20.047  -9.347  12.494  1.00  0.00    -0.205 OA
HETATM   24  O2  UNK     1      20.755  -8.163  10.385  1.00  0.00    -0.205 OA
BRANCH  22  25
HETATM   25  N1  UNK     1      22.504  -8.618  12.221  1.00  0.00    -0.171 NA
HETATM   26  C1  UNK     1      22.880  -9.949  12.807  1.00  0.00     0.118 C 
HETATM   27  C2  UNK     1      24.370 -10.146  12.477  1.00  0.00     0.056 C 
HETATM   28  C4  UNK     1      24.580  -9.179  11.357  1.00  0.00    -0.035 A 
HETATM   29  C3  UNK     1      23.494  -8.314  11.229  1.00  0.00     0.031 A 
HETATM   30  C6  UNK     1      25.695  -9.045  10.546  1.00  0.00     0.009 A 
HETATM   31  C5  UNK     1      23.509  -7.266  10.325  1.00  0.00     0.025 A 
HETATM   32  C8  UNK     1      24.625  -7.130   9.496  1.00  0.00     0.002 A 
HETATM   33  C9  UNK     1      25.708  -8.016   9.602  1.00  0.00     0.001 A 
ENDBRANCH  22  25
ENDBRANCH   1  22
TORSDOF 4
ENDMDL
MODEL 9
REMARK VINA RESULT:      -9.9     22.937     25.171
REMARK  4 active torsions:
REMARK  status: ('A' for Active; 'I' for Inactive)
REMARK    1  A    between atoms: C7_15  and  S1_1 
REMARK    2  A    between atoms: N1_7  and  S1_1 
REMARK    3  A    between atoms: C14_22  and  N2_8 
REMARK       I    between atoms: C15_23  and  N2_8 
REMARK    4  A    between atoms: C15_23  and  C16_24 
ROOT
HETATM    1  C7  UNK     1      14.250   8.521   9.965  1.00  0.00     0.075 A 
HETATM    2  C10 UNK     1      14.450   9.665   9.213  1.00  0.00     0.027 A 
HETATM    3  C11 UNK     1      15.269   7.956  10.713  1.00  0.00     0.027 A 
HETATM    4  C12 UNK     1      15.711  10.263   9.207  1.00  0.00     0.031 A 
HETATM    5  C13 UNK     1      16.530   8.555  10.705  1.00  0.00     0.031 A 
HETATM    6  C14 UNK     1      16.751   9.708   9.953  1.00  0.00     0.035 A 
ENDROOT
BRANCH   6   7
HETATM    7  N2  UNK     1      18.011  10.307   9.947  1.00  0.00    -0.323 N 
HETATM    8  C15 UNK     1      18.361  11.575  10.417  1.00  0.00     0.262 C 
HETATM    9  O4  UNK     1      17.636  12.419  10.928  1.00  0.00    -0.267 OA
HETATM   10  H13 UNK     1      18.742   9.737   9.529  1.00  0.00     0.169 HD
BRANCH   8  11
HETATM   11  C16 UNK     1      19.799  11.865  10.244  1.00  0.00     0.108 A 
HETATM   12  C18 UNK     1      20.469  12.217  11.348  1.00  0.00     0.037 A 
HETATM   13  C17 UNK     1      21.889  12.523  11.277  1.00  0.00    -0.001 A 
HETATM   14  C19 UNK     1      22.535  12.444  10.048  1.00  0.00     0.089 A 
HETATM   15  C21 UNK     1      22.627  12.892  12.404  1.00  0.00     0.014 A 
HETATM   16  C22 UNK     1      23.893  12.724   9.913  1.00  0.00     0.038 A 
HETATM   17  O3  UNK     1      21.824  12.073   8.890  1.00  0.00    -0.274 OA
HETATM   18  C24 UNK     1      24.621  13.093  11.042  1.00  0.00     0.003 A 
HETATM   19  C23 UNK     1      23.991  13.177  12.285  1.00  0.00     0.001 A 
HETATM   20  C20 UNK     1      20.465  11.775   8.925  1.00  0.00     0.304 A 
HETATM   21  O5  UNK     1      19.856  11.453   7.911  1.00  0.00    -0.259 OA
ENDBRANCH   8  11
ENDBRANCH   6   7
BRANCH   1  22
HETATM   22  S1  UNK     1      12.652   7.763   9.974  1.00  0.00     0.248 S 
HETATM   23  O1  UNK     1      12.807   6.429  10.529  1.00  0.00    -0.205 OA
HETATM   24  O2  UNK     1      11.724   8.704  10.574  1.00  0.00    -0.205 OA
BRANCH  22  25
HETATM   25  N1  UNK     1      12.352   7.653   8.307  1.00  0.00    -0.171 NA
HETATM   26  C1  UNK     1      13.367   6.941   7.459  1.00  0.00     0.118 C 
HETATM   27  C2  UNK     1      12.600   6.437   6.224  1.00  0.00     0.056 C 
HETATM   28  C4  UNK     1      11.181   6.478   6.690  1.00  0.00    -0.035 A 
HETATM   29  C3  UNK     1      11.065   7.180   7.889  1.00  0.00     0.031 A 
HETATM   30  C6  UNK     1      10.061   5.971   6.051  1.00  0.00     0.009 A 
HETATM   31  C5  UNK     1       9.830   7.436   8.459  1.00  0.00     0.025 A 
HETATM   32  C8  UNK     1       8.696   6.920   7.827  1.00  0.00     0.002 A 
HETATM   33  C9  UNK     1       8.811   6.188   6.635  1.00  0.00     0.001 A 
ENDBRANCH  22  25
ENDBRANCH   1  22
TORSDOF 4
ENDMDL
MODEL 10
REMARK VINA RESULT:      -9.8      6.847     10.482
REMARK  4 active torsions:
REMARK  status: ('A' for Active; 'I' for Inactive)
REMARK    1  A    between atoms: C7_15  and  S1_1 
REMARK    2  A    between atoms: N1_7  and  S1_1 
REMARK    3  A    between atoms: C14_22  and  N2_8 
REMARK       I    between atoms: C15_23  and  N2_8 
REMARK    4  A    between atoms: C15_23  and  C16_24 
ROOT
HETATM    1  C7  UNK     1      18.120  -0.239  35.330  1.00  0.00     0.075 A 
HETATM    2  C10 UNK     1      19.470  -0.540  35.322  1.00  0.00     0.027 A 
HETATM    3  C11 UNK     1      17.186  -1.109  35.867  1.00  0.00     0.027 A 
HETATM    4  C12 UNK     1      19.901  -1.749  35.869  1.00  0.00     0.031 A 
HETATM    5  C13 UNK     1      17.618  -2.318  36.413  1.00  0.00     0.031 A 
HETATM    6  C14 UNK     1      18.975  -2.638  36.414  1.00  0.00     0.035 A 
ENDROOT
BRANCH   6   7
HETATM    7  N2  UNK     1      19.406  -3.847  36.961  1.00  0.00    -0.323 N 
HETATM    8  C15 UNK     1      19.979  -4.934  36.296  1.00  0.00     0.262 C 
HETATM    9  O4  UNK     1      20.220  -5.048  35.100  1.00  0.00    -0.267 OA
HETATM   10  H13 UNK     1      19.258  -3.929  37.964  1.00  0.00     0.169 HD
BRANCH   8  11
HETATM   11  C16 UNK     1      20.311  -6.045  37.210  1.00  0.00     0.108 A 
HETATM   12  C18 UNK     1      19.477  -7.092  37.197  1.00  0.00     0.037 A 
HETATM   13  C17 UNK     1      19.720  -8.234  38.064  1.00  0.00    -0.001 A 
HETATM   14  C19 UNK     1      20.830  -8.219  38.903  1.00  0.00     0.089 A 
HETATM   15  C21 UNK     1      18.878  -9.348  38.082  1.00  0.00     0.014 A 
HETATM   16  C22 UNK     1      21.120  -9.281  39.757  1.00  0.00     0.038 A 
HETATM   17  O3  UNK     1      21.704  -7.114  38.912  1.00  0.00    -0.274 OA
HETATM   18  C24 UNK     1      20.273 -10.387  39.769  1.00  0.00     0.003 A 
HETATM   19  C23 UNK     1      19.155 -10.422  38.934  1.00  0.00     0.001 A 
HETATM   20  C20 UNK     1      21.498  -6.007  38.095  1.00  0.00     0.304 A 
HETATM   21  O5  UNK     1      22.264  -5.050  38.110  1.00  0.00    -0.259 OA
ENDBRANCH   8  11
ENDBRANCH   6   7
BRANCH   1  22
HETATM   22  S1  UNK     1      17.573   1.294  34.638  1.00  0.00     0.248 S 
HETATM   23  O1  UNK     1      16.199   1.108  34.202  1.00  0.00    -0.205 OA
HETATM   24  O2  UNK     1      17.908   2.344  35.582  1.00  0.00    -0.205 OA
BRANCH  22  25
HETATM   25  N1  UNK     1      18.589   1.402  33.283  1.00  0.00    -0.171 NA
HETATM   26  C1  UNK     1      18.661   0.215  32.365  1.00  0.00     0.118 C 
HETATM   27  C2  UNK     1      19.079   0.771  30.993  1.00  0.00     0.056 C 
HETATM   28  C4  UNK     1      18.746   2.222  31.122  1.00  0.00    -0.035 A 
HETATM   29  C3  UNK     1      18.467   2.559  32.445  1.00  0.00     0.031 A 
HETATM   30  C6  UNK     1      18.751   3.188  30.128  1.00  0.00     0.009 A 
HETATM   31  C5  UNK     1      18.232   3.870  32.823  1.00  0.00     0.025 A 
HETATM   32  C8  UNK     1      18.224   4.849  31.825  1.00  0.00     0.002 A 
HETATM   33  C9  UNK     1      18.477   4.510  30.487  1.00  0.00     0.001 A 
ENDBRANCH  22  25
ENDBRANCH   1  22
TORSDOF 4
ENDMDL
