MODEL 1
REMARK VINA RESULT:      -8.7      0.000      0.000
REMARK  4 active torsions:
REMARK  status: ('A' for Active; 'I' for Inactive)
REMARK       I    between atoms: C6_12  and  N1_4 
REMARK    1  A    between atoms: C10_16  and  N2_5 
REMARK    2  A    between atoms: C8_14  and  N2_5 
REMARK    3  A    between atoms: C15_21  and  N3_6 
REMARK    4  A    between atoms: C6_12  and  C7_13 
ROOT
HETATM    1  N2  UNK     1      11.491   7.135   9.445  1.00  0.00    -0.353 N 
HETATM    2  H12 UNK     1      11.356   6.454  10.185  1.00  0.00     0.166 HD
ENDROOT
BRANCH   1   3
HETATM    3  C10 UNK     1      12.516   8.018   9.682  1.00  0.00     0.078 A 
HETATM    4  C12 UNK     1      13.883   7.477   9.827  1.00  0.00     0.027 A 
HETATM    5  C16 UNK     1      14.932   8.363  10.063  1.00  0.00     0.092 A 
HETATM    6  C17 UNK     1      14.212   6.113   9.743  1.00  0.00     0.017 A 
HETATM    7  O2  UNK     1      14.707   9.746  10.166  1.00  0.00    -0.273 OA
HETATM    8  C19 UNK     1      16.258   7.944  10.213  1.00  0.00     0.038 A 
HETATM    9  C18 UNK     1      13.441  10.289  10.042  1.00  0.00     0.317 A 
HETATM   10  C15 UNK     1      12.316   9.350   9.786  1.00  0.00     0.130 A 
HETATM   11  O3  UNK     1      13.265  11.500  10.138  1.00  0.00    -0.257 OA
HETATM   12  C21 UNK     1      16.557   6.590  10.125  1.00  0.00     0.003 A 
HETATM   13  C20 UNK     1      15.535   5.675   9.891  1.00  0.00     0.001 A 
BRANCH  10  14
HETATM   14  N3  UNK     1      11.095   9.963   9.670  1.00  0.00    -0.392 N 
HETATM   15  H20 UNK     1      10.835  10.404   8.797  1.00  0.00     0.156 HD
HETATM   16  H21 UNK     1      10.457   9.974  10.456  1.00  0.00     0.156 HD
ENDBRANCH  10  14
ENDBRANCH   1   3
BRANCH   1  17
HETATM   17  C8  UNK     1      10.906   6.804   8.223  1.00  0.00     0.048 A 
HETATM   18  C11 UNK     1      11.717   6.417   7.144  1.00  0.00     0.030 A 
HETATM   19  C14 UNK     1      11.151   6.083   5.914  1.00  0.00     0.002 A 
HETATM   20  C13 UNK     1       9.768   6.130   5.746  1.00  0.00     0.001 A 
HETATM   21  C9  UNK     1       8.949   6.513   6.809  1.00  0.00     0.019 A 
HETATM   22  C7  UNK     1       9.515   6.848   8.039  1.00  0.00     0.058 A 
BRANCH  22  23
HETATM   23  C6  UNK     1       8.626   7.247   9.137  1.00  0.00     0.256 C 
HETATM   24  O1  UNK     1       8.496   8.457   9.318  1.00  0.00    -0.267 OA
HETATM   25  N1  UNK     1       8.013   6.241   9.887  1.00  0.00    -0.348 N 
HETATM   26  C4  UNK     1       7.107   6.453  11.024  1.00  0.00     0.126 C 
HETATM   27  C5  UNK     1       8.305   4.839   9.593  1.00  0.00     0.126 C 
HETATM   28  C2  UNK     1       5.789   5.715  10.802  1.00  0.00     0.020 C 
HETATM   29  C1  UNK     1       6.031   4.235  10.504  1.00  0.00     0.003 C 
HETATM   30  C3  UNK     1       7.015   4.060   9.347  1.00  0.00     0.020 C 
ENDBRANCH  22  23
ENDBRANCH   1  17
TORSDOF 4
ENDMDL
MODEL 2
REMARK VINA RESULT:      -8.6      1.925      3.114
REMARK  4 active torsions:
REMARK  status: ('A' for Active; 'I' for Inactive)
REMARK       I    between atoms: C6_12  and  N1_4 
REMARK    1  A    between atoms: C10_16  and  N2_5 
REMARK    2  A    between atoms: C8_14  and  N2_5 
REMARK    3  A    between atoms: C15_21  and  N3_6 
REMARK    4  A    between atoms: C6_12  and  C7_13 
ROOT
HETATM    1  N2  UNK     1      11.658   6.839   9.484  1.00  0.00    -0.353 N 
HETATM    2  H12 UNK     1      11.072   6.777  10.311  1.00  0.00     0.166 HD
ENDROOT
BRANCH   1   3
HETATM    3  C10 UNK     1      12.996   6.668   9.737  1.00  0.00     0.078 A 
HETATM    4  C12 UNK     1      13.761   7.822  10.255  1.00  0.00     0.027 A 
HETATM    5  C16 UNK     1      15.119   7.661  10.521  1.00  0.00     0.092 A 
HETATM    6  C17 UNK     1      13.213   9.092  10.504  1.00  0.00     0.017 A 
HETATM    7  O2  UNK     1      15.762   6.431  10.302  1.00  0.00    -0.273 OA
HETATM    8  C19 UNK     1      15.922   8.694  11.012  1.00  0.00     0.038 A 
HETATM    9  C18 UNK     1      15.081   5.330   9.813  1.00  0.00     0.317 A 
HETATM   10  C15 UNK     1      13.630   5.493   9.530  1.00  0.00     0.130 A 
HETATM   11  O3  UNK     1      15.662   4.265   9.626  1.00  0.00    -0.257 OA
HETATM   12  C21 UNK     1      15.356   9.940  11.251  1.00  0.00     0.003 A 
HETATM   13  C20 UNK     1      14.003  10.139  10.997  1.00  0.00     0.001 A 
BRANCH  10  14
HETATM   14  N3  UNK     1      13.025   4.359   9.054  1.00  0.00    -0.392 N 
HETATM   15  H20 UNK     1      12.143   4.429   8.560  1.00  0.00     0.156 HD
HETATM   16  H21 UNK     1      13.458   3.455   9.197  1.00  0.00     0.156 HD
ENDBRANCH  10  14
ENDBRANCH   1   3
BRANCH   1  17
HETATM   17  C8  UNK     1      10.986   6.690   8.271  1.00  0.00     0.048 A 
HETATM   18  C11 UNK     1      11.510   7.275   7.108  1.00  0.00     0.030 A 
HETATM   19  C14 UNK     1      10.853   7.138   5.885  1.00  0.00     0.002 A 
HETATM   20  C13 UNK     1       9.664   6.413   5.810  1.00  0.00     0.001 A 
HETATM   21  C9  UNK     1       9.131   5.826   6.957  1.00  0.00     0.019 A 
HETATM   22  C7  UNK     1       9.788   5.963   8.180  1.00  0.00     0.058 A 
BRANCH  22  23
HETATM   23  C6  UNK     1       9.201   5.333   9.369  1.00  0.00     0.256 C 
HETATM   24  O1  UNK     1       9.901   4.502   9.945  1.00  0.00    -0.267 OA
HETATM   25  N1  UNK     1       7.910   5.712   9.744  1.00  0.00    -0.348 N 
HETATM   26  C4  UNK     1       7.162   5.182  10.893  1.00  0.00     0.126 C 
HETATM   27  C5  UNK     1       7.172   6.676   8.929  1.00  0.00     0.126 C 
HETATM   28  C2  UNK     1       6.685   6.320  11.791  1.00  0.00     0.020 C 
HETATM   29  C1  UNK     1       5.892   7.355  10.994  1.00  0.00     0.003 C 
HETATM   30  C3  UNK     1       6.687   7.844   9.783  1.00  0.00     0.020 C 
ENDBRANCH  22  23
ENDBRANCH   1  17
TORSDOF 4
ENDMDL
MODEL 3
REMARK VINA RESULT:      -8.6     32.828     35.993
REMARK  4 active torsions:
REMARK  status: ('A' for Active; 'I' for Inactive)
REMARK       I    between atoms: C6_12  and  N1_4 
REMARK    1  A    between atoms: C10_16  and  N2_5 
REMARK    2  A    between atoms: C8_14  and  N2_5 
REMARK    3  A    between atoms: C15_21  and  N3_6 
REMARK    4  A    between atoms: C6_12  and  C7_13 
ROOT
HETATM    1  N2  UNK     1      30.180  -6.658  35.914  1.00  0.00    -0.353 N 
HETATM    2  H12 UNK     1      31.164  -6.906  35.964  1.00  0.00     0.166 HD
ENDROOT
BRANCH   1   3
HETATM    3  C10 UNK     1      29.620  -6.357  37.131  1.00  0.00     0.078 A 
HETATM    4  C12 UNK     1      28.848  -7.409  37.824  1.00  0.00     0.027 A 
HETATM    5  C16 UNK     1      28.279  -7.117  39.062  1.00  0.00     0.092 A 
HETATM    6  C17 UNK     1      28.641  -8.705  37.321  1.00  0.00     0.017 A 
HETATM    7  O2  UNK     1      28.426  -5.850  39.649  1.00  0.00    -0.273 OA
HETATM    8  C19 UNK     1      27.533  -8.049  39.790  1.00  0.00     0.038 A 
HETATM    9  C18 UNK     1      29.137  -4.838  39.029  1.00  0.00     0.317 A 
HETATM   10  C15 UNK     1      29.751  -5.142  37.708  1.00  0.00     0.130 A 
HETATM   11  O3  UNK     1      29.251  -3.736  39.557  1.00  0.00    -0.257 OA
HETATM   12  C21 UNK     1      27.344  -9.324  39.271  1.00  0.00     0.003 A 
HETATM   13  C20 UNK     1      27.897  -9.652  38.037  1.00  0.00     0.001 A 
BRANCH  10  14
HETATM   14  N3  UNK     1      30.441  -4.093  37.160  1.00  0.00    -0.392 N 
HETATM   15  H20 UNK     1      31.314  -3.793  37.575  1.00  0.00     0.156 HD
HETATM   16  H21 UNK     1      30.077  -3.619  36.342  1.00  0.00     0.156 HD
ENDBRANCH  10  14
ENDBRANCH   1   3
BRANCH   1  17
HETATM   17  C8  UNK     1      29.724  -6.301  34.645  1.00  0.00     0.048 A 
HETATM   18  C11 UNK     1      28.388  -6.544  34.291  1.00  0.00     0.030 A 
HETATM   19  C14 UNK     1      27.913  -6.195  33.026  1.00  0.00     0.002 A 
HETATM   20  C13 UNK     1      28.768  -5.597  32.101  1.00  0.00     0.001 A 
HETATM   21  C9  UNK     1      30.099  -5.349  32.439  1.00  0.00     0.019 A 
HETATM   22  C7  UNK     1      30.573  -5.698  33.703  1.00  0.00     0.058 A 
BRANCH  22  23
HETATM   23  C6  UNK     1      31.979  -5.424  34.027  1.00  0.00     0.256 C 
HETATM   24  O1  UNK     1      32.204  -4.369  34.617  1.00  0.00    -0.267 OA
HETATM   25  N1  UNK     1      32.938  -6.362  33.640  1.00  0.00    -0.348 N 
HETATM   26  C4  UNK     1      34.386  -6.250  33.868  1.00  0.00     0.126 C 
HETATM   27  C5  UNK     1      32.529  -7.550  32.893  1.00  0.00     0.126 C 
HETATM   28  C2  UNK     1      34.910  -7.488  34.591  1.00  0.00     0.020 C 
HETATM   29  C1  UNK     1      34.524  -8.766  33.846  1.00  0.00     0.003 C 
HETATM   30  C3  UNK     1      33.018  -8.819  33.588  1.00  0.00     0.020 C 
ENDBRANCH  22  23
ENDBRANCH   1  17
TORSDOF 4
ENDMDL
MODEL 4
REMARK VINA RESULT:      -8.6     32.156     35.164
REMARK  4 active torsions:
REMARK  status: ('A' for Active; 'I' for Inactive)
REMARK       I    between atoms: C6_12  and  N1_4 
REMARK    1  A    between atoms: C10_16  and  N2_5 
REMARK    2  A    between atoms: C8_14  and  N2_5 
REMARK    3  A    between atoms: C15_21  and  N3_6 
REMARK    4  A    between atoms: C6_12  and  C7_13 
ROOT
HETATM    1  N2  UNK     1      29.756  -5.776  35.608  1.00  0.00    -0.353 N 
HETATM    2  H12 UNK     1      28.979  -5.600  34.978  1.00  0.00     0.166 HD
ENDROOT
BRANCH   1   3
HETATM    3  C10 UNK     1      29.414  -5.730  36.937  1.00  0.00     0.078 A 
HETATM    4  C12 UNK     1      28.696  -6.885  37.515  1.00  0.00     0.027 A 
HETATM    5  C16 UNK     1      28.348  -6.851  38.864  1.00  0.00     0.092 A 
HETATM    6  C17 UNK     1      28.331  -8.035  36.794  1.00  0.00     0.017 A 
HETATM    7  O2  UNK     1      28.666  -5.745  39.669  1.00  0.00    -0.273 OA
HETATM    8  C19 UNK     1      27.669  -7.897  39.496  1.00  0.00     0.038 A 
HETATM    9  C18 UNK     1      29.333  -4.644  39.164  1.00  0.00     0.317 A 
HETATM   10  C15 UNK     1      29.711  -4.673  37.725  1.00  0.00     0.130 A 
HETATM   11  O3  UNK     1      29.599  -3.685  39.884  1.00  0.00    -0.257 OA
HETATM   12  C21 UNK     1      27.320  -9.023  38.762  1.00  0.00     0.003 A 
HETATM   13  C20 UNK     1      27.650  -9.093  37.412  1.00  0.00     0.001 A 
BRANCH  10  14
HETATM   14  N3  UNK     1      30.371  -3.550  37.300  1.00  0.00    -0.392 N 
HETATM   15  H20 UNK     1      30.966  -3.595  36.481  1.00  0.00     0.156 HD
HETATM   16  H21 UNK     1      30.265  -2.678  37.804  1.00  0.00     0.156 HD
ENDBRANCH  10  14
ENDBRANCH   1   3
BRANCH   1  17
HETATM   17  C8  UNK     1      30.861  -6.395  35.025  1.00  0.00     0.048 A 
HETATM   18  C11 UNK     1      31.848  -6.971  35.841  1.00  0.00     0.030 A 
HETATM   19  C14 UNK     1      32.962  -7.593  35.277  1.00  0.00     0.002 A 
HETATM   20  C13 UNK     1      33.103  -7.648  33.891  1.00  0.00     0.001 A 
HETATM   21  C9  UNK     1      32.131  -7.080  33.067  1.00  0.00     0.019 A 
HETATM   22  C7  UNK     1      31.017  -6.458  33.631  1.00  0.00     0.058 A 
BRANCH  22  23
HETATM   23  C6  UNK     1      30.012  -5.869  32.737  1.00  0.00     0.256 C 
HETATM   24  O1  UNK     1      30.167  -4.683  32.452  1.00  0.00    -0.267 OA
HETATM   25  N1  UNK     1      28.968  -6.684  32.293  1.00  0.00    -0.348 N 
HETATM   26  C4  UNK     1      27.872  -6.265  31.409  1.00  0.00     0.126 C 
HETATM   27  C5  UNK     1      28.880  -8.067  32.760  1.00  0.00     0.126 C 
HETATM   28  C2  UNK     1      27.782  -7.187  30.195  1.00  0.00     0.020 C 
HETATM   29  C1  UNK     1      27.673  -8.651  30.623  1.00  0.00     0.003 C 
HETATM   30  C3  UNK     1      28.804  -9.031  31.578  1.00  0.00     0.020 C 
ENDBRANCH  22  23
ENDBRANCH   1  17
TORSDOF 4
ENDMDL
MODEL 5
REMARK VINA RESULT:      -8.3      2.552      7.132
REMARK  4 active torsions:
REMARK  status: ('A' for Active; 'I' for Inactive)
REMARK       I    between atoms: C6_12  and  N1_4 
REMARK    1  A    between atoms: C10_16  and  N2_5 
REMARK    2  A    between atoms: C8_14  and  N2_5 
REMARK    3  A    between atoms: C15_21  and  N3_6 
REMARK    4  A    between atoms: C6_12  and  C7_13 
ROOT
HETATM    1  N2  UNK     1       8.989   5.618   9.373  1.00  0.00    -0.353 N 
HETATM    2  H12 UNK     1       9.744   5.651  10.051  1.00  0.00     0.166 HD
ENDROOT
BRANCH   1   3
HETATM    3  C10 UNK     1       7.737   5.656   9.933  1.00  0.00     0.078 A 
HETATM    4  C12 UNK     1       7.244   6.948  10.454  1.00  0.00     0.027 A 
HETATM    5  C16 UNK     1       5.972   7.001  11.020  1.00  0.00     0.092 A 
HETATM    6  C17 UNK     1       7.973   8.149  10.420  1.00  0.00     0.017 A 
HETATM    7  O2  UNK     1       5.165   5.854  11.104  1.00  0.00    -0.273 OA
HETATM    8  C19 UNK     1       5.423   8.177  11.538  1.00  0.00     0.038 A 
HETATM    9  C18 UNK     1       5.593   4.626  10.632  1.00  0.00     0.317 A 
HETATM   10  C15 UNK     1       6.948   4.562  10.022  1.00  0.00     0.130 A 
HETATM   11  O3  UNK     1       4.874   3.635  10.717  1.00  0.00    -0.257 OA
HETATM   12  C21 UNK     1       6.164   9.351  11.492  1.00  0.00     0.003 A 
HETATM   13  C20 UNK     1       7.438   9.338  10.934  1.00  0.00     0.001 A 
BRANCH  10  14
HETATM   14  N3  UNK     1       7.299   3.315   9.575  1.00  0.00    -0.392 N 
HETATM   15  H20 UNK     1       7.295   2.531  10.216  1.00  0.00     0.156 HD
HETATM   16  H21 UNK     1       7.564   3.180   8.607  1.00  0.00     0.156 HD
ENDBRANCH  10  14
ENDBRANCH   1   3
BRANCH   1  17
HETATM   17  C8  UNK     1       9.356   5.931   8.064  1.00  0.00     0.048 A 
HETATM   18  C11 UNK     1       8.390   6.408   7.165  1.00  0.00     0.030 A 
HETATM   19  C14 UNK     1       8.737   6.726   5.851  1.00  0.00     0.002 A 
HETATM   20  C13 UNK     1      10.055   6.572   5.421  1.00  0.00     0.001 A 
HETATM   21  C9  UNK     1      11.026   6.099   6.304  1.00  0.00     0.019 A 
HETATM   22  C7  UNK     1      10.679   5.781   7.617  1.00  0.00     0.058 A 
BRANCH  22  23
HETATM   23  C6  UNK     1      11.724   5.285   8.521  1.00  0.00     0.256 C 
HETATM   24  O1  UNK     1      11.775   4.066   8.676  1.00  0.00    -0.267 OA
HETATM   25  N1  UNK     1      12.562   6.220   9.134  1.00  0.00    -0.348 N 
HETATM   26  C4  UNK     1      13.649   5.909  10.072  1.00  0.00     0.126 C 
HETATM   27  C5  UNK     1      12.349   7.647   8.899  1.00  0.00     0.126 C 
HETATM   28  C2  UNK     1      14.961   6.527   9.594  1.00  0.00     0.020 C 
HETATM   29  C1  UNK     1      14.803   8.027   9.345  1.00  0.00     0.003 C 
HETATM   30  C3  UNK     1      13.633   8.309   8.403  1.00  0.00     0.020 C 
ENDBRANCH  22  23
ENDBRANCH   1  17
TORSDOF 4
ENDMDL
MODEL 6
REMARK VINA RESULT:      -8.1     32.740     35.793
REMARK  4 active torsions:
REMARK  status: ('A' for Active; 'I' for Inactive)
REMARK       I    between atoms: C6_12  and  N1_4 
REMARK    1  A    between atoms: C10_16  and  N2_5 
REMARK    2  A    between atoms: C8_14  and  N2_5 
REMARK    3  A    between atoms: C15_21  and  N3_6 
REMARK    4  A    between atoms: C6_12  and  C7_13 
ROOT
HETATM    1  N2  UNK     1      30.031  -6.457  35.862  1.00  0.00    -0.353 N 
HETATM    2  H12 UNK     1      29.316  -6.399  35.142  1.00  0.00     0.166 HD
ENDROOT
BRANCH   1   3
HETATM    3  C10 UNK     1      29.567  -6.197  37.128  1.00  0.00     0.078 A 
HETATM    4  C12 UNK     1      28.808  -7.255  37.825  1.00  0.00     0.027 A 
HETATM    5  C16 UNK     1      28.337  -7.005  39.112  1.00  0.00     0.092 A 
HETATM    6  C17 UNK     1      28.520  -8.518  37.279  1.00  0.00     0.017 A 
HETATM    7  O2  UNK     1      28.570  -5.773  39.745  1.00  0.00    -0.273 OA
HETATM    8  C19 UNK     1      27.610  -7.945  39.848  1.00  0.00     0.038 A 
HETATM    9  C18 UNK     1      29.271  -4.755  39.123  1.00  0.00     0.317 A 
HETATM   10  C15 UNK     1      29.781  -5.016  37.749  1.00  0.00     0.130 A 
HETATM   11  O3  UNK     1      29.462  -3.684  39.691  1.00  0.00    -0.257 OA
HETATM   12  C21 UNK     1      27.340  -9.187  39.287  1.00  0.00     0.003 A 
HETATM   13  C20 UNK     1      27.794  -9.473  38.003  1.00  0.00     0.001 A 
BRANCH  10  14
HETATM   14  N3  UNK     1      30.469  -3.965  37.202  1.00  0.00    -0.392 N 
HETATM   15  H20 UNK     1      31.081  -3.406  37.784  1.00  0.00     0.156 HD
HETATM   16  H21 UNK     1      30.364  -3.748  36.218  1.00  0.00     0.156 HD
ENDBRANCH  10  14
ENDBRANCH   1   3
BRANCH   1  17
HETATM   17  C8  UNK     1      31.185  -7.147  35.493  1.00  0.00     0.048 A 
HETATM   18  C11 UNK     1      32.386  -6.913  36.182  1.00  0.00     0.030 A 
HETATM   19  C14 UNK     1      33.552  -7.593  35.828  1.00  0.00     0.002 A 
HETATM   20  C13 UNK     1      33.532  -8.514  34.781  1.00  0.00     0.001 A 
HETATM   21  C9  UNK     1      32.346  -8.757  34.088  1.00  0.00     0.019 A 
HETATM   22  C7  UNK     1      31.180  -8.078  34.442  1.00  0.00     0.058 A 
BRANCH  22  23
HETATM   23  C6  UNK     1      29.949  -8.355  33.692  1.00  0.00     0.256 C 
HETATM   24  O1  UNK     1      29.207  -9.214  34.165  1.00  0.00    -0.267 OA
HETATM   25  N1  UNK     1      29.722  -7.641  32.513  1.00  0.00    -0.348 N 
HETATM   26  C4  UNK     1      28.556  -7.794  31.631  1.00  0.00     0.126 C 
HETATM   27  C5  UNK     1      30.723  -6.686  32.041  1.00  0.00     0.126 C 
HETATM   28  C2  UNK     1      27.878  -6.445  31.404  1.00  0.00     0.020 C 
HETATM   29  C1  UNK     1      28.876  -5.406  30.894  1.00  0.00     0.003 C 
HETATM   30  C3  UNK     1      30.093  -5.313  31.814  1.00  0.00     0.020 C 
ENDBRANCH  22  23
ENDBRANCH   1  17
TORSDOF 4
ENDMDL
MODEL 7
REMARK VINA RESULT:      -7.9      2.403      6.880
REMARK  4 active torsions:
REMARK  status: ('A' for Active; 'I' for Inactive)
REMARK       I    between atoms: C6_12  and  N1_4 
REMARK    1  A    between atoms: C10_16  and  N2_5 
REMARK    2  A    between atoms: C8_14  and  N2_5 
REMARK    3  A    between atoms: C15_21  and  N3_6 
REMARK    4  A    between atoms: C6_12  and  C7_13 
ROOT
HETATM    1  N2  UNK     1       9.068   5.851   9.335  1.00  0.00    -0.353 N 
HETATM    2  H12 UNK     1       9.840   5.699   9.978  1.00  0.00     0.166 HD
ENDROOT
BRANCH   1   3
HETATM    3  C10 UNK     1       7.894   6.207   9.951  1.00  0.00     0.078 A 
HETATM    4  C12 UNK     1       6.928   5.140  10.281  1.00  0.00     0.027 A 
HETATM    5  C16 UNK     1       5.735   5.488  10.911  1.00  0.00     0.092 A 
HETATM    6  C17 UNK     1       7.124   3.776  10.005  1.00  0.00     0.017 A 
HETATM    7  O2  UNK     1       5.442   6.825  11.228  1.00  0.00    -0.273 OA
HETATM    8  C19 UNK     1       4.762   4.547  11.262  1.00  0.00     0.038 A 
HETATM    9  C18 UNK     1       6.319   7.852  10.929  1.00  0.00     0.317 A 
HETATM   10  C15 UNK     1       7.597   7.489  10.260  1.00  0.00     0.130 A 
HETATM   11  O3  UNK     1       6.044   9.015  11.211  1.00  0.00    -0.257 OA
HETATM   12  C21 UNK     1       4.981   3.204  10.979  1.00  0.00     0.003 A 
HETATM   13  C20 UNK     1       6.160   2.819  10.351  1.00  0.00     0.001 A 
BRANCH  10  14
HETATM   14  N3  UNK     1       8.414   8.558  10.001  1.00  0.00    -0.392 N 
HETATM   15  H20 UNK     1       8.047   9.500  10.069  1.00  0.00     0.156 HD
HETATM   16  H21 UNK     1       9.381   8.406   9.742  1.00  0.00     0.156 HD
ENDBRANCH  10  14
ENDBRANCH   1   3
BRANCH   1  17
HETATM   17  C8  UNK     1       9.438   6.051   8.005  1.00  0.00     0.048 A 
HETATM   18  C11 UNK     1       8.482   6.492   7.076  1.00  0.00     0.030 A 
HETATM   19  C14 UNK     1       8.832   6.697   5.741  1.00  0.00     0.002 A 
HETATM   20  C13 UNK     1      10.140   6.465   5.318  1.00  0.00     0.001 A 
HETATM   21  C9  UNK     1      11.101   6.026   6.231  1.00  0.00     0.019 A 
HETATM   22  C7  UNK     1      10.751   5.821   7.566  1.00  0.00     0.058 A 
BRANCH  22  23
HETATM   23  C6  UNK     1      11.785   5.359   8.500  1.00  0.00     0.256 C 
HETATM   24  O1  UNK     1      11.848   4.144   8.682  1.00  0.00    -0.267 OA
HETATM   25  N1  UNK     1      12.598   6.317   9.109  1.00  0.00    -0.348 N 
HETATM   26  C4  UNK     1      13.670   6.041  10.074  1.00  0.00     0.126 C 
HETATM   27  C5  UNK     1      12.371   7.736   8.838  1.00  0.00     0.126 C 
HETATM   28  C2  UNK     1      14.983   6.667   9.609  1.00  0.00     0.020 C 
HETATM   29  C1  UNK     1      14.811   8.159   9.324  1.00  0.00     0.003 C 
HETATM   30  C3  UNK     1      13.656   8.404   8.353  1.00  0.00     0.020 C 
ENDBRANCH  22  23
ENDBRANCH   1  17
TORSDOF 4
ENDMDL
MODEL 8
REMARK VINA RESULT:      -7.9     23.081     25.006
REMARK  4 active torsions:
REMARK  status: ('A' for Active; 'I' for Inactive)
REMARK       I    between atoms: C6_12  and  N1_4 
REMARK    1  A    between atoms: C10_16  and  N2_5 
REMARK    2  A    between atoms: C8_14  and  N2_5 
REMARK    3  A    between atoms: C15_21  and  N3_6 
REMARK    4  A    between atoms: C6_12  and  C7_13 
ROOT
HETATM    1  N2  UNK     1      17.753   2.860  31.939  1.00  0.00    -0.353 N 
HETATM    2  H12 UNK     1      16.744   2.820  31.824  1.00  0.00     0.166 HD
ENDROOT
BRANCH   1   3
HETATM    3  C10 UNK     1      18.313   1.677  32.351  1.00  0.00     0.078 A 
HETATM    4  C12 UNK     1      18.947   0.813  31.334  1.00  0.00     0.027 A 
HETATM    5  C16 UNK     1      19.524  -0.388  31.741  1.00  0.00     0.092 A 
HETATM    6  C17 UNK     1      19.015   1.116  29.964  1.00  0.00     0.017 A 
HETATM    7  O2  UNK     1      19.506  -0.783  33.089  1.00  0.00    -0.273 OA
HETATM    8  C19 UNK     1      20.146  -1.269  30.851  1.00  0.00     0.038 A 
HETATM    9  C18 UNK     1      18.918  -0.005  34.069  1.00  0.00     0.317 A 
HETATM   10  C15 UNK     1      18.303   1.282  33.643  1.00  0.00     0.130 A 
HETATM   11  O3  UNK     1      18.910  -0.369  35.241  1.00  0.00    -0.257 OA
HETATM   12  C21 UNK     1      20.201  -0.945  29.501  1.00  0.00     0.003 A 
HETATM   13  C20 UNK     1      19.635   0.246  29.057  1.00  0.00     0.001 A 
BRANCH  10  14
HETATM   14  N3  UNK     1      17.745   1.999  34.669  1.00  0.00    -0.392 N 
HETATM   15  H20 UNK     1      17.856   1.681  35.624  1.00  0.00     0.156 HD
HETATM   16  H21 UNK     1      17.222   2.843  34.472  1.00  0.00     0.156 HD
ENDBRANCH  10  14
ENDBRANCH   1   3
BRANCH   1  17
HETATM   17  C8  UNK     1      18.377   3.932  31.301  1.00  0.00     0.048 A 
HETATM   18  C11 UNK     1      18.797   3.801  29.968  1.00  0.00     0.030 A 
HETATM   19  C14 UNK     1      19.424   4.861  29.313  1.00  0.00     0.002 A 
HETATM   20  C13 UNK     1      19.638   6.066  29.982  1.00  0.00     0.001 A 
HETATM   21  C9  UNK     1      19.226   6.211  31.307  1.00  0.00     0.019 A 
HETATM   22  C7  UNK     1      18.599   5.151  31.962  1.00  0.00     0.058 A 
BRANCH  22  23
HETATM   23  C6  UNK     1      18.178   5.336  33.356  1.00  0.00     0.256 C 
HETATM   24  O1  UNK     1      18.783   4.674  34.198  1.00  0.00    -0.267 OA
HETATM   25  N1  UNK     1      17.135   6.226  33.616  1.00  0.00    -0.348 N 
HETATM   26  C4  UNK     1      16.576   6.527  34.942  1.00  0.00     0.126 C 
HETATM   27  C5  UNK     1      16.469   6.905  32.505  1.00  0.00     0.126 C 
HETATM   28  C2  UNK     1      16.599   8.031  35.203  1.00  0.00     0.020 C 
HETATM   29  C1  UNK     1      15.901   8.795  34.078  1.00  0.00     0.003 C 
HETATM   30  C3  UNK     1      16.480   8.418  32.715  1.00  0.00     0.020 C 
ENDBRANCH  22  23
ENDBRANCH   1  17
TORSDOF 4
ENDMDL
MODEL 9
REMARK VINA RESULT:      -7.9     31.949     35.197
REMARK  4 active torsions:
REMARK  status: ('A' for Active; 'I' for Inactive)
REMARK       I    between atoms: C6_12  and  N1_4 
REMARK    1  A    between atoms: C10_16  and  N2_5 
REMARK    2  A    between atoms: C8_14  and  N2_5 
REMARK    3  A    between atoms: C15_21  and  N3_6 
REMARK    4  A    between atoms: C6_12  and  C7_13 
ROOT
HETATM    1  N2  UNK     1      30.662  -5.433  34.496  1.00  0.00    -0.353 N 
HETATM    2  H12 UNK     1      30.100  -4.714  34.941  1.00  0.00     0.166 HD
ENDROOT
BRANCH   1   3
HETATM    3  C10 UNK     1      30.038  -6.054  33.442  1.00  0.00     0.078 A 
HETATM    4  C12 UNK     1      29.741  -7.497  33.559  1.00  0.00     0.027 A 
HETATM    5  C16 UNK     1      29.103  -8.138  32.499  1.00  0.00     0.092 A 
HETATM    6  C17 UNK     1      30.057  -8.286  34.679  1.00  0.00     0.017 A 
HETATM    7  O2  UNK     1      28.747  -7.438  31.335  1.00  0.00    -0.273 OA
HETATM    8  C19 UNK     1      28.781  -9.498  32.521  1.00  0.00     0.038 A 
HETATM    9  C18 UNK     1      29.014  -6.089  31.185  1.00  0.00     0.317 A 
HETATM   10  C15 UNK     1      29.691  -5.396  32.314  1.00  0.00     0.130 A 
HETATM   11  O3  UNK     1      28.698  -5.496  30.158  1.00  0.00    -0.257 OA
HETATM   12  C21 UNK     1      29.104 -10.256  33.640  1.00  0.00     0.003 A 
HETATM   13  C20 UNK     1      29.741  -9.651  34.718  1.00  0.00     0.001 A 
BRANCH  10  14
HETATM   14  N3  UNK     1      29.917  -4.062  32.095  1.00  0.00    -0.392 N 
HETATM   15  H20 UNK     1      29.418  -3.583  31.356  1.00  0.00     0.156 HD
HETATM   16  H21 UNK     1      30.583  -3.560  32.669  1.00  0.00     0.156 HD
ENDBRANCH  10  14
ENDBRANCH   1   3
BRANCH   1  17
HETATM   17  C8  UNK     1      32.028  -5.370  34.770  1.00  0.00     0.048 A 
HETATM   18  C11 UNK     1      32.936  -6.055  33.948  1.00  0.00     0.030 A 
HETATM   19  C14 UNK     1      34.306  -6.005  34.207  1.00  0.00     0.002 A 
HETATM   20  C13 UNK     1      34.786  -5.269  35.290  1.00  0.00     0.001 A 
HETATM   21  C9  UNK     1      33.895  -4.583  36.116  1.00  0.00     0.019 A 
HETATM   22  C7  UNK     1      32.525  -4.633  35.857  1.00  0.00     0.058 A 
BRANCH  22  23
HETATM   23  C6  UNK     1      31.614  -3.901  36.746  1.00  0.00     0.256 C 
HETATM   24  O1  UNK     1      31.463  -2.705  36.503  1.00  0.00    -0.267 OA
HETATM   25  N1  UNK     1      31.005  -4.604  37.788  1.00  0.00    -0.348 N 
HETATM   26  C4  UNK     1      30.079  -4.035  38.777  1.00  0.00     0.126 C 
HETATM   27  C5  UNK     1      31.323  -6.016  37.991  1.00  0.00     0.126 C 
HETATM   28  C2  UNK     1      28.776  -4.831  38.808  1.00  0.00     0.020 C 
HETATM   29  C1  UNK     1      29.045  -6.319  39.033  1.00  0.00     0.003 C 
HETATM   30  C3  UNK     1      30.048  -6.857  38.014  1.00  0.00     0.020 C 
ENDBRANCH  22  23
ENDBRANCH   1  17
TORSDOF 4
ENDMDL
MODEL 10
REMARK VINA RESULT:      -7.8     35.292     36.856
REMARK  4 active torsions:
REMARK  status: ('A' for Active; 'I' for Inactive)
REMARK       I    between atoms: C6_12  and  N1_4 
REMARK    1  A    between atoms: C10_16  and  N2_5 
REMARK    2  A    between atoms: C8_14  and  N2_5 
REMARK    3  A    between atoms: C15_21  and  N3_6 
REMARK    4  A    between atoms: C6_12  and  C7_13 
ROOT
HETATM    1  N2  UNK     1      30.636  -5.838  35.895  1.00  0.00    -0.353 N 
HETATM    2  H12 UNK     1      30.144  -6.426  35.229  1.00  0.00     0.166 HD
ENDROOT
BRANCH   1   3
HETATM    3  C10 UNK     1      30.008  -5.731  37.111  1.00  0.00     0.078 A 
HETATM    4  C12 UNK     1      29.273  -6.905  37.624  1.00  0.00     0.027 A 
HETATM    5  C16 UNK     1      28.637  -6.810  38.860  1.00  0.00     0.092 A 
HETATM    6  C17 UNK     1      29.167  -8.134  36.949  1.00  0.00     0.017 A 
HETATM    7  O2  UNK     1      28.682  -5.625  39.612  1.00  0.00    -0.273 OA
HETATM    8  C19 UNK     1      27.919  -7.869  39.425  1.00  0.00     0.038 A 
HETATM    9  C18 UNK     1      29.354  -4.503  39.163  1.00  0.00     0.317 A 
HETATM   10  C15 UNK     1      30.041  -4.597  37.846  1.00  0.00     0.130 A 
HETATM   11  O3  UNK     1      29.380  -3.475  39.834  1.00  0.00    -0.257 OA
HETATM   12  C21 UNK     1      27.829  -9.073  38.737  1.00  0.00     0.003 A 
HETATM   13  C20 UNK     1      28.452  -9.206  37.500  1.00  0.00     0.001 A 
BRANCH  10  14
HETATM   14  N3  UNK     1      30.688  -3.449  37.472  1.00  0.00    -0.392 N 
HETATM   15  H20 UNK     1      30.554  -2.599  38.006  1.00  0.00     0.156 HD
HETATM   16  H21 UNK     1      31.298  -3.451  36.664  1.00  0.00     0.156 HD
ENDBRANCH  10  14
ENDBRANCH   1   3
BRANCH   1  17
HETATM   17  C8  UNK     1      31.977  -5.600  35.595  1.00  0.00     0.048 A 
HETATM   18  C11 UNK     1      32.381  -4.319  35.185  1.00  0.00     0.030 A 
HETATM   19  C14 UNK     1      33.718  -4.060  34.879  1.00  0.00     0.002 A 
HETATM   20  C13 UNK     1      34.666  -5.078  34.980  1.00  0.00     0.001 A 
HETATM   21  C9  UNK     1      34.279  -6.355  35.386  1.00  0.00     0.019 A 
HETATM   22  C7  UNK     1      32.943  -6.614  35.692  1.00  0.00     0.058 A 
BRANCH  22  23
HETATM   23  C6  UNK     1      32.567  -7.969  36.115  1.00  0.00     0.256 C 
HETATM   24  O1  UNK     1      32.587  -8.184  37.326  1.00  0.00    -0.267 OA
HETATM   25  N1  UNK     1      32.231  -8.897  35.127  1.00  0.00    -0.348 N 
HETATM   26  C4  UNK     1      31.844 -10.295  35.363  1.00  0.00     0.126 C 
HETATM   27  C5  UNK     1      32.306  -8.514  33.718  1.00  0.00     0.126 C 
HETATM   28  C2  UNK     1      30.501 -10.596  34.702  1.00  0.00     0.020 C 
HETATM   29  C1  UNK     1      30.524 -10.229  33.218  1.00  0.00     0.003 C 
HETATM   30  C3  UNK     1      30.977  -8.783  33.016  1.00  0.00     0.020 C 
ENDBRANCH  22  23
ENDBRANCH   1  17
TORSDOF 4
ENDMDL
