MODEL 1
REMARK VINA RESULT:      -7.9      0.000      0.000
REMARK  6 active torsions:
REMARK  status: ('A' for Active; 'I' for Inactive)
REMARK    1  A    between atoms: C11_15  and  O1_1 
REMARK    2  A    between atoms: C5_9  and  O2_2 
REMARK    3  A    between atoms: C15_19  and  O4_4 
REMARK    4  A    between atoms: C1_5  and  C6_10 
REMARK    5  A    between atoms: C10_14  and  C4_8 
REMARK    6  A    between atoms: C12_16  and  C6_10 
ROOT
HETATM    1  C10 UNK     1      19.392   5.447  30.276  1.00  0.00     0.015 C 
HETATM    2  C12 UNK     1      19.057   4.199  29.879  1.00  0.00     0.056 C 
ENDROOT
BRANCH   2   3
HETATM    3  C6  UNK     1      18.303   3.296  30.793  1.00  0.00     0.184 C 
HETATM    4  O3  UNK     1      17.289   3.650  31.383  1.00  0.00    -0.287 OA
BRANCH   3   5
HETATM    5  C1  UNK     1      18.801   1.908  30.954  1.00  0.00     0.048 A 
HETATM    6  C3  UNK     1      19.488   1.307  29.899  1.00  0.00     0.025 A 
HETATM    7  C2  UNK     1      19.964   0.002  30.031  1.00  0.00    -0.061 A 
HETATM    8  C14 UNK     1      20.697  -0.641  28.903  1.00  0.00     0.048 C 
HETATM    9  C7  UNK     1      19.752  -0.701  31.217  1.00  0.00     0.009 A 
HETATM   10  C8  UNK     1      19.065  -0.099  32.271  1.00  0.00     0.038 A 
HETATM   11  C5  UNK     1      18.590   1.205  32.140  1.00  0.00     0.079 A 
BRANCH  11  12
HETATM   12  O2  UNK     1      17.922   1.775  33.182  1.00  0.00    -0.360 OA
HETATM   13  H12 UNK     1      18.518   2.389  33.644  1.00  0.00     0.217 HD
ENDBRANCH  11  12
ENDBRANCH   3   5
ENDBRANCH   2   3
BRANCH   1  14
HETATM   14  C4  UNK     1      19.074   6.029  31.571  1.00  0.00    -0.033 A 
HETATM   15  C13 UNK     1      19.921   5.813  32.659  1.00  0.00     0.014 A 
HETATM   16  C16 UNK     1      19.615   6.371  33.901  1.00  0.00     0.040 A 
HETATM   17  C15 UNK     1      18.465   7.144  34.054  1.00  0.00     0.099 A 
HETATM   18  C11 UNK     1      17.618   7.359  32.967  1.00  0.00     0.102 A 
HETATM   19  C9  UNK     1      17.924   6.801  31.725  1.00  0.00     0.051 A 
BRANCH  17  20
HETATM   20  O4  UNK     1      18.178   7.682  35.272  1.00  0.00    -0.358 OA
HETATM   21  H13 UNK     1      17.619   7.061  35.770  1.00  0.00     0.217 HD
ENDBRANCH  17  20
BRANCH  18  22
HETATM   22  O1  UNK     1      16.492   8.112  33.105  1.00  0.00    -0.353 OA
HETATM   23  C17 UNK     1      15.682   8.285  31.944  1.00  0.00     0.210 C 
ENDBRANCH  18  22
ENDBRANCH   1  14
TORSDOF 6
ENDMDL
MODEL 2
REMARK VINA RESULT:      -7.9     22.894     24.780
REMARK  6 active torsions:
REMARK  status: ('A' for Active; 'I' for Inactive)
REMARK    1  A    between atoms: C11_15  and  O1_1 
REMARK    2  A    between atoms: C5_9  and  O2_2 
REMARK    3  A    between atoms: C15_19  and  O4_4 
REMARK    4  A    between atoms: C1_5  and  C6_10 
REMARK    5  A    between atoms: C10_14  and  C4_8 
REMARK    6  A    between atoms: C12_16  and  C6_10 
ROOT
HETATM    1  C10 UNK     1      12.278   4.762   8.089  1.00  0.00     0.015 C 
HETATM    2  C12 UNK     1      13.486   5.366   8.024  1.00  0.00     0.056 C 
ENDROOT
BRANCH   2   3
HETATM    3  C6  UNK     1      13.583   6.832   7.780  1.00  0.00     0.184 C 
HETATM    4  O3  UNK     1      13.616   7.314   6.654  1.00  0.00    -0.287 OA
BRANCH   3   5
HETATM    5  C1  UNK     1      13.604   7.726   8.963  1.00  0.00     0.048 A 
HETATM    6  C3  UNK     1      14.618   7.576   9.909  1.00  0.00     0.025 A 
HETATM    7  C2  UNK     1      14.656   8.408  11.028  1.00  0.00    -0.061 A 
HETATM    8  C14 UNK     1      15.739   8.246  12.041  1.00  0.00     0.048 C 
HETATM    9  C7  UNK     1      13.680   9.390  11.202  1.00  0.00     0.009 A 
HETATM   10  C8  UNK     1      12.667   9.540  10.255  1.00  0.00     0.038 A 
HETATM   11  C5  UNK     1      12.629   8.709   9.136  1.00  0.00     0.079 A 
BRANCH  11  12
HETATM   12  O2  UNK     1      11.631   8.872   8.222  1.00  0.00    -0.360 OA
HETATM   13  H12 UNK     1      11.421   9.818   8.147  1.00  0.00     0.217 HD
ENDBRANCH  11  12
ENDBRANCH   3   5
ENDBRANCH   2   3
BRANCH   1  14
HETATM   14  C4  UNK     1      10.996   5.434   7.937  1.00  0.00    -0.033 A 
HETATM   15  C13 UNK     1      10.543   5.794   6.668  1.00  0.00     0.014 A 
HETATM   16  C16 UNK     1       9.314   6.439   6.523  1.00  0.00     0.040 A 
HETATM   17  C15 UNK     1       8.539   6.723   7.648  1.00  0.00     0.099 A 
HETATM   18  C11 UNK     1       8.992   6.363   8.917  1.00  0.00     0.102 A 
HETATM   19  C9  UNK     1      10.221   5.718   9.061  1.00  0.00     0.051 A 
BRANCH  17  20
HETATM   20  O4  UNK     1       7.341   7.353   7.493  1.00  0.00    -0.358 OA
HETATM   21  H13 UNK     1       6.674   6.701   7.217  1.00  0.00     0.217 HD
ENDBRANCH  17  20
BRANCH  18  22
HETATM   22  O1  UNK     1       8.244   6.635  10.022  1.00  0.00    -0.353 OA
HETATM   23  C17 UNK     1       7.465   5.566  10.555  1.00  0.00     0.210 C 
ENDBRANCH  18  22
ENDBRANCH   1  14
TORSDOF 6
ENDMDL
MODEL 3
REMARK VINA RESULT:      -7.8      1.367      1.983
REMARK  6 active torsions:
REMARK  status: ('A' for Active; 'I' for Inactive)
REMARK    1  A    between atoms: C11_15  and  O1_1 
REMARK    2  A    between atoms: C5_9  and  O2_2 
REMARK    3  A    between atoms: C15_19  and  O4_4 
REMARK    4  A    between atoms: C1_5  and  C6_10 
REMARK    5  A    between atoms: C10_14  and  C4_8 
REMARK    6  A    between atoms: C12_16  and  C6_10 
ROOT
HETATM    1  C10 UNK     1      19.088   5.777  30.475  1.00  0.00     0.015 C 
HETATM    2  C12 UNK     1      19.120   4.566  29.874  1.00  0.00     0.056 C 
ENDROOT
BRANCH   2   3
HETATM    3  C6  UNK     1      18.463   3.392  30.512  1.00  0.00     0.184 C 
HETATM    4  O3  UNK     1      17.630   3.505  31.405  1.00  0.00    -0.287 OA
BRANCH   3   5
HETATM    5  C1  UNK     1      18.821   2.044  30.007  1.00  0.00     0.048 A 
HETATM    6  C3  UNK     1      19.598   1.205  30.805  1.00  0.00     0.025 A 
HETATM    7  C2  UNK     1      19.945  -0.067  30.348  1.00  0.00    -0.061 A 
HETATM    8  C14 UNK     1      20.778  -0.963  31.201  1.00  0.00     0.048 C 
HETATM    9  C7  UNK     1      19.516  -0.499  29.093  1.00  0.00     0.009 A 
HETATM   10  C8  UNK     1      18.738   0.341  28.296  1.00  0.00     0.038 A 
HETATM   11  C5  UNK     1      18.390   1.611  28.753  1.00  0.00     0.079 A 
BRANCH  11  12
HETATM   12  O2  UNK     1      17.629   2.416  27.958  1.00  0.00    -0.360 OA
HETATM   13  H12 UNK     1      17.752   3.341  28.232  1.00  0.00     0.217 HD
ENDBRANCH  11  12
ENDBRANCH   3   5
ENDBRANCH   2   3
BRANCH   1  14
HETATM   14  C4  UNK     1      18.443   6.064  31.747  1.00  0.00    -0.033 A 
HETATM   15  C13 UNK     1      19.094   5.762  32.943  1.00  0.00     0.014 A 
HETATM   16  C16 UNK     1      18.475   6.037  34.163  1.00  0.00     0.040 A 
HETATM   17  C15 UNK     1      17.206   6.615  34.186  1.00  0.00     0.099 A 
HETATM   18  C11 UNK     1      16.555   6.917  32.990  1.00  0.00     0.102 A 
HETATM   19  C9  UNK     1      17.174   6.641  31.770  1.00  0.00     0.051 A 
BRANCH  17  20
HETATM   20  O4  UNK     1      16.612   6.879  35.383  1.00  0.00    -0.358 OA
HETATM   21  H13 UNK     1      17.053   7.643  35.793  1.00  0.00     0.217 HD
ENDBRANCH  17  20
BRANCH  18  22
HETATM   22  O1  UNK     1      15.315   7.481  33.000  1.00  0.00    -0.353 OA
HETATM   23  C17 UNK     1      14.409   7.071  31.978  1.00  0.00     0.210 C 
ENDBRANCH  18  22
ENDBRANCH   1  14
TORSDOF 6
ENDMDL
MODEL 4
REMARK VINA RESULT:      -7.7      3.124      7.406
REMARK  6 active torsions:
REMARK  status: ('A' for Active; 'I' for Inactive)
REMARK    1  A    between atoms: C11_15  and  O1_1 
REMARK    2  A    between atoms: C5_9  and  O2_2 
REMARK    3  A    between atoms: C15_19  and  O4_4 
REMARK    4  A    between atoms: C1_5  and  C6_10 
REMARK    5  A    between atoms: C10_14  and  C4_8 
REMARK    6  A    between atoms: C12_16  and  C6_10 
ROOT
HETATM    1  C10 UNK     1      17.058  -0.059  34.769  1.00  0.00     0.015 C 
HETATM    2  C12 UNK     1      17.057   1.285  34.917  1.00  0.00     0.056 C 
ENDROOT
BRANCH   2   3
HETATM    3  C6  UNK     1      18.280   2.077  34.609  1.00  0.00     0.184 C 
HETATM    4  O3  UNK     1      19.258   2.096  35.348  1.00  0.00    -0.287 OA
BRANCH   3   5
HETATM    5  C1  UNK     1      18.306   2.838  33.336  1.00  0.00     0.048 A 
HETATM    6  C3  UNK     1      18.343   2.141  32.129  1.00  0.00     0.025 A 
HETATM    7  C2  UNK     1      18.367   2.839  30.921  1.00  0.00    -0.061 A 
HETATM    8  C14 UNK     1      18.409   2.093  29.630  1.00  0.00     0.048 C 
HETATM    9  C7  UNK     1      18.355   4.234  30.921  1.00  0.00     0.009 A 
HETATM   10  C8  UNK     1      18.318   4.930  32.129  1.00  0.00     0.038 A 
HETATM   11  C5  UNK     1      18.292   4.233  33.336  1.00  0.00     0.079 A 
BRANCH  11  12
HETATM   12  O2  UNK     1      18.256   4.933  34.505  1.00  0.00    -0.360 OA
HETATM   13  H12 UNK     1      18.502   5.857  34.330  1.00  0.00     0.217 HD
ENDBRANCH  11  12
ENDBRANCH   3   5
ENDBRANCH   2   3
BRANCH   1  14
HETATM   14  C4  UNK     1      18.191  -0.851  34.317  1.00  0.00    -0.033 A 
HETATM   15  C13 UNK     1      18.444  -0.990  32.952  1.00  0.00     0.014 A 
HETATM   16  C16 UNK     1      19.531  -1.751  32.519  1.00  0.00     0.040 A 
HETATM   17  C15 UNK     1      20.363  -2.371  33.450  1.00  0.00     0.099 A 
HETATM   18  C11 UNK     1      20.110  -2.232  34.815  1.00  0.00     0.102 A 
HETATM   19  C9  UNK     1      19.023  -1.471  35.248  1.00  0.00     0.051 A 
BRANCH  17  20
HETATM   20  O4  UNK     1      21.421  -3.111  33.014  1.00  0.00    -0.358 OA
HETATM   21  H13 UNK     1      21.850  -3.532  33.779  1.00  0.00     0.217 HD
ENDBRANCH  17  20
BRANCH  18  22
HETATM   22  O1  UNK     1      20.917  -2.833  35.733  1.00  0.00    -0.353 OA
HETATM   23  C17 UNK     1      20.333  -3.159  36.993  1.00  0.00     0.210 C 
ENDBRANCH  18  22
ENDBRANCH   1  14
TORSDOF 6
ENDMDL
MODEL 5
REMARK VINA RESULT:      -7.7      2.711      7.038
REMARK  6 active torsions:
REMARK  status: ('A' for Active; 'I' for Inactive)
REMARK    1  A    between atoms: C11_15  and  O1_1 
REMARK    2  A    between atoms: C5_9  and  O2_2 
REMARK    3  A    between atoms: C15_19  and  O4_4 
REMARK    4  A    between atoms: C1_5  and  C6_10 
REMARK    5  A    between atoms: C10_14  and  C4_8 
REMARK    6  A    between atoms: C12_16  and  C6_10 
ROOT
HETATM    1  C10 UNK     1      17.080  -0.203  34.585  1.00  0.00     0.015 C 
HETATM    2  C12 UNK     1      17.047   1.136  34.767  1.00  0.00     0.056 C 
ENDROOT
BRANCH   2   3
HETATM    3  C6  UNK     1      18.260   1.961  34.511  1.00  0.00     0.184 C 
HETATM    4  O3  UNK     1      19.226   1.968  35.266  1.00  0.00    -0.287 OA
BRANCH   3   5
HETATM    5  C1  UNK     1      18.292   2.772  33.269  1.00  0.00     0.048 A 
HETATM    6  C3  UNK     1      18.321   2.122  32.035  1.00  0.00     0.025 A 
HETATM    7  C2  UNK     1      18.350   2.867  30.856  1.00  0.00    -0.061 A 
HETATM    8  C14 UNK     1      18.383   2.173  29.536  1.00  0.00     0.048 C 
HETATM    9  C7  UNK     1      18.351   4.261  30.912  1.00  0.00     0.009 A 
HETATM   10  C8  UNK     1      18.322   4.910  32.146  1.00  0.00     0.038 A 
HETATM   11  C5  UNK     1      18.291   4.165  33.325  1.00  0.00     0.079 A 
BRANCH  11  12
HETATM   12  O2  UNK     1      18.263   4.819  34.520  1.00  0.00    -0.360 OA
HETATM   13  H12 UNK     1      19.168   5.079  34.762  1.00  0.00     0.217 HD
ENDBRANCH  11  12
ENDBRANCH   3   5
ENDBRANCH   2   3
BRANCH   1  14
HETATM   14  C4  UNK     1      18.241  -0.960  34.140  1.00  0.00    -0.033 A 
HETATM   15  C13 UNK     1      19.073  -1.576  35.075  1.00  0.00     0.014 A 
HETATM   16  C16 UNK     1      20.186  -2.301  34.647  1.00  0.00     0.040 A 
HETATM   17  C15 UNK     1      20.465  -2.410  33.285  1.00  0.00     0.099 A 
HETATM   18  C11 UNK     1      19.633  -1.794  32.350  1.00  0.00     0.102 A 
HETATM   19  C9  UNK     1      18.520  -1.069  32.778  1.00  0.00     0.051 A 
BRANCH  17  20
HETATM   20  O4  UNK     1      21.555  -3.121  32.881  1.00  0.00    -0.358 OA
HETATM   21  H13 UNK     1      21.613  -3.938  33.406  1.00  0.00     0.217 HD
ENDBRANCH  17  20
BRANCH  18  22
HETATM   22  O1  UNK     1      19.896  -1.894  31.017  1.00  0.00    -0.353 OA
HETATM   23  C17 UNK     1      20.481  -0.757  30.386  1.00  0.00     0.210 C 
ENDBRANCH  18  22
ENDBRANCH   1  14
TORSDOF 6
ENDMDL
MODEL 6
REMARK VINA RESULT:      -7.5     22.465     24.104
REMARK  6 active torsions:
REMARK  status: ('A' for Active; 'I' for Inactive)
REMARK    1  A    between atoms: C11_15  and  O1_1 
REMARK    2  A    between atoms: C5_9  and  O2_2 
REMARK    3  A    between atoms: C15_19  and  O4_4 
REMARK    4  A    between atoms: C1_5  and  C6_10 
REMARK    5  A    between atoms: C10_14  and  C4_8 
REMARK    6  A    between atoms: C12_16  and  C6_10 
ROOT
HETATM    1  C10 UNK     1      14.338   5.321   9.942  1.00  0.00     0.015 C 
HETATM    2  C12 UNK     1      13.500   4.968   8.942  1.00  0.00     0.056 C 
ENDROOT
BRANCH   2   3
HETATM    3  C6  UNK     1      13.070   5.973   7.931  1.00  0.00     0.184 C 
HETATM    4  O3  UNK     1      13.864   6.697   7.339  1.00  0.00    -0.287 OA
BRANCH   3   5
HETATM    5  C1  UNK     1      11.623   6.061   7.618  1.00  0.00     0.048 A 
HETATM    6  C3  UNK     1      10.702   6.074   8.666  1.00  0.00     0.025 A 
HETATM    7  C2  UNK     1       9.337   6.157   8.393  1.00  0.00    -0.061 A 
HETATM    8  C14 UNK     1       8.352   6.169   9.514  1.00  0.00     0.048 C 
HETATM    9  C7  UNK     1       8.892   6.224   7.073  1.00  0.00     0.009 A 
HETATM   10  C8  UNK     1       9.813   6.211   6.025  1.00  0.00     0.038 A 
HETATM   11  C5  UNK     1      11.178   6.130   6.298  1.00  0.00     0.079 A 
BRANCH  11  12
HETATM   12  O2  UNK     1      12.062   6.118   5.260  1.00  0.00    -0.360 OA
HETATM   13  H12 UNK     1      12.896   6.525   5.549  1.00  0.00     0.217 HD
ENDBRANCH  11  12
ENDBRANCH   3   5
ENDBRANCH   2   3
BRANCH   1  14
HETATM   14  C4  UNK     1      14.893   6.651  10.140  1.00  0.00    -0.033 A 
HETATM   15  C13 UNK     1      16.243   6.890   9.880  1.00  0.00     0.014 A 
HETATM   16  C16 UNK     1      16.775   8.166  10.071  1.00  0.00     0.040 A 
HETATM   17  C15 UNK     1      15.957   9.202  10.521  1.00  0.00     0.099 A 
HETATM   18  C11 UNK     1      14.608   8.963  10.781  1.00  0.00     0.102 A 
HETATM   19  C9  UNK     1      14.076   7.687  10.590  1.00  0.00     0.051 A 
BRANCH  17  20
HETATM   20  O4  UNK     1      16.488  10.443  10.702  1.00  0.00    -0.358 OA
HETATM   21  H13 UNK     1      15.783  11.107  10.607  1.00  0.00     0.217 HD
ENDBRANCH  17  20
BRANCH  18  22
HETATM   22  O1  UNK     1      13.799   9.968  11.221  1.00  0.00    -0.353 OA
HETATM   23  C17 UNK     1      12.626   9.588  11.937  1.00  0.00     0.210 C 
ENDBRANCH  18  22
ENDBRANCH   1  14
TORSDOF 6
ENDMDL
MODEL 7
REMARK VINA RESULT:      -7.5     23.015     24.746
REMARK  6 active torsions:
REMARK  status: ('A' for Active; 'I' for Inactive)
REMARK    1  A    between atoms: C11_15  and  O1_1 
REMARK    2  A    between atoms: C5_9  and  O2_2 
REMARK    3  A    between atoms: C15_19  and  O4_4 
REMARK    4  A    between atoms: C1_5  and  C6_10 
REMARK    5  A    between atoms: C10_14  and  C4_8 
REMARK    6  A    between atoms: C12_16  and  C6_10 
ROOT
HETATM    1  C10 UNK     1      10.693   6.530   6.452  1.00  0.00     0.015 C 
HETATM    2  C12 UNK     1      11.900   5.925   6.531  1.00  0.00     0.056 C 
ENDROOT
BRANCH   2   3
HETATM    3  C6  UNK     1      12.397   5.404   7.835  1.00  0.00     0.184 C 
HETATM    4  O3  UNK     1      11.986   4.361   8.330  1.00  0.00    -0.287 OA
BRANCH   3   5
HETATM    5  C1  UNK     1      13.456   6.179   8.526  1.00  0.00     0.048 A 
HETATM    6  C3  UNK     1      13.561   7.549   8.286  1.00  0.00     0.025 A 
HETATM    7  C2  UNK     1      14.550   8.295   8.928  1.00  0.00    -0.061 A 
HETATM    8  C14 UNK     1      14.664   9.759   8.670  1.00  0.00     0.048 C 
HETATM    9  C7  UNK     1      15.434   7.670   9.808  1.00  0.00     0.009 A 
HETATM   10  C8  UNK     1      15.328   6.300  10.048  1.00  0.00     0.038 A 
HETATM   11  C5  UNK     1      14.339   5.555   9.408  1.00  0.00     0.079 A 
BRANCH  11  12
HETATM   12  O2  UNK     1      14.252   4.217   9.656  1.00  0.00    -0.360 OA
HETATM   13  H12 UNK     1      14.858   3.989  10.381  1.00  0.00     0.217 HD
ENDBRANCH  11  12
ENDBRANCH   3   5
ENDBRANCH   2   3
BRANCH   1  14
HETATM   14  C4  UNK     1       9.784   6.734   7.570  1.00  0.00    -0.033 A 
HETATM   15  C13 UNK     1       9.935   7.845   8.399  1.00  0.00     0.014 A 
HETATM   16  C16 UNK     1       9.063   8.040   9.471  1.00  0.00     0.040 A 
HETATM   17  C15 UNK     1       8.040   7.123   9.712  1.00  0.00     0.099 A 
HETATM   18  C11 UNK     1       7.888   6.012   8.883  1.00  0.00     0.102 A 
HETATM   19  C9  UNK     1       8.760   5.818   7.811  1.00  0.00     0.051 A 
BRANCH  17  20
HETATM   20  O4  UNK     1       7.195   7.325  10.761  1.00  0.00    -0.358 OA
HETATM   21  H13 UNK     1       6.918   6.462  11.116  1.00  0.00     0.217 HD
ENDBRANCH  17  20
BRANCH  18  22
HETATM   22  O1  UNK     1       6.892   5.111   9.109  1.00  0.00    -0.353 OA
HETATM   23  C17 UNK     1       7.236   3.935   9.838  1.00  0.00     0.210 C 
ENDBRANCH  18  22
ENDBRANCH   1  14
TORSDOF 6
ENDMDL
MODEL 8
REMARK VINA RESULT:      -7.5     12.066     14.914
REMARK  6 active torsions:
REMARK  status: ('A' for Active; 'I' for Inactive)
REMARK    1  A    between atoms: C11_15  and  O1_1 
REMARK    2  A    between atoms: C5_9  and  O2_2 
REMARK    3  A    between atoms: C15_19  and  O4_4 
REMARK    4  A    between atoms: C1_5  and  C6_10 
REMARK    5  A    between atoms: C10_14  and  C4_8 
REMARK    6  A    between atoms: C12_16  and  C6_10 
ROOT
HETATM    1  C10 UNK     1      21.672  -7.892  39.198  1.00  0.00     0.015 C 
HETATM    2  C12 UNK     1      22.768  -7.358  39.783  1.00  0.00     0.056 C 
ENDROOT
BRANCH   2   3
HETATM    3  C6  UNK     1      23.726  -6.545  38.985  1.00  0.00     0.184 C 
HETATM    4  O3  UNK     1      23.405  -5.498  38.433  1.00  0.00    -0.287 OA
BRANCH   3   5
HETATM    5  C1  UNK     1      25.127  -7.023  38.896  1.00  0.00     0.048 A 
HETATM    6  C3  UNK     1      25.393  -8.382  39.062  1.00  0.00     0.025 A 
HETATM    7  C2  UNK     1      26.704  -8.851  38.982  1.00  0.00    -0.061 A 
HETATM    8  C14 UNK     1      26.987 -10.305  39.161  1.00  0.00     0.048 C 
HETATM    9  C7  UNK     1      27.750  -7.961  38.736  1.00  0.00     0.009 A 
HETATM   10  C8  UNK     1      27.484  -6.602  38.569  1.00  0.00     0.038 A 
HETATM   11  C5  UNK     1      26.173  -6.133  38.649  1.00  0.00     0.079 A 
BRANCH  11  12
HETATM   12  O2  UNK     1      25.935  -4.801  38.483  1.00  0.00    -0.360 OA
HETATM   13  H12 UNK     1      26.697  -4.298  38.817  1.00  0.00     0.217 HD
ENDBRANCH  11  12
ENDBRANCH   3   5
ENDBRANCH   2   3
BRANCH   1  14
HETATM   14  C4  UNK     1      21.316  -7.745  37.795  1.00  0.00    -0.033 A 
HETATM   15  C13 UNK     1      20.626  -6.611  37.366  1.00  0.00     0.014 A 
HETATM   16  C16 UNK     1      20.285  -6.469  36.020  1.00  0.00     0.040 A 
HETATM   17  C15 UNK     1      20.633  -7.462  35.105  1.00  0.00     0.099 A 
HETATM   18  C11 UNK     1      21.322  -8.596  35.534  1.00  0.00     0.102 A 
HETATM   19  C9  UNK     1      21.664  -8.737  36.879  1.00  0.00     0.051 A 
BRANCH  17  20
HETATM   20  O4  UNK     1      20.294  -7.312  33.794  1.00  0.00    -0.358 OA
HETATM   21  H13 UNK     1      21.084  -7.053  33.289  1.00  0.00     0.217 HD
ENDBRANCH  17  20
BRANCH  18  22
HETATM   22  O1  UNK     1      21.668  -9.572  34.648  1.00  0.00    -0.353 OA
HETATM   23  C17 UNK     1      21.835 -10.889  35.169  1.00  0.00     0.210 C 
ENDBRANCH  18  22
ENDBRANCH   1  14
TORSDOF 6
ENDMDL
MODEL 9
REMARK VINA RESULT:      -7.5     22.938     24.810
REMARK  6 active torsions:
REMARK  status: ('A' for Active; 'I' for Inactive)
REMARK    1  A    between atoms: C11_15  and  O1_1 
REMARK    2  A    between atoms: C5_9  and  O2_2 
REMARK    3  A    between atoms: C15_19  and  O4_4 
REMARK    4  A    between atoms: C1_5  and  C6_10 
REMARK    5  A    between atoms: C10_14  and  C4_8 
REMARK    6  A    between atoms: C12_16  and  C6_10 
ROOT
HETATM    1  C10 UNK     1      10.141   6.702   6.883  1.00  0.00     0.015 C 
HETATM    2  C12 UNK     1       8.819   6.561   7.127  1.00  0.00     0.056 C 
ENDROOT
BRANCH   2   3
HETATM    3  C6  UNK     1       8.349   5.941   8.396  1.00  0.00     0.184 C 
HETATM    4  O3  UNK     1       8.460   4.742   8.627  1.00  0.00    -0.287 OA
BRANCH   3   5
HETATM    5  C1  UNK     1       7.758   6.835   9.421  1.00  0.00     0.048 A 
HETATM    6  C3  UNK     1       8.360   8.067   9.677  1.00  0.00     0.025 A 
HETATM    7  C2  UNK     1       7.818   8.922  10.637  1.00  0.00    -0.061 A 
HETATM    8  C14 UNK     1       8.464  10.238  10.912  1.00  0.00     0.048 C 
HETATM    9  C7  UNK     1       6.675   8.544  11.342  1.00  0.00     0.009 A 
HETATM   10  C8  UNK     1       6.072   7.313  11.085  1.00  0.00     0.038 A 
HETATM   11  C5  UNK     1       6.613   6.459  10.125  1.00  0.00     0.079 A 
BRANCH  11  12
HETATM   12  O2  UNK     1       6.009   5.260   9.889  1.00  0.00    -0.360 OA
HETATM   13  H12 UNK     1       6.608   4.700   9.366  1.00  0.00     0.217 HD
ENDBRANCH  11  12
ENDBRANCH   3   5
ENDBRANCH   2   3
BRANCH   1  14
HETATM   14  C4  UNK     1      11.208   6.288   7.782  1.00  0.00    -0.033 A 
HETATM   15  C13 UNK     1      11.881   5.087   7.560  1.00  0.00     0.014 A 
HETATM   16  C16 UNK     1      12.903   4.691   8.423  1.00  0.00     0.040 A 
HETATM   17  C15 UNK     1      13.251   5.495   9.507  1.00  0.00     0.099 A 
HETATM   18  C11 UNK     1      12.578   6.696   9.730  1.00  0.00     0.102 A 
HETATM   19  C9  UNK     1      11.556   7.093   8.866  1.00  0.00     0.051 A 
BRANCH  17  20
HETATM   20  O4  UNK     1      14.251   5.097  10.342  1.00  0.00    -0.358 OA
HETATM   21  H13 UNK     1      14.831   5.857  10.528  1.00  0.00     0.217 HD
ENDBRANCH  17  20
BRANCH  18  22
HETATM   22  O1  UNK     1      12.910   7.491  10.786  1.00  0.00    -0.353 OA
HETATM   23  C17 UNK     1      13.727   8.627  10.509  1.00  0.00     0.210 C 
ENDBRANCH  18  22
ENDBRANCH   1  14
TORSDOF 6
ENDMDL
MODEL 10
REMARK VINA RESULT:      -7.5      2.463      3.881
REMARK  6 active torsions:
REMARK  status: ('A' for Active; 'I' for Inactive)
REMARK    1  A    between atoms: C11_15  and  O1_1 
REMARK    2  A    between atoms: C5_9  and  O2_2 
REMARK    3  A    between atoms: C15_19  and  O4_4 
REMARK    4  A    between atoms: C1_5  and  C6_10 
REMARK    5  A    between atoms: C10_14  and  C4_8 
REMARK    6  A    between atoms: C12_16  and  C6_10 
ROOT
HETATM    1  C10 UNK     1      19.822   7.580  33.750  1.00  0.00     0.015 C 
HETATM    2  C12 UNK     1      20.061   6.756  32.705  1.00  0.00     0.056 C 
ENDROOT
BRANCH   2   3
HETATM    3  C6  UNK     1      18.944   6.317  31.822  1.00  0.00     0.184 C 
HETATM    4  O3  UNK     1      18.221   7.109  31.228  1.00  0.00    -0.287 OA
BRANCH   3   5
HETATM    5  C1  UNK     1      18.739   4.859  31.645  1.00  0.00     0.048 A 
HETATM    6  C3  UNK     1      18.470   4.070  32.764  1.00  0.00     0.025 A 
HETATM    7  C2  UNK     1      18.274   2.697  32.618  1.00  0.00    -0.061 A 
HETATM    8  C14 UNK     1      17.989   1.853  33.814  1.00  0.00     0.048 C 
HETATM    9  C7  UNK     1      18.347   2.112  31.353  1.00  0.00     0.009 A 
HETATM   10  C8  UNK     1      18.616   2.901  30.235  1.00  0.00     0.038 A 
HETATM   11  C5  UNK     1      18.811   4.274  30.381  1.00  0.00     0.079 A 
BRANCH  11  12
HETATM   12  O2  UNK     1      19.072   5.027  29.275  1.00  0.00    -0.360 OA
HETATM   13  H12 UNK     1      18.393   5.719  29.194  1.00  0.00     0.217 HD
ENDBRANCH  11  12
ENDBRANCH   3   5
ENDBRANCH   2   3
BRANCH   1  14
HETATM   14  C4  UNK     1      18.519   8.109  34.119  1.00  0.00    -0.033 A 
HETATM   15  C13 UNK     1      17.615   7.312  34.821  1.00  0.00     0.014 A 
HETATM   16  C16 UNK     1      16.364   7.820  35.174  1.00  0.00     0.040 A 
HETATM   17  C15 UNK     1      16.019   9.125  34.825  1.00  0.00     0.099 A 
HETATM   18  C11 UNK     1      16.922   9.923  34.124  1.00  0.00     0.102 A 
HETATM   19  C9  UNK     1      18.173   9.415  33.770  1.00  0.00     0.051 A 
BRANCH  17  20
HETATM   20  O4  UNK     1      14.795   9.610  35.177  1.00  0.00    -0.358 OA
HETATM   21  H13 UNK     1      14.375  10.008  34.394  1.00  0.00     0.217 HD
ENDBRANCH  17  20
BRANCH  18  22
HETATM   22  O1  UNK     1      16.596  11.200  33.778  1.00  0.00    -0.353 OA
HETATM   23  C17 UNK     1      17.427  12.241  34.287  1.00  0.00     0.210 C 
ENDBRANCH  18  22
ENDBRANCH   1  14
TORSDOF 6
ENDMDL
