MODEL 1
REMARK VINA RESULT:      -8.7      0.000      0.000
REMARK  6 active torsions:
REMARK  status: ('A' for Active; 'I' for Inactive)
REMARK    1  A    between atoms: C11_18  and  O3_3 
REMARK    2  A    between atoms: C19_26  and  O3_3 
REMARK    3  A    between atoms: C27_34  and  O6_6 
REMARK    4  A    between atoms: C1_8  and  C10_17 
REMARK    5  A    between atoms: C11_18  and  C6_13 
REMARK    6  A    between atoms: C19_26  and  C22_29 
ROOT
HETATM    1  O1  UNK     1      29.124  -4.811  31.837  1.00  0.00    -0.293 OA
HETATM    2  N1  UNK     1      30.935  -9.086  30.903  1.00  0.00    -0.362 N 
HETATM    3  C1  UNK     1      31.191  -6.724  32.453  1.00  0.00     0.104 C 
HETATM    4  C2  UNK     1      30.037  -6.974  31.489  1.00  0.00     0.024 C 
HETATM    5  C3  UNK     1      29.947  -8.127  30.792  1.00  0.00     0.020 C 
HETATM    6  C4  UNK     1      28.803  -8.447  29.868  1.00  0.00     0.058 C 
HETATM    7  C5  UNK     1      27.564  -7.616  30.178  1.00  0.00     0.014 C 
HETATM    8  C6  UNK     1      32.276  -7.803  32.371  1.00  0.00     0.052 C 
HETATM    9  C7  UNK     1      27.911  -6.141  30.271  1.00  0.00     0.084 C 
HETATM   10  C8  UNK     1      29.022  -5.898  31.268  1.00  0.00     0.158 C 
HETATM   11  C9  UNK     1      32.103  -8.922  31.630  1.00  0.00     0.018 C 
HETATM   12  C13 UNK     1      33.091 -10.048  31.476  1.00  0.00     0.069 C 
HETATM   13  H8  UNK     1      30.835  -9.931  30.354  1.00  0.00     0.165 HD
ENDROOT
BRANCH   8  14
HETATM   14  C11 UNK     1      33.508  -7.540  33.135  1.00  0.00     0.292 C 
HETATM   15  O4  UNK     1      34.284  -6.643  32.864  1.00  0.00    -0.259 OA
BRANCH  14  16
HETATM   16  O3  UNK     1      33.592  -8.448  34.138  1.00  0.00    -0.313 OA
BRANCH  16  17
HETATM   17  C19 UNK     1      33.784  -7.894  35.443  1.00  0.00     0.217 C 
BRANCH  17  18
HETATM   18  C22 UNK     1      32.814  -8.531  36.393  1.00  0.00    -0.034 A 
HETATM   19  C23 UNK     1      32.056  -9.619  35.976  1.00  0.00     0.012 A 
HETATM   20  C25 UNK     1      31.154 -10.210  36.859  1.00  0.00     0.037 A 
HETATM   21  C27 UNK     1      31.015  -9.711  38.155  1.00  0.00     0.068 A 
HETATM   22  C26 UNK     1      31.779  -8.618  38.566  1.00  0.00     0.037 A 
HETATM   23  C24 UNK     1      32.682  -8.027  37.682  1.00  0.00     0.012 A 
BRANCH  21  24
HETATM   24  O6  UNK     1      30.134 -10.289  39.016  1.00  0.00    -0.356 OA
HETATM   25  C28 UNK     1      28.801  -9.780  39.020  1.00  0.00     0.210 C 
ENDBRANCH  21  24
ENDBRANCH  17  18
ENDBRANCH  16  17
ENDBRANCH  14  16
ENDBRANCH   8  14
BRANCH   3  26
HETATM   26  C10 UNK     1      30.676  -6.611  33.863  1.00  0.00     0.029 A 
HETATM   27  C12 UNK     1      31.181  -5.506  34.716  1.00  0.00     0.194 A 
HETATM   28  O5  UNK     1      31.996  -4.689  34.308  1.00  0.00    -0.287 OA
HETATM   29  C15 UNK     1      30.646  -5.443  36.089  1.00  0.00     0.048 A 
HETATM   30  C16 UNK     1      29.719  -6.401  36.500  1.00  0.00     0.089 A 
HETATM   31  C17 UNK     1      31.059  -4.440  36.969  1.00  0.00     0.018 A 
HETATM   32  O2  UNK     1      29.278  -7.407  35.677  1.00  0.00    -0.321 OA
HETATM   33  C18 UNK     1      29.199  -6.361  37.795  1.00  0.00     0.038 A 
HETATM   34  C14 UNK     1      29.785  -7.454  34.402  1.00  0.00     0.154 A 
HETATM   35  C21 UNK     1      29.610  -5.360  38.675  1.00  0.00     0.003 A 
HETATM   36  C20 UNK     1      30.538  -4.402  38.263  1.00  0.00     0.001 A 
ENDBRANCH   3  26
TORSDOF 6
ENDMDL
MODEL 2
REMARK VINA RESULT:      -8.2      1.465      1.744
REMARK  6 active torsions:
REMARK  status: ('A' for Active; 'I' for Inactive)
REMARK    1  A    between atoms: C11_18  and  O3_3 
REMARK    2  A    between atoms: C19_26  and  O3_3 
REMARK    3  A    between atoms: C27_34  and  O6_6 
REMARK    4  A    between atoms: C1_8  and  C10_17 
REMARK    5  A    between atoms: C11_18  and  C6_13 
REMARK    6  A    between atoms: C19_26  and  C22_29 
ROOT
HETATM    1  O1  UNK     1      29.670  -5.206  31.066  1.00  0.00    -0.293 OA
HETATM    2  N1  UNK     1      28.801  -9.852  31.372  1.00  0.00    -0.362 N 
HETATM    3  C1  UNK     1      30.505  -7.732  32.178  1.00  0.00     0.104 C 
HETATM    4  C2  UNK     1      29.248  -7.526  31.341  1.00  0.00     0.024 C 
HETATM    5  C3  UNK     1      28.456  -8.565  31.004  1.00  0.00     0.020 C 
HETATM    6  C4  UNK     1      27.177  -8.412  30.224  1.00  0.00     0.058 C 
HETATM    7  C5  UNK     1      26.625  -6.993  30.300  1.00  0.00     0.014 C 
HETATM    8  C6  UNK     1      30.837  -9.212  32.394  1.00  0.00     0.052 C 
HETATM    9  C7  UNK     1      27.700  -5.976  29.962  1.00  0.00     0.084 C 
HETATM   10  C8  UNK     1      28.923  -6.156  30.834  1.00  0.00     0.158 C 
HETATM   11  C9  UNK     1      29.985 -10.190  32.007  1.00  0.00     0.018 C 
HETATM   12  C13 UNK     1      30.200 -11.671  32.169  1.00  0.00     0.069 C 
HETATM   13  H8  UNK     1      28.185 -10.604  31.089  1.00  0.00     0.165 HD
ENDROOT
BRANCH   8  14
HETATM   14  C11 UNK     1      32.133  -9.497  33.035  1.00  0.00     0.292 C 
HETATM   15  O4  UNK     1      33.203  -9.205  32.537  1.00  0.00    -0.259 OA
BRANCH  14  16
HETATM   16  O3  UNK     1      31.898 -10.114  34.219  1.00  0.00    -0.313 OA
BRANCH  16  17
HETATM   17  C19 UNK     1      32.484  -9.479  35.360  1.00  0.00     0.217 C 
BRANCH  17  18
HETATM   18  C22 UNK     1      31.418  -9.237  36.387  1.00  0.00    -0.034 A 
HETATM   19  C23 UNK     1      30.127  -9.701  36.161  1.00  0.00     0.012 A 
HETATM   20  C25 UNK     1      29.136  -9.475  37.116  1.00  0.00     0.037 A 
HETATM   21  C27 UNK     1      29.442  -8.787  38.291  1.00  0.00     0.068 A 
HETATM   22  C26 UNK     1      30.740  -8.324  38.510  1.00  0.00     0.037 A 
HETATM   23  C24 UNK     1      31.731  -8.550  37.554  1.00  0.00     0.012 A 
BRANCH  21  24
HETATM   24  O6  UNK     1      28.474  -8.567  39.222  1.00  0.00    -0.356 OA
HETATM   25  C28 UNK     1      27.726  -9.700  39.659  1.00  0.00     0.210 C 
ENDBRANCH  21  24
ENDBRANCH  17  18
ENDBRANCH  16  17
ENDBRANCH  14  16
ENDBRANCH   8  14
BRANCH   3  26
HETATM   26  C10 UNK     1      30.369  -7.031  33.503  1.00  0.00     0.029 A 
HETATM   27  C12 UNK     1      31.527  -6.259  34.020  1.00  0.00     0.194 A 
HETATM   28  O5  UNK     1      32.581  -6.176  33.403  1.00  0.00    -0.287 OA
HETATM   29  C15 UNK     1      31.340  -5.595  35.323  1.00  0.00     0.048 A 
HETATM   30  C16 UNK     1      30.117  -5.724  35.981  1.00  0.00     0.089 A 
HETATM   31  C17 UNK     1      32.371  -4.846  35.895  1.00  0.00     0.018 A 
HETATM   32  O2  UNK     1      29.071  -6.447  35.466  1.00  0.00    -0.321 OA
HETATM   33  C18 UNK     1      29.918  -5.103  37.215  1.00  0.00     0.038 A 
HETATM   34  C14 UNK     1      29.258  -7.061  34.252  1.00  0.00     0.154 A 
HETATM   35  C21 UNK     1      30.946  -4.355  37.787  1.00  0.00     0.003 A 
HETATM   36  C20 UNK     1      32.170  -4.226  37.129  1.00  0.00     0.001 A 
ENDBRANCH   3  26
TORSDOF 6
ENDMDL
MODEL 3
REMARK VINA RESULT:      -8.2      2.446      6.694
REMARK  6 active torsions:
REMARK  status: ('A' for Active; 'I' for Inactive)
REMARK    1  A    between atoms: C11_18  and  O3_3 
REMARK    2  A    between atoms: C19_26  and  O3_3 
REMARK    3  A    between atoms: C27_34  and  O6_6 
REMARK    4  A    between atoms: C1_8  and  C10_17 
REMARK    5  A    between atoms: C11_18  and  C6_13 
REMARK    6  A    between atoms: C19_26  and  C22_29 
ROOT
HETATM    1  O1  UNK     1      28.763 -10.164  39.075  1.00  0.00    -0.293 OA
HETATM    2  N1  UNK     1      28.489  -5.539  38.092  1.00  0.00    -0.362 N 
HETATM    3  C1  UNK     1      30.127  -7.854  38.018  1.00  0.00     0.104 C 
HETATM    4  C2  UNK     1      28.672  -7.870  38.472  1.00  0.00     0.024 C 
HETATM    5  C3  UNK     1      27.927  -6.745  38.465  1.00  0.00     0.020 C 
HETATM    6  C4  UNK     1      26.472  -6.714  38.853  1.00  0.00     0.058 C 
HETATM    7  C5  UNK     1      25.823  -8.089  38.756  1.00  0.00     0.014 C 
HETATM    8  C6  UNK     1      30.655  -6.438  37.767  1.00  0.00     0.052 C 
HETATM    9  C7  UNK     1      26.652  -9.131  39.485  1.00  0.00     0.084 C 
HETATM   10  C8  UNK     1      28.081  -9.143  38.991  1.00  0.00     0.158 C 
HETATM   11  C9  UNK     1      29.832  -5.363  37.797  1.00  0.00     0.018 C 
HETATM   12  C13 UNK     1      30.232  -3.931  37.564  1.00  0.00     0.069 C 
HETATM   13  H8  UNK     1      27.898  -4.717  38.112  1.00  0.00     0.165 HD
ENDROOT
BRANCH   8  14
HETATM   14  C11 UNK     1      32.100  -6.323  37.504  1.00  0.00     0.292 C 
HETATM   15  O4  UNK     1      32.953  -6.672  38.297  1.00  0.00    -0.259 OA
BRANCH  14  16
HETATM   16  O3  UNK     1      32.269  -5.782  36.273  1.00  0.00    -0.313 OA
BRANCH  16  17
HETATM   17  C19 UNK     1      32.911  -6.634  35.320  1.00  0.00     0.217 C 
BRANCH  17  18
HETATM   18  C22 UNK     1      32.165  -6.563  34.019  1.00  0.00    -0.034 A 
HETATM   19  C23 UNK     1      32.530  -7.401  32.972  1.00  0.00     0.012 A 
HETATM   20  C25 UNK     1      31.836  -7.334  31.763  1.00  0.00     0.037 A 
HETATM   21  C27 UNK     1      30.783  -6.432  31.610  1.00  0.00     0.068 A 
HETATM   22  C26 UNK     1      30.424  -5.595  32.667  1.00  0.00     0.037 A 
HETATM   23  C24 UNK     1      31.117  -5.661  33.876  1.00  0.00     0.012 A 
BRANCH  21  24
HETATM   24  O6  UNK     1      30.108  -6.369  30.431  1.00  0.00    -0.356 OA
HETATM   25  C28 UNK     1      28.704  -6.120  30.500  1.00  0.00     0.210 C 
ENDBRANCH  21  24
ENDBRANCH  17  18
ENDBRANCH  16  17
ENDBRANCH  14  16
ENDBRANCH   8  14
BRANCH   3  26
HETATM   26  C10 UNK     1      30.296  -8.698  36.782  1.00  0.00     0.029 A 
HETATM   27  C12 UNK     1      29.447  -8.403  35.600  1.00  0.00     0.194 A 
HETATM   28  O5  UNK     1      28.622  -7.498  35.601  1.00  0.00    -0.287 OA
HETATM   29  C15 UNK     1      29.651  -9.261  34.419  1.00  0.00     0.048 A 
HETATM   30  C16 UNK     1      30.605 -10.277  34.475  1.00  0.00     0.089 A 
HETATM   31  C17 UNK     1      28.901  -9.063  33.258  1.00  0.00     0.018 A 
HETATM   32  O2  UNK     1      31.370 -10.515  35.589  1.00  0.00    -0.321 OA
HETATM   33  C18 UNK     1      30.815 -11.101  33.368  1.00  0.00     0.038 A 
HETATM   34  C14 UNK     1      31.169  -9.709  36.683  1.00  0.00     0.154 A 
HETATM   35  C21 UNK     1      30.067 -10.905  32.208  1.00  0.00     0.003 A 
HETATM   36  C20 UNK     1      29.112  -9.888  32.152  1.00  0.00     0.001 A 
ENDBRANCH   3  26
TORSDOF 6
ENDMDL
MODEL 4
REMARK VINA RESULT:      -8.1      2.170      6.544
REMARK  6 active torsions:
REMARK  status: ('A' for Active; 'I' for Inactive)
REMARK    1  A    between atoms: C11_18  and  O3_3 
REMARK    2  A    between atoms: C19_26  and  O3_3 
REMARK    3  A    between atoms: C27_34  and  O6_6 
REMARK    4  A    between atoms: C1_8  and  C10_17 
REMARK    5  A    between atoms: C11_18  and  C6_13 
REMARK    6  A    between atoms: C19_26  and  C22_29 
ROOT
HETATM    1  O1  UNK     1      29.061  -7.712  36.667  1.00  0.00    -0.293 OA
HETATM    2  N1  UNK     1      33.209  -5.427  36.678  1.00  0.00    -0.362 N 
HETATM    3  C1  UNK     1      31.581  -7.314  35.323  1.00  0.00     0.104 C 
HETATM    4  C2  UNK     1      31.123  -6.540  36.554  1.00  0.00     0.024 C 
HETATM    5  C3  UNK     1      31.927  -5.634  37.149  1.00  0.00     0.020 C 
HETATM    6  C4  UNK     1      31.506  -4.807  38.334  1.00  0.00     0.058 C 
HETATM    7  C5  UNK     1      29.991  -4.719  38.464  1.00  0.00     0.014 C 
HETATM    8  C6  UNK     1      33.061  -7.087  34.998  1.00  0.00     0.052 C 
HETATM    9  C7  UNK     1      29.361  -6.099  38.399  1.00  0.00     0.084 C 
HETATM   10  C8  UNK     1      29.782  -6.838  37.148  1.00  0.00     0.158 C 
HETATM   11  C9  UNK     1      33.796  -6.164  35.661  1.00  0.00     0.018 C 
HETATM   12  C13 UNK     1      35.250  -5.851  35.429  1.00  0.00     0.069 C 
HETATM   13  H8  UNK     1      33.784  -4.746  37.160  1.00  0.00     0.165 HD
ENDROOT
BRANCH   8  14
HETATM   14  C11 UNK     1      33.627  -7.937  33.936  1.00  0.00     0.292 C 
HETATM   15  O4  UNK     1      33.938  -9.101  34.107  1.00  0.00    -0.259 OA
BRANCH  14  16
HETATM   16  O3  UNK     1      33.724  -7.200  32.804  1.00  0.00    -0.313 OA
BRANCH  16  17
HETATM   17  C19 UNK     1      34.168  -7.918  31.648  1.00  0.00     0.217 C 
BRANCH  17  18
HETATM   18  C22 UNK     1      32.998  -8.152  30.738  1.00  0.00    -0.034 A 
HETATM   19  C23 UNK     1      32.525  -7.112  29.946  1.00  0.00     0.012 A 
HETATM   20  C25 UNK     1      31.437  -7.330  29.101  1.00  0.00     0.037 A 
HETATM   21  C27 UNK     1      30.829  -8.585  29.052  1.00  0.00     0.068 A 
HETATM   22  C26 UNK     1      31.310  -9.623  29.851  1.00  0.00     0.037 A 
HETATM   23  C24 UNK     1      32.399  -9.405  30.696  1.00  0.00     0.012 A 
BRANCH  21  24
HETATM   24  O6  UNK     1      29.769  -8.796  28.227  1.00  0.00    -0.356 OA
HETATM   25  C28 UNK     1      29.230 -10.116  28.187  1.00  0.00     0.210 C 
ENDBRANCH  21  24
ENDBRANCH  17  18
ENDBRANCH  16  17
ENDBRANCH  14  16
ENDBRANCH   8  14
BRANCH   3  26
HETATM   26  C10 UNK     1      30.728  -6.955  34.136  1.00  0.00     0.029 A 
HETATM   27  C12 UNK     1      29.896  -8.015  33.513  1.00  0.00     0.194 A 
HETATM   28  O5  UNK     1      29.883  -9.164  33.936  1.00  0.00    -0.287 OA
HETATM   29  C15 UNK     1      29.082  -7.610  32.353  1.00  0.00     0.048 A 
HETATM   30  C16 UNK     1      29.136  -6.287  31.915  1.00  0.00     0.089 A 
HETATM   31  C17 UNK     1      28.266  -8.536  31.698  1.00  0.00     0.018 A 
HETATM   32  O2  UNK     1      29.920  -5.337  32.520  1.00  0.00    -0.321 OA
HETATM   33  C18 UNK     1      28.373  -5.882  30.818  1.00  0.00     0.038 A 
HETATM   34  C14 UNK     1      30.673  -5.728  33.600  1.00  0.00     0.154 A 
HETATM   35  C21 UNK     1      27.559  -6.804  30.163  1.00  0.00     0.003 A 
HETATM   36  C20 UNK     1      27.504  -8.128  30.601  1.00  0.00     0.001 A 
ENDBRANCH   3  26
TORSDOF 6
ENDMDL
MODEL 5
REMARK VINA RESULT:      -8.1      2.418      6.538
REMARK  6 active torsions:
REMARK  status: ('A' for Active; 'I' for Inactive)
REMARK    1  A    between atoms: C11_18  and  O3_3 
REMARK    2  A    between atoms: C19_26  and  O3_3 
REMARK    3  A    between atoms: C27_34  and  O6_6 
REMARK    4  A    between atoms: C1_8  and  C10_17 
REMARK    5  A    between atoms: C11_18  and  C6_13 
REMARK    6  A    between atoms: C19_26  and  C22_29 
ROOT
HETATM    1  O1  UNK     1      29.287  -8.785  38.532  1.00  0.00    -0.293 OA
HETATM    2  N1  UNK     1      30.340  -4.350  37.246  1.00  0.00    -0.362 N 
HETATM    3  C1  UNK     1      31.047  -7.086  37.006  1.00  0.00     0.104 C 
HETATM    4  C2  UNK     1      29.822  -6.600  37.772  1.00  0.00     0.024 C 
HETATM    5  C3  UNK     1      29.514  -5.288  37.836  1.00  0.00     0.020 C 
HETATM    6  C4  UNK     1      28.290  -4.759  38.534  1.00  0.00     0.058 C 
HETATM    7  C5  UNK     1      27.217  -5.828  38.701  1.00  0.00     0.014 C 
HETATM    8  C6  UNK     1      31.940  -5.938  36.524  1.00  0.00     0.052 C 
HETATM    9  C7  UNK     1      27.801  -7.089  39.313  1.00  0.00     0.084 C 
HETATM   10  C8  UNK     1      28.983  -7.592  38.516  1.00  0.00     0.158 C 
HETATM   11  C9  UNK     1      31.553  -4.646  36.645  1.00  0.00     0.018 C 
HETATM   12  C13 UNK     1      32.339  -3.439  36.209  1.00  0.00     0.069 C 
HETATM   13  H8  UNK     1      30.079  -3.375  37.327  1.00  0.00     0.165 HD
ENDROOT
BRANCH   8  14
HETATM   14  C11 UNK     1      33.233  -6.327  35.937  1.00  0.00     0.292 C 
HETATM   15  O4  UNK     1      34.203  -6.637  36.603  1.00  0.00    -0.259 OA
BRANCH  14  16
HETATM   16  O3  UNK     1      33.125  -6.270  34.588  1.00  0.00    -0.313 OA
BRANCH  16  17
HETATM   17  C19 UNK     1      33.858  -7.273  33.878  1.00  0.00     0.217 C 
BRANCH  17  18
HETATM   18  C22 UNK     1      33.070  -7.694  32.672  1.00  0.00    -0.034 A 
HETATM   19  C23 UNK     1      32.025  -6.896  32.221  1.00  0.00     0.012 A 
HETATM   20  C25 UNK     1      31.293  -7.289  31.100  1.00  0.00     0.037 A 
HETATM   21  C27 UNK     1      31.610  -8.475  30.438  1.00  0.00     0.068 A 
HETATM   22  C26 UNK     1      32.661  -9.270  30.898  1.00  0.00     0.037 A 
HETATM   23  C24 UNK     1      33.393  -8.877  32.018  1.00  0.00     0.012 A 
BRANCH  21  24
HETATM   24  O6  UNK     1      30.895  -8.856  29.346  1.00  0.00    -0.356 OA
HETATM   25  C28 UNK     1      29.710  -8.116  29.055  1.00  0.00     0.210 C 
ENDBRANCH  21  24
ENDBRANCH  17  18
ENDBRANCH  16  17
ENDBRANCH  14  16
ENDBRANCH   8  14
BRANCH   3  26
HETATM   26  C10 UNK     1      30.626  -7.941  35.840  1.00  0.00     0.029 A 
HETATM   27  C12 UNK     1      31.293  -9.253  35.645  1.00  0.00     0.194 A 
HETATM   28  O5  UNK     1      32.167  -9.658  36.400  1.00  0.00    -0.287 OA
HETATM   29  C15 UNK     1      30.845 -10.048  34.486  1.00  0.00     0.048 A 
HETATM   30  C16 UNK     1      29.844  -9.537  33.660  1.00  0.00     0.089 A 
HETATM   31  C17 UNK     1      31.411 -11.296  34.218  1.00  0.00     0.018 A 
HETATM   32  O2  UNK     1      29.254  -8.318  33.877  1.00  0.00    -0.321 OA
HETATM   33  C18 UNK     1      29.404 -10.273  32.558  1.00  0.00     0.038 A 
HETATM   34  C14 UNK     1      29.681  -7.588  34.959  1.00  0.00     0.154 A 
HETATM   35  C21 UNK     1      29.969 -11.519  32.287  1.00  0.00     0.003 A 
HETATM   36  C20 UNK     1      30.970 -12.030  33.115  1.00  0.00     0.001 A 
ENDBRANCH   3  26
TORSDOF 6
ENDMDL
MODEL 6
REMARK VINA RESULT:      -8.1      2.606      6.765
REMARK  6 active torsions:
REMARK  status: ('A' for Active; 'I' for Inactive)
REMARK    1  A    between atoms: C11_18  and  O3_3 
REMARK    2  A    between atoms: C19_26  and  O3_3 
REMARK    3  A    between atoms: C27_34  and  O6_6 
REMARK    4  A    between atoms: C1_8  and  C10_17 
REMARK    5  A    between atoms: C11_18  and  C6_13 
REMARK    6  A    between atoms: C19_26  and  C22_29 
ROOT
HETATM    1  O1  UNK     1      28.222 -10.102  38.658  1.00  0.00    -0.293 OA
HETATM    2  N1  UNK     1      28.492  -5.412  38.056  1.00  0.00    -0.362 N 
HETATM    3  C1  UNK     1      29.796  -7.900  37.663  1.00  0.00     0.104 C 
HETATM    4  C2  UNK     1      28.391  -7.771  38.241  1.00  0.00     0.024 C 
HETATM    5  C3  UNK     1      27.804  -6.565  38.385  1.00  0.00     0.020 C 
HETATM    6  C4  UNK     1      26.402  -6.384  38.901  1.00  0.00     0.058 C 
HETATM    7  C5  UNK     1      25.569  -7.652  38.758  1.00  0.00     0.014 C 
HETATM    8  C6  UNK     1      30.487  -6.546  37.475  1.00  0.00     0.052 C 
HETATM    9  C7  UNK     1      26.306  -8.850  39.329  1.00  0.00     0.084 C 
HETATM   10  C8  UNK     1      27.678  -8.999  38.712  1.00  0.00     0.158 C 
HETATM   11  C9  UNK     1      29.820  -5.383  37.658  1.00  0.00     0.018 C 
HETATM   12  C13 UNK     1      30.388  -3.997  37.500  1.00  0.00     0.069 C 
HETATM   13  H8  UNK     1      28.019  -4.526  38.191  1.00  0.00     0.165 HD
ENDROOT
BRANCH   8  14
HETATM   14  C11 UNK     1      31.909  -6.593  37.095  1.00  0.00     0.292 C 
HETATM   15  O4  UNK     1      32.801  -6.859  37.877  1.00  0.00    -0.259 OA
BRANCH  14  16
HETATM   16  O3  UNK     1      32.010  -6.296  35.776  1.00  0.00    -0.313 OA
BRANCH  16  17
HETATM   17  C19 UNK     1      32.914  -7.121  35.036  1.00  0.00     0.217 C 
BRANCH  17  18
HETATM   18  C22 UNK     1      32.350  -7.360  33.666  1.00  0.00    -0.034 A 
HETATM   19  C23 UNK     1      31.279  -6.596  33.221  1.00  0.00     0.012 A 
HETATM   20  C25 UNK     1      30.754  -6.819  31.948  1.00  0.00     0.037 A 
HETATM   21  C27 UNK     1      31.305  -7.804  31.128  1.00  0.00     0.068 A 
HETATM   22  C26 UNK     1      32.381  -8.567  31.583  1.00  0.00     0.037 A 
HETATM   23  C24 UNK     1      32.905  -8.344  32.856  1.00  0.00     0.012 A 
BRANCH  21  24
HETATM   24  O6  UNK     1      30.793  -8.020  29.886  1.00  0.00    -0.356 OA
HETATM   25  C28 UNK     1      29.433  -7.646  29.671  1.00  0.00     0.210 C 
ENDBRANCH  21  24
ENDBRANCH  17  18
ENDBRANCH  16  17
ENDBRANCH  14  16
ENDBRANCH   8  14
BRANCH   3  26
HETATM   26  C10 UNK     1      29.754  -8.649  36.357  1.00  0.00     0.029 A 
HETATM   27  C12 UNK     1      30.690  -9.784  36.160  1.00  0.00     0.194 A 
HETATM   28  O5  UNK     1      31.487 -10.128  37.023  1.00  0.00    -0.287 OA
HETATM   29  C15 UNK     1      30.609 -10.480  34.862  1.00  0.00     0.048 A 
HETATM   30  C16 UNK     1      29.682 -10.045  33.916  1.00  0.00     0.089 A 
HETATM   31  C17 UNK     1      31.448 -11.561  34.580  1.00  0.00     0.018 A 
HETATM   32  O2  UNK     1      28.834  -8.989  34.140  1.00  0.00    -0.321 OA
HETATM   33  C18 UNK     1      29.587 -10.688  32.681  1.00  0.00     0.038 A 
HETATM   34  C14 UNK     1      28.920  -8.350  35.352  1.00  0.00     0.154 A 
HETATM   35  C21 UNK     1      30.424 -11.767  32.398  1.00  0.00     0.003 A 
HETATM   36  C20 UNK     1      31.352 -12.203  33.345  1.00  0.00     0.001 A 
ENDBRANCH   3  26
TORSDOF 6
ENDMDL
MODEL 7
REMARK VINA RESULT:      -8.0      2.373      6.725
REMARK  6 active torsions:
REMARK  status: ('A' for Active; 'I' for Inactive)
REMARK    1  A    between atoms: C11_18  and  O3_3 
REMARK    2  A    between atoms: C19_26  and  O3_3 
REMARK    3  A    between atoms: C27_34  and  O6_6 
REMARK    4  A    between atoms: C1_8  and  C10_17 
REMARK    5  A    between atoms: C11_18  and  C6_13 
REMARK    6  A    between atoms: C19_26  and  C22_29 
ROOT
HETATM    1  O1  UNK     1      27.642  -9.530  36.558  1.00  0.00    -0.293 OA
HETATM    2  N1  UNK     1      30.826  -6.279  37.870  1.00  0.00    -0.362 N 
HETATM    3  C1  UNK     1      30.079  -8.151  35.873  1.00  0.00     0.104 C 
HETATM    4  C2  UNK     1      29.230  -7.852  37.104  1.00  0.00     0.024 C 
HETATM    5  C3  UNK     1      29.618  -6.934  38.014  1.00  0.00     0.020 C 
HETATM    6  C4  UNK     1      28.794  -6.564  39.218  1.00  0.00     0.058 C 
HETATM    7  C5  UNK     1      27.324  -6.925  39.041  1.00  0.00     0.014 C 
HETATM    8  C6  UNK     1      31.446  -7.460  35.915  1.00  0.00     0.052 C 
HETATM    9  C7  UNK     1      27.172  -8.365  38.587  1.00  0.00     0.084 C 
HETATM   10  C8  UNK     1      27.977  -8.637  37.336  1.00  0.00     0.158 C 
HETATM   11  C9  UNK     1      31.753  -6.561  36.879  1.00  0.00     0.018 C 
HETATM   12  C13 UNK     1      33.056  -5.819  37.020  1.00  0.00     0.069 C 
HETATM   13  H8  UNK     1      31.085  -5.606  38.581  1.00  0.00     0.165 HD
ENDROOT
BRANCH   8  14
HETATM   14  C11 UNK     1      32.396  -7.842  34.855  1.00  0.00     0.292 C 
HETATM   15  O4  UNK     1      33.149  -8.792  34.944  1.00  0.00    -0.259 OA
BRANCH  14  16
HETATM   16  O3  UNK     1      32.263  -6.969  33.827  1.00  0.00    -0.313 OA
BRANCH  16  17
HETATM   17  C19 UNK     1      33.240  -7.101  32.790  1.00  0.00     0.217 C 
BRANCH  17  18
HETATM   18  C22 UNK     1      32.553  -7.511  31.520  1.00  0.00    -0.034 A 
HETATM   19  C23 UNK     1      32.879  -8.723  30.923  1.00  0.00     0.012 A 
HETATM   20  C25 UNK     1      32.241  -9.104  29.742  1.00  0.00     0.037 A 
HETATM   21  C27 UNK     1      31.281  -8.270  29.167  1.00  0.00     0.068 A 
HETATM   22  C26 UNK     1      30.960  -7.055  29.773  1.00  0.00     0.037 A 
HETATM   23  C24 UNK     1      31.598  -6.675  30.953  1.00  0.00     0.012 A 
BRANCH  21  24
HETATM   24  O6  UNK     1      30.660  -8.643  28.015  1.00  0.00    -0.356 OA
HETATM   25  C28 UNK     1      30.278 -10.013  27.898  1.00  0.00     0.210 C 
ENDBRANCH  21  24
ENDBRANCH  17  18
ENDBRANCH  16  17
ENDBRANCH  14  16
ENDBRANCH   8  14
BRANCH   3  26
HETATM   26  C10 UNK     1      29.338  -7.760  34.623  1.00  0.00     0.029 A 
HETATM   27  C12 UNK     1      29.239  -8.748  33.518  1.00  0.00     0.194 A 
HETATM   28  O5  UNK     1      29.739  -9.863  33.596  1.00  0.00    -0.287 OA
HETATM   29  C15 UNK     1      28.505  -8.313  32.316  1.00  0.00     0.048 A 
HETATM   30  C16 UNK     1      27.956  -7.031  32.283  1.00  0.00     0.089 A 
HETATM   31  C17 UNK     1      28.358  -9.170  31.223  1.00  0.00     0.018 A 
HETATM   32  O2  UNK     1      28.070  -6.149  33.328  1.00  0.00    -0.321 OA
HETATM   33  C18 UNK     1      27.257  -6.599  31.155  1.00  0.00     0.038 A 
HETATM   34  C14 UNK     1      28.757  -6.567  34.441  1.00  0.00     0.154 A 
HETATM   35  C21 UNK     1      27.109  -7.453  30.063  1.00  0.00     0.003 A 
HETATM   36  C20 UNK     1      27.658  -8.736  30.096  1.00  0.00     0.001 A 
ENDBRANCH   3  26
TORSDOF 6
ENDMDL
MODEL 8
REMARK VINA RESULT:      -8.0      1.808      3.086
REMARK  6 active torsions:
REMARK  status: ('A' for Active; 'I' for Inactive)
REMARK    1  A    between atoms: C11_18  and  O3_3 
REMARK    2  A    between atoms: C19_26  and  O3_3 
REMARK    3  A    between atoms: C27_34  and  O6_6 
REMARK    4  A    between atoms: C1_8  and  C10_17 
REMARK    5  A    between atoms: C11_18  and  C6_13 
REMARK    6  A    between atoms: C19_26  and  C22_29 
ROOT
HETATM    1  O1  UNK     1      27.729  -5.912  32.938  1.00  0.00    -0.293 OA
HETATM    2  N1  UNK     1      30.285  -9.342  30.906  1.00  0.00    -0.362 N 
HETATM    3  C1  UNK     1      29.923  -7.759  33.232  1.00  0.00     0.104 C 
HETATM    4  C2  UNK     1      28.998  -7.697  32.022  1.00  0.00     0.024 C 
HETATM    5  C3  UNK     1      29.198  -8.489  30.948  1.00  0.00     0.020 C 
HETATM    6  C4  UNK     1      28.287  -8.505  29.750  1.00  0.00     0.058 C 
HETATM    7  C5  UNK     1      26.904  -7.953  30.073  1.00  0.00     0.014 C 
HETATM    8  C6  UNK     1      31.154  -8.639  32.992  1.00  0.00     0.052 C 
HETATM    9  C7  UNK     1      27.008  -6.610  30.774  1.00  0.00     0.084 C 
HETATM   10  C8  UNK     1      27.886  -6.695  32.002  1.00  0.00     0.158 C 
HETATM   11  C9  UNK     1      31.276  -9.391  31.873  1.00  0.00     0.018 C 
HETATM   12  C13 UNK     1      32.432 -10.292  31.530  1.00  0.00     0.069 C 
HETATM   13  H8  UNK     1      30.405  -9.911  30.076  1.00  0.00     0.165 HD
ENDROOT
BRANCH   8  14
HETATM   14  C11 UNK     1      32.186  -8.607  34.042  1.00  0.00     0.292 C 
HETATM   15  O4  UNK     1      32.438  -9.554  34.761  1.00  0.00    -0.259 OA
BRANCH  14  16
HETATM   16  O3  UNK     1      32.760  -7.379  34.040  1.00  0.00    -0.313 OA
BRANCH  16  17
HETATM   17  C19 UNK     1      33.651  -7.124  35.130  1.00  0.00     0.217 C 
BRANCH  17  18
HETATM   18  C22 UNK     1      32.905  -6.400  36.212  1.00  0.00    -0.034 A 
HETATM   19  C23 UNK     1      32.689  -5.031  36.101  1.00  0.00     0.012 A 
HETATM   20  C25 UNK     1      31.996  -4.359  37.108  1.00  0.00     0.037 A 
HETATM   21  C27 UNK     1      31.525  -5.058  38.219  1.00  0.00     0.068 A 
HETATM   22  C26 UNK     1      31.746  -6.432  38.323  1.00  0.00     0.037 A 
HETATM   23  C24 UNK     1      32.439  -7.104  37.316  1.00  0.00     0.012 A 
BRANCH  21  24
HETATM   24  O6  UNK     1      30.849  -4.401  39.200  1.00  0.00    -0.356 OA
HETATM   25  C28 UNK     1      29.529  -3.956  38.892  1.00  0.00     0.210 C 
ENDBRANCH  21  24
ENDBRANCH  17  18
ENDBRANCH  16  17
ENDBRANCH  14  16
ENDBRANCH   8  14
BRANCH   3  26
HETATM   26  C10 UNK     1      29.166  -8.242  34.440  1.00  0.00     0.029 A 
HETATM   27  C12 UNK     1      29.031  -7.330  35.604  1.00  0.00     0.194 A 
HETATM   28  O5  UNK     1      29.512  -6.205  35.608  1.00  0.00    -0.287 OA
HETATM   29  C15 UNK     1      28.283  -7.855  36.762  1.00  0.00     0.048 A 
HETATM   30  C16 UNK     1      27.757  -9.145  36.702  1.00  0.00     0.089 A 
HETATM   31  C17 UNK     1      28.102  -7.073  37.905  1.00  0.00     0.018 A 
HETATM   32  O2  UNK     1      27.905  -9.956  35.604  1.00  0.00    -0.321 OA
HETATM   33  C18 UNK     1      27.045  -9.661  37.786  1.00  0.00     0.038 A 
HETATM   34  C14 UNK     1      28.604  -9.455  34.533  1.00  0.00     0.154 A 
HETATM   35  C21 UNK     1      26.863  -8.883  38.928  1.00  0.00     0.003 A 
HETATM   36  C20 UNK     1      27.390  -7.591  38.988  1.00  0.00     0.001 A 
ENDBRANCH   3  26
TORSDOF 6
ENDMDL
MODEL 9
REMARK VINA RESULT:      -7.9      2.032      3.287
REMARK  6 active torsions:
REMARK  status: ('A' for Active; 'I' for Inactive)
REMARK    1  A    between atoms: C11_18  and  O3_3 
REMARK    2  A    between atoms: C19_26  and  O3_3 
REMARK    3  A    between atoms: C27_34  and  O6_6 
REMARK    4  A    between atoms: C1_8  and  C10_17 
REMARK    5  A    between atoms: C11_18  and  C6_13 
REMARK    6  A    between atoms: C19_26  and  C22_29 
ROOT
HETATM    1  O1  UNK     1      29.309  -5.382  31.987  1.00  0.00    -0.293 OA
HETATM    2  N1  UNK     1      28.813 -10.055  31.398  1.00  0.00    -0.362 N 
HETATM    3  C1  UNK     1      30.091  -8.007  32.888  1.00  0.00     0.104 C 
HETATM    4  C2  UNK     1      29.045  -7.735  31.813  1.00  0.00     0.024 C 
HETATM    5  C3  UNK     1      28.448  -8.746  31.148  1.00  0.00     0.020 C 
HETATM    6  C4  UNK     1      27.373  -8.536  30.115  1.00  0.00     0.058 C 
HETATM    7  C5  UNK     1      26.693  -7.180  30.261  1.00  0.00     0.014 C 
HETATM    8  C6  UNK     1      30.496  -9.482  32.961  1.00  0.00     0.052 C 
HETATM    9  C7  UNK     1      27.721  -6.066  30.343  1.00  0.00     0.084 C 
HETATM   10  C8  UNK     1      28.723  -6.320  31.446  1.00  0.00     0.158 C 
HETATM   11  C9  UNK     1      29.847 -10.428  32.243  1.00  0.00     0.018 C 
HETATM   12  C13 UNK     1      30.151 -11.903  32.235  1.00  0.00     0.069 C 
HETATM   13  H8  UNK     1      28.349 -10.783  30.869  1.00  0.00     0.165 HD
ENDROOT
BRANCH   8  14
HETATM   14  C11 UNK     1      31.631  -9.798  33.845  1.00  0.00     0.292 C 
HETATM   15  O4  UNK     1      31.498 -10.160  34.999  1.00  0.00    -0.259 OA
BRANCH  14  16
HETATM   16  O3  UNK     1      32.780  -9.614  33.150  1.00  0.00    -0.313 OA
BRANCH  16  17
HETATM   17  C19 UNK     1      33.967  -9.554  33.946  1.00  0.00     0.217 C 
BRANCH  17  18
HETATM   18  C22 UNK     1      34.199  -8.134  34.373  1.00  0.00    -0.034 A 
HETATM   19  C23 UNK     1      34.590  -7.188  33.433  1.00  0.00     0.012 A 
HETATM   20  C25 UNK     1      34.806  -5.869  33.831  1.00  0.00     0.037 A 
HETATM   21  C27 UNK     1      34.629  -5.504  35.166  1.00  0.00     0.068 A 
HETATM   22  C26 UNK     1      34.236  -6.460  36.104  1.00  0.00     0.037 A 
HETATM   23  C24 UNK     1      34.020  -7.779  35.705  1.00  0.00     0.012 A 
BRANCH  21  24
HETATM   24  O6  UNK     1      34.840  -4.216  35.553  1.00  0.00    -0.356 OA
HETATM   25  C28 UNK     1      33.717  -3.337  35.520  1.00  0.00     0.210 C 
ENDBRANCH  21  24
ENDBRANCH  17  18
ENDBRANCH  16  17
ENDBRANCH  14  16
ENDBRANCH   8  14
BRANCH   3  26
HETATM   26  C10 UNK     1      29.592  -7.538  34.229  1.00  0.00     0.029 A 
HETATM   27  C12 UNK     1      30.334  -6.455  34.922  1.00  0.00     0.194 A 
HETATM   28  O5  UNK     1      31.331  -5.935  34.438  1.00  0.00    -0.287 OA
HETATM   29  C15 UNK     1      29.804  -6.036  36.233  1.00  0.00     0.048 A 
HETATM   30  C16 UNK     1      28.665  -6.664  36.736  1.00  0.00     0.089 A 
HETATM   31  C17 UNK     1      30.432  -5.025  36.964  1.00  0.00     0.018 A 
HETATM   32  O2  UNK     1      28.009  -7.662  36.061  1.00  0.00    -0.321 OA
HETATM   33  C18 UNK     1      28.146  -6.283  37.975  1.00  0.00     0.038 A 
HETATM   34  C14 UNK     1      28.513  -8.042  34.841  1.00  0.00     0.154 A 
HETATM   35  C21 UNK     1      28.771  -5.274  38.707  1.00  0.00     0.003 A 
HETATM   36  C20 UNK     1      29.911  -4.646  38.203  1.00  0.00     0.001 A 
ENDBRANCH   3  26
TORSDOF 6
ENDMDL
MODEL 10
REMARK VINA RESULT:      -7.8      2.421      6.779
REMARK  6 active torsions:
REMARK  status: ('A' for Active; 'I' for Inactive)
REMARK    1  A    between atoms: C11_18  and  O3_3 
REMARK    2  A    between atoms: C19_26  and  O3_3 
REMARK    3  A    between atoms: C27_34  and  O6_6 
REMARK    4  A    between atoms: C1_8  and  C10_17 
REMARK    5  A    between atoms: C11_18  and  C6_13 
REMARK    6  A    between atoms: C19_26  and  C22_29 
ROOT
HETATM    1  O1  UNK     1      26.674  -9.525  36.663  1.00  0.00    -0.293 OA
HETATM    2  N1  UNK     1      30.388  -7.080  38.294  1.00  0.00    -0.362 N 
HETATM    3  C1  UNK     1      29.392  -8.692  36.182  1.00  0.00     0.104 C 
HETATM    4  C2  UNK     1      28.546  -8.248  37.370  1.00  0.00     0.024 C 
HETATM    5  C3  UNK     1      29.060  -7.460  38.337  1.00  0.00     0.020 C 
HETATM    6  C4  UNK     1      28.255  -6.950  39.503  1.00  0.00     0.058 C 
HETATM    7  C5  UNK     1      26.758  -6.978  39.224  1.00  0.00     0.014 C 
HETATM    8  C6  UNK     1      30.870  -8.317  36.334  1.00  0.00     0.052 C 
HETATM    9  C7  UNK     1      26.330  -8.338  38.704  1.00  0.00     0.084 C 
HETATM   10  C8  UNK     1      27.140  -8.746  37.494  1.00  0.00     0.158 C 
HETATM   11  C9  UNK     1      31.297  -7.531  37.350  1.00  0.00     0.018 C 
HETATM   12  C13 UNK     1      32.716  -7.095  37.600  1.00  0.00     0.069 C 
HETATM   13  H8  UNK     1      30.737  -6.498  39.046  1.00  0.00     0.165 HD
ENDROOT
BRANCH   8  14
HETATM   14  C11 UNK     1      31.784  -8.869  35.320  1.00  0.00     0.292 C 
HETATM   15  O4  UNK     1      32.097 -10.043  35.270  1.00  0.00    -0.259 OA
BRANCH  14  16
HETATM   16  O3  UNK     1      32.179  -7.860  34.506  1.00  0.00    -0.313 OA
BRANCH  16  17
HETATM   17  C19 UNK     1      32.192  -8.176  33.110  1.00  0.00     0.217 C 
BRANCH  17  18
HETATM   18  C22 UNK     1      31.591  -7.035  32.343  1.00  0.00    -0.034 A 
HETATM   19  C23 UNK     1      31.209  -5.880  33.016  1.00  0.00     0.012 A 
HETATM   20  C25 UNK     1      30.650  -4.820  32.302  1.00  0.00     0.037 A 
HETATM   21  C27 UNK     1      30.476  -4.922  30.922  1.00  0.00     0.068 A 
HETATM   22  C26 UNK     1      30.862  -6.084  30.255  1.00  0.00     0.037 A 
HETATM   23  C24 UNK     1      31.422  -7.144  30.968  1.00  0.00     0.012 A 
BRANCH  21  24
HETATM   24  O6  UNK     1      29.930  -3.887  30.227  1.00  0.00    -0.356 OA
HETATM   25  C28 UNK     1      30.019  -2.591  30.818  1.00  0.00     0.210 C 
ENDBRANCH  21  24
ENDBRANCH  17  18
ENDBRANCH  16  17
ENDBRANCH  14  16
ENDBRANCH   8  14
BRANCH   3  26
HETATM   26  C10 UNK     1      28.839  -8.117  34.905  1.00  0.00     0.029 A 
HETATM   27  C12 UNK     1      28.797  -8.981  33.698  1.00  0.00     0.194 A 
HETATM   28  O5  UNK     1      29.196 -10.138  33.712  1.00  0.00    -0.287 OA
HETATM   29  C15 UNK     1      28.249  -8.367  32.475  1.00  0.00     0.048 A 
HETATM   30  C16 UNK     1      27.809  -7.044  32.518  1.00  0.00     0.089 A 
HETATM   31  C17 UNK     1      28.168  -9.098  31.287  1.00  0.00     0.018 A 
HETATM   32  O2  UNK     1      27.866  -6.281  33.657  1.00  0.00    -0.321 OA
HETATM   33  C18 UNK     1      27.286  -6.444  31.371  1.00  0.00     0.038 A 
HETATM   34  C14 UNK     1      28.379  -6.864  34.789  1.00  0.00     0.154 A 
HETATM   35  C21 UNK     1      27.205  -7.171  30.185  1.00  0.00     0.003 A 
HETATM   36  C20 UNK     1      27.644  -8.495  30.142  1.00  0.00     0.001 A 
ENDBRANCH   3  26
TORSDOF 6
ENDMDL
