MODEL 1
REMARK VINA RESULT:     -10.7      0.000      0.000
REMARK  6 active torsions:
REMARK  status: ('A' for Active; 'I' for Inactive)
REMARK    1  A    between atoms: C5_11  and  N1_4 
REMARK    2  A    between atoms: C6_12  and  N2_5 
REMARK    3  A    between atoms: C15_21  and  N3_6 
REMARK       I    between atoms: C9_15  and  N3_6 
REMARK    4  A    between atoms: C5_11  and  C7_13 
REMARK    5  A    between atoms: C6_12  and  C9_15 
REMARK    6  A    between atoms: C18_24  and  C20_26 
ROOT
HETATM    1  N1  UNK     1      19.266  -3.140  36.111  1.00  0.00     0.096 N 
HETATM    2  N2  UNK     1      18.312  -0.543  35.270  1.00  0.00     0.100 N 
HETATM    3  C1  UNK     1      18.457  -2.300  37.002  1.00  0.00     0.303 C 
HETATM    4  C2  UNK     1      20.042  -2.307  35.184  1.00  0.00     0.303 C 
HETATM    5  C3  UNK     1      17.536  -1.378  36.196  1.00  0.00     0.303 C 
HETATM    6  C4  UNK     1      19.120  -1.385  34.378  1.00  0.00     0.303 C 
ENDROOT
BRANCH   1   7
HETATM    7  C5  UNK     1      20.147  -4.016  36.882  1.00  0.00     0.312 C 
BRANCH   7   8
HETATM    8  C7  UNK     1      20.170  -5.404  36.343  1.00  0.00    -0.011 A 
HETATM    9  C10 UNK     1      20.261  -5.635  35.026  1.00  0.00     0.092 A 
HETATM   10  C13 UNK     1      20.288  -6.989  34.447  1.00  0.00     0.288 A 
HETATM   11  O1  UNK     1      20.214  -8.048  35.337  1.00  0.00    -0.275 OA
HETATM   12  O3  UNK     1      20.370  -7.161  33.236  1.00  0.00    -0.260 OA
HETATM   13  C11 UNK     1      20.119  -7.838  36.727  1.00  0.00     0.090 A 
HETATM   14  C8  UNK     1      20.094  -6.549  37.262  1.00  0.00     0.006 A 
HETATM   15  C14 UNK     1      20.051  -8.979  37.528  1.00  0.00     0.045 A 
HETATM   16  C12 UNK     1      19.998  -6.424  38.654  1.00  0.00     0.015 A 
HETATM   17  C17 UNK     1      19.928  -7.559  39.470  1.00  0.00     0.007 A 
HETATM   18  C16 UNK     1      19.955  -8.834  38.908  1.00  0.00    -0.059 A 
HETATM   19  C21 UNK     1      19.882 -10.038  39.785  1.00  0.00     0.048 C 
ENDBRANCH   7   8
ENDBRANCH   1   7
BRANCH   2  20
HETATM   20  C6  UNK     1      17.433   0.333  34.501  1.00  0.00     0.375 C 
BRANCH  20  21
HETATM   21  C9  UNK     1      18.173   1.615  34.157  1.00  0.00     0.250 C 
HETATM   22  O2  UNK     1      19.035   2.096  34.884  1.00  0.00    -0.271 OA
HETATM   23  N3  UNK     1      17.727   2.115  32.935  1.00  0.00    -0.325 N 
HETATM   24  H14 UNK     1      16.993   1.588  32.474  1.00  0.00     0.169 HD
BRANCH  23  25
HETATM   25  C15 UNK     1      18.165   3.285  32.270  1.00  0.00     0.041 A 
HETATM   26  C18 UNK     1      18.635   3.228  30.957  1.00  0.00    -0.032 A 
HETATM   27  C22 UNK     1      19.062   4.392  30.319  1.00  0.00     0.009 A 
HETATM   28  C24 UNK     1      19.018   5.613  30.991  1.00  0.00     0.001 A 
HETATM   29  C23 UNK     1      18.548   5.669  32.303  1.00  0.00     0.002 A 
HETATM   30  C19 UNK     1      18.121   4.506  32.942  1.00  0.00     0.030 A 
BRANCH  26  31
HETATM   31  C20 UNK     1      18.693   1.933  30.213  1.00  0.00     0.036 C 
HETATM   32  C25 UNK     1      17.942   1.997  28.886  1.00  0.00     0.010 C 
ENDBRANCH  26  31
ENDBRANCH  23  25
ENDBRANCH  20  21
ENDBRANCH   2  20
TORSDOF 6
ENDMDL
MODEL 2
REMARK VINA RESULT:      -9.8      5.950     12.279
REMARK  6 active torsions:
REMARK  status: ('A' for Active; 'I' for Inactive)
REMARK    1  A    between atoms: C5_11  and  N1_4 
REMARK    2  A    between atoms: C6_12  and  N2_5 
REMARK    3  A    between atoms: C15_21  and  N3_6 
REMARK       I    between atoms: C9_15  and  N3_6 
REMARK    4  A    between atoms: C5_11  and  C7_13 
REMARK    5  A    between atoms: C6_12  and  C9_15 
REMARK    6  A    between atoms: C18_24  and  C20_26 
ROOT
HETATM    1  N1  UNK     1      18.294   5.593  32.810  1.00  0.00     0.096 N 
HETATM    2  N2  UNK     1      18.891   3.920  30.528  1.00  0.00     0.100 N 
HETATM    3  C1  UNK     1      19.355   5.949  31.860  1.00  0.00     0.303 C 
HETATM    4  C2  UNK     1      18.126   4.135  32.868  1.00  0.00     0.303 C 
HETATM    5  C3  UNK     1      19.058   5.378  30.469  1.00  0.00     0.303 C 
HETATM    6  C4  UNK     1      17.828   3.564  31.478  1.00  0.00     0.303 C 
ENDROOT
BRANCH   1   7
HETATM    7  C5  UNK     1      18.582   6.136  34.136  1.00  0.00     0.312 C 
BRANCH   7   8
HETATM    8  C7  UNK     1      18.550   7.624  34.153  1.00  0.00    -0.011 A 
HETATM    9  C10 UNK     1      19.668   8.340  34.335  1.00  0.00     0.092 A 
HETATM   10  C13 UNK     1      19.685   9.813  34.359  1.00  0.00     0.288 A 
HETATM   11  O1  UNK     1      18.468  10.452  34.182  1.00  0.00    -0.275 OA
HETATM   12  O3  UNK     1      20.728  10.434  34.529  1.00  0.00    -0.260 OA
HETATM   13  C11 UNK     1      17.275   9.727  33.988  1.00  0.00     0.090 A 
HETATM   14  C8  UNK     1      17.275   8.332  33.968  1.00  0.00     0.006 A 
HETATM   15  C14 UNK     1      16.109  10.476  33.820  1.00  0.00     0.045 A 
HETATM   16  C12 UNK     1      16.048   7.684  33.770  1.00  0.00     0.015 A 
HETATM   17  C17 UNK     1      14.870   8.422  33.601  1.00  0.00     0.007 A 
HETATM   18  C16 UNK     1      14.901   9.815  33.625  1.00  0.00    -0.059 A 
HETATM   19  C21 UNK     1      13.643  10.594  33.443  1.00  0.00     0.048 C 
ENDBRANCH   7   8
ENDBRANCH   1   7
BRANCH   2  20
HETATM   20  C6  UNK     1      18.605   3.376  29.202  1.00  0.00     0.375 C 
BRANCH  20  21
HETATM   21  C9  UNK     1      18.529   1.861  29.283  1.00  0.00     0.250 C 
HETATM   22  O2  UNK     1      17.595   1.220  28.814  1.00  0.00    -0.271 OA
HETATM   23  N3  UNK     1      19.650   1.358  29.941  1.00  0.00    -0.325 N 
HETATM   24  H14 UNK     1      20.321   2.042  30.273  1.00  0.00     0.169 HD
BRANCH  23  25
HETATM   25  C15 UNK     1      19.953   0.003  30.216  1.00  0.00     0.041 A 
HETATM   26  C18 UNK     1      19.606  -0.572  31.439  1.00  0.00    -0.032 A 
HETATM   27  C22 UNK     1      19.913  -1.910  31.692  1.00  0.00     0.009 A 
HETATM   28  C24 UNK     1      20.565  -2.671  30.722  1.00  0.00     0.001 A 
HETATM   29  C23 UNK     1      20.911  -2.095  29.500  1.00  0.00     0.002 A 
HETATM   30  C19 UNK     1      20.605  -0.758  29.247  1.00  0.00     0.030 A 
BRANCH  26  31
HETATM   31  C20 UNK     1      18.908   0.220  32.496  1.00  0.00     0.036 C 
HETATM   32  C25 UNK     1      18.462  -0.650  33.668  1.00  0.00     0.010 C 
ENDBRANCH  26  31
ENDBRANCH  23  25
ENDBRANCH  20  21
ENDBRANCH   2  20
TORSDOF 6
ENDMDL
MODEL 3
REMARK VINA RESULT:      -9.8      5.986     12.726
REMARK  6 active torsions:
REMARK  status: ('A' for Active; 'I' for Inactive)
REMARK    1  A    between atoms: C5_11  and  N1_4 
REMARK    2  A    between atoms: C6_12  and  N2_5 
REMARK    3  A    between atoms: C15_21  and  N3_6 
REMARK       I    between atoms: C9_15  and  N3_6 
REMARK    4  A    between atoms: C5_11  and  C7_13 
REMARK    5  A    between atoms: C6_12  and  C9_15 
REMARK    6  A    between atoms: C18_24  and  C20_26 
ROOT
HETATM    1  N1  UNK     1      18.251   6.180  32.226  1.00  0.00     0.096 N 
HETATM    2  N2  UNK     1      18.974   4.152  30.296  1.00  0.00     0.100 N 
HETATM    3  C1  UNK     1      19.385   6.367  31.312  1.00  0.00     0.303 C 
HETATM    4  C2  UNK     1      18.049   4.753  32.508  1.00  0.00     0.303 C 
HETATM    5  C3  UNK     1      19.175   5.579  30.014  1.00  0.00     0.303 C 
HETATM    6  C4  UNK     1      17.839   3.966  31.209  1.00  0.00     0.303 C 
ENDROOT
BRANCH   1   7
HETATM    7  C5  UNK     1      18.455   6.929  33.465  1.00  0.00     0.312 C 
BRANCH   7   8
HETATM    8  C7  UNK     1      17.341   7.880  33.736  1.00  0.00    -0.011 A 
HETATM    9  C10 UNK     1      16.069   7.460  33.789  1.00  0.00     0.092 A 
HETATM   10  C13 UNK     1      14.935   8.362  34.054  1.00  0.00     0.288 A 
HETATM   11  O1  UNK     1      15.238   9.700  34.252  1.00  0.00    -0.275 OA
HETATM   12  O3  UNK     1      13.784   7.941  34.095  1.00  0.00    -0.260 OA
HETATM   13  C11 UNK     1      16.564  10.171  34.202  1.00  0.00     0.090 A 
HETATM   14  C8  UNK     1      17.629   9.305  33.950  1.00  0.00     0.006 A 
HETATM   15  C14 UNK     1      16.750  11.539  34.416  1.00  0.00     0.045 A 
HETATM   16  C12 UNK     1      18.919   9.851  33.916  1.00  0.00     0.015 A 
HETATM   17  C17 UNK     1      19.120  11.220  34.128  1.00  0.00     0.007 A 
HETATM   18  C16 UNK     1      18.038  12.062  34.379  1.00  0.00    -0.059 A 
HETATM   19  C21 UNK     1      18.261  13.519  34.605  1.00  0.00     0.048 C 
ENDBRANCH   7   8
ENDBRANCH   1   7
BRANCH   2  20
HETATM   20  C6  UNK     1      18.773   3.402  29.058  1.00  0.00     0.375 C 
BRANCH  20  21
HETATM   21  C9  UNK     1      18.553   1.935  29.386  1.00  0.00     0.250 C 
HETATM   22  O2  UNK     1      17.485   1.366  29.189  1.00  0.00    -0.271 OA
HETATM   23  N3  UNK     1      19.717   1.381  29.916  1.00  0.00    -0.325 N 
HETATM   24  H14 UNK     1      20.507   2.009  30.019  1.00  0.00     0.169 HD
BRANCH  23  25
HETATM   25  C15 UNK     1      19.920   0.048  30.345  1.00  0.00     0.041 A 
HETATM   26  C18 UNK     1      19.481  -0.374  31.600  1.00  0.00    -0.032 A 
HETATM   27  C22 UNK     1      19.691  -1.693  32.005  1.00  0.00     0.009 A 
HETATM   28  C24 UNK     1      20.338  -2.589  31.154  1.00  0.00     0.001 A 
HETATM   29  C23 UNK     1      20.776  -2.166  29.899  1.00  0.00     0.002 A 
HETATM   30  C19 UNK     1      20.567  -0.848  29.494  1.00  0.00     0.030 A 
BRANCH  26  31
HETATM   31  C20 UNK     1      18.786   0.564  32.532  1.00  0.00     0.036 C 
HETATM   32  C25 UNK     1      18.367  -0.118  33.831  1.00  0.00     0.010 C 
ENDBRANCH  26  31
ENDBRANCH  23  25
ENDBRANCH  20  21
ENDBRANCH   2  20
TORSDOF 6
ENDMDL
MODEL 4
REMARK VINA RESULT:      -9.6      2.338      3.280
REMARK  6 active torsions:
REMARK  status: ('A' for Active; 'I' for Inactive)
REMARK    1  A    between atoms: C5_11  and  N1_4 
REMARK    2  A    between atoms: C6_12  and  N2_5 
REMARK    3  A    between atoms: C15_21  and  N3_6 
REMARK       I    between atoms: C9_15  and  N3_6 
REMARK    4  A    between atoms: C5_11  and  C7_13 
REMARK    5  A    between atoms: C6_12  and  C9_15 
REMARK    6  A    between atoms: C18_24  and  C20_26 
ROOT
HETATM    1  N1  UNK     1      19.551  -3.032  36.942  1.00  0.00     0.096 N 
HETATM    2  N2  UNK     1      18.850  -0.502  35.730  1.00  0.00     0.100 N 
HETATM    3  C1  UNK     1      18.671  -2.077  37.626  1.00  0.00     0.303 C 
HETATM    4  C2  UNK     1      20.486  -2.326  36.057  1.00  0.00     0.303 C 
HETATM    5  C3  UNK     1      17.915  -1.209  36.614  1.00  0.00     0.303 C 
HETATM    6  C4  UNK     1      19.730  -1.459  35.045  1.00  0.00     0.303 C 
ENDROOT
BRANCH   1   7
HETATM    7  C5  UNK     1      20.274  -3.855  37.910  1.00  0.00     0.312 C 
BRANCH   7   8
HETATM    8  C7  UNK     1      20.419  -5.265  37.451  1.00  0.00    -0.011 A 
HETATM    9  C10 UNK     1      19.516  -5.823  36.631  1.00  0.00     0.092 A 
HETATM   10  C13 UNK     1      19.617  -7.212  36.152  1.00  0.00     0.288 A 
HETATM   11  O1  UNK     1      20.709  -7.944  36.590  1.00  0.00    -0.275 OA
HETATM   12  O3  UNK     1      18.771  -7.689  35.403  1.00  0.00    -0.260 OA
HETATM   13  C11 UNK     1      21.674  -7.385  37.451  1.00  0.00     0.090 A 
HETATM   14  C8  UNK     1      21.565  -6.068  37.898  1.00  0.00     0.006 A 
HETATM   15  C14 UNK     1      22.731  -8.216  37.827  1.00  0.00     0.045 A 
HETATM   16  C12 UNK     1      22.566  -5.586  38.753  1.00  0.00     0.015 A 
HETATM   17  C17 UNK     1      23.632  -6.407  39.139  1.00  0.00     0.007 A 
HETATM   18  C16 UNK     1      23.714  -7.719  38.676  1.00  0.00    -0.059 A 
HETATM   19  C21 UNK     1      24.853  -8.588  39.092  1.00  0.00     0.048 C 
ENDBRANCH   7   8
ENDBRANCH   1   7
BRANCH   2  20
HETATM   20  C6  UNK     1      18.128   0.322  34.764  1.00  0.00     0.375 C 
BRANCH  20  21
HETATM   21  C9  UNK     1      18.148  -0.357  33.405  1.00  0.00     0.250 C 
HETATM   22  O2  UNK     1      17.328  -1.208  33.079  1.00  0.00    -0.271 OA
HETATM   23  N3  UNK     1      19.201   0.135  32.636  1.00  0.00    -0.325 N 
HETATM   24  H14 UNK     1      19.790   0.834  33.076  1.00  0.00     0.169 HD
BRANCH  23  25
HETATM   25  C15 UNK     1      19.556  -0.240  31.319  1.00  0.00     0.041 A 
HETATM   26  C18 UNK     1      19.378   0.640  30.251  1.00  0.00    -0.032 A 
HETATM   27  C22 UNK     1      19.735   0.252  28.960  1.00  0.00     0.009 A 
HETATM   28  C24 UNK     1      20.271  -1.016  28.736  1.00  0.00     0.001 A 
HETATM   29  C23 UNK     1      20.450  -1.896  29.804  1.00  0.00     0.002 A 
HETATM   30  C19 UNK     1      20.093  -1.508  31.095  1.00  0.00     0.030 A 
BRANCH  26  31
HETATM   31  C20 UNK     1      18.805   2.004  30.462  1.00  0.00     0.036 C 
HETATM   32  C25 UNK     1      18.063   2.514  29.230  1.00  0.00     0.010 C 
ENDBRANCH  26  31
ENDBRANCH  23  25
ENDBRANCH  20  21
ENDBRANCH   2  20
TORSDOF 6
ENDMDL
MODEL 5
REMARK VINA RESULT:      -9.4      4.190     12.448
REMARK  6 active torsions:
REMARK  status: ('A' for Active; 'I' for Inactive)
REMARK    1  A    between atoms: C5_11  and  N1_4 
REMARK    2  A    between atoms: C6_12  and  N2_5 
REMARK    3  A    between atoms: C15_21  and  N3_6 
REMARK       I    between atoms: C9_15  and  N3_6 
REMARK    4  A    between atoms: C5_11  and  C7_13 
REMARK    5  A    between atoms: C6_12  and  C9_15 
REMARK    6  A    between atoms: C18_24  and  C20_26 
ROOT
HETATM    1  N1  UNK     1      18.063   5.447  31.580  1.00  0.00     0.096 N 
HETATM    2  N2  UNK     1      19.019   2.798  30.921  1.00  0.00     0.100 N 
HETATM    3  C1  UNK     1      18.986   5.226  30.459  1.00  0.00     0.303 C 
HETATM    4  C2  UNK     1      18.266   4.429  32.619  1.00  0.00     0.303 C 
HETATM    5  C3  UNK     1      18.816   3.816  29.882  1.00  0.00     0.303 C 
HETATM    6  C4  UNK     1      18.095   3.020  32.041  1.00  0.00     0.303 C 
ENDROOT
BRANCH   1   7
HETATM    7  C5  UNK     1      18.230   6.791  32.131  1.00  0.00     0.312 C 
BRANCH   7   8
HETATM    8  C7  UNK     1      16.924   7.447  32.415  1.00  0.00    -0.011 A 
HETATM    9  C10 UNK     1      15.766   6.868  32.065  1.00  0.00     0.092 A 
HETATM   10  C13 UNK     1      14.451   7.478  32.324  1.00  0.00     0.288 A 
HETATM   11  O1  UNK     1      14.451   8.708  32.962  1.00  0.00    -0.275 OA
HETATM   12  O3  UNK     1      13.413   6.919  31.989  1.00  0.00    -0.260 OA
HETATM   13  C11 UNK     1      15.651   9.342  33.343  1.00  0.00     0.090 A 
HETATM   14  C8  UNK     1      16.890   8.752  33.090  1.00  0.00     0.006 A 
HETATM   15  C14 UNK     1      15.530  10.579  33.979  1.00  0.00     0.045 A 
HETATM   16  C12 UNK     1      18.037   9.445  33.499  1.00  0.00     0.015 A 
HETATM   17  C17 UNK     1      17.931  10.687  34.137  1.00  0.00     0.007 A 
HETATM   18  C16 UNK     1      16.679  11.252  34.377  1.00  0.00    -0.059 A 
HETATM   19  C21 UNK     1      16.575  12.574  35.059  1.00  0.00     0.048 C 
ENDBRANCH   7   8
ENDBRANCH   1   7
BRANCH   2  20
HETATM   20  C6  UNK     1      18.855   1.455  30.370  1.00  0.00     0.375 C 
BRANCH  20  21
HETATM   21  C9  UNK     1      19.625   0.462  31.223  1.00  0.00     0.250 C 
HETATM   22  O2  UNK     1      20.774   0.119  30.965  1.00  0.00    -0.271 OA
HETATM   23  N3  UNK     1      18.841   0.039  32.295  1.00  0.00    -0.325 N 
HETATM   24  H14 UNK     1      17.903   0.422  32.345  1.00  0.00     0.169 HD
BRANCH  23  25
HETATM   25  C15 UNK     1      19.194  -0.879  33.313  1.00  0.00     0.041 A 
HETATM   26  C18 UNK     1      18.732  -0.711  34.619  1.00  0.00    -0.032 A 
HETATM   27  C22 UNK     1      19.091  -1.627  35.608  1.00  0.00     0.009 A 
HETATM   28  C24 UNK     1      19.910  -2.711  35.291  1.00  0.00     0.001 A 
HETATM   29  C23 UNK     1      20.371  -2.878  33.986  1.00  0.00     0.002 A 
HETATM   30  C19 UNK     1      20.013  -1.963  32.996  1.00  0.00     0.030 A 
BRANCH  26  31
HETATM   31  C20 UNK     1      17.854   0.441  34.986  1.00  0.00     0.036 C 
HETATM   32  C25 UNK     1      18.571   1.450  35.879  1.00  0.00     0.010 C 
ENDBRANCH  26  31
ENDBRANCH  23  25
ENDBRANCH  20  21
ENDBRANCH   2  20
TORSDOF 6
ENDMDL
MODEL 6
REMARK VINA RESULT:      -9.3      4.626      8.054
REMARK  6 active torsions:
REMARK  status: ('A' for Active; 'I' for Inactive)
REMARK    1  A    between atoms: C5_11  and  N1_4 
REMARK    2  A    between atoms: C6_12  and  N2_5 
REMARK    3  A    between atoms: C15_21  and  N3_6 
REMARK       I    between atoms: C9_15  and  N3_6 
REMARK    4  A    between atoms: C5_11  and  C7_13 
REMARK    5  A    between atoms: C6_12  and  C9_15 
REMARK    6  A    between atoms: C18_24  and  C20_26 
ROOT
HETATM    1  N1  UNK     1      18.801   3.601  31.357  1.00  0.00     0.096 N 
HETATM    2  N2  UNK     1      19.102   6.291  32.375  1.00  0.00     0.100 N 
HETATM    3  C1  UNK     1      19.181   4.712  30.476  1.00  0.00     0.303 C 
HETATM    4  C2  UNK     1      17.982   4.089  32.474  1.00  0.00     0.303 C 
HETATM    5  C3  UNK     1      19.921   5.802  31.259  1.00  0.00     0.303 C 
HETATM    6  C4  UNK     1      18.723   5.179  33.257  1.00  0.00     0.303 C 
ENDROOT
BRANCH   1   7
HETATM    7  C5  UNK     1      18.092   2.565  30.608  1.00  0.00     0.312 C 
BRANCH   7   8
HETATM    8  C7  UNK     1      18.863   1.292  30.544  1.00  0.00    -0.011 A 
HETATM    9  C10 UNK     1      19.477   0.911  29.415  1.00  0.00     0.092 A 
HETATM   10  C13 UNK     1      20.250  -0.339  29.303  1.00  0.00     0.288 A 
HETATM   11  O1  UNK     1      20.323  -1.129  30.439  1.00  0.00    -0.275 OA
HETATM   12  O3  UNK     1      20.798  -0.655  28.253  1.00  0.00    -0.260 OA
HETATM   13  C11 UNK     1      19.688  -0.755  31.640  1.00  0.00     0.090 A 
HETATM   14  C8  UNK     1      18.958   0.432  31.731  1.00  0.00     0.006 A 
HETATM   15  C14 UNK     1      19.829  -1.629  32.720  1.00  0.00     0.045 A 
HETATM   16  C12 UNK     1      18.357   0.733  32.961  1.00  0.00     0.015 A 
HETATM   17  C17 UNK     1      18.489  -0.134  34.052  1.00  0.00     0.007 A 
HETATM   18  C16 UNK     1      19.224  -1.312  33.932  1.00  0.00    -0.059 A 
HETATM   19  C21 UNK     1      19.360  -2.229  35.099  1.00  0.00     0.048 C 
ENDBRANCH   7   8
ENDBRANCH   1   7
BRANCH   2  20
HETATM   20  C6  UNK     1      19.809   7.328  33.123  1.00  0.00     0.375 C 
BRANCH  20  21
HETATM   21  C9  UNK     1      18.841   8.018  34.068  1.00  0.00     0.250 C 
HETATM   22  O2  UNK     1      18.972   7.990  35.287  1.00  0.00    -0.271 OA
HETATM   23  N3  UNK     1      17.837   8.659  33.344  1.00  0.00    -0.325 N 
HETATM   24  H14 UNK     1      17.881   8.566  32.335  1.00  0.00     0.169 HD
BRANCH  23  25
HETATM   25  C15 UNK     1      16.751   9.410  33.854  1.00  0.00     0.041 A 
HETATM   26  C18 UNK     1      15.486   8.836  33.991  1.00  0.00    -0.032 A 
HETATM   27  C22 UNK     1      14.429   9.593  34.496  1.00  0.00     0.009 A 
HETATM   28  C24 UNK     1      14.635  10.922  34.865  1.00  0.00     0.001 A 
HETATM   29  C23 UNK     1      15.900  11.495  34.727  1.00  0.00     0.002 A 
HETATM   30  C19 UNK     1      16.957  10.739  34.223  1.00  0.00     0.030 A 
BRANCH  26  31
HETATM   31  C20 UNK     1      15.236   7.415  33.604  1.00  0.00     0.036 C 
HETATM   32  C25 UNK     1      14.363   7.302  32.358  1.00  0.00     0.010 C 
ENDBRANCH  26  31
ENDBRANCH  23  25
ENDBRANCH  20  21
ENDBRANCH   2  20
TORSDOF 6
ENDMDL
MODEL 7
REMARK VINA RESULT:      -9.2      2.114     10.116
REMARK  6 active torsions:
REMARK  status: ('A' for Active; 'I' for Inactive)
REMARK    1  A    between atoms: C5_11  and  N1_4 
REMARK    2  A    between atoms: C6_12  and  N2_5 
REMARK    3  A    between atoms: C15_21  and  N3_6 
REMARK       I    between atoms: C9_15  and  N3_6 
REMARK    4  A    between atoms: C5_11  and  C7_13 
REMARK    5  A    between atoms: C6_12  and  C9_15 
REMARK    6  A    between atoms: C18_24  and  C20_26 
ROOT
HETATM    1  N1  UNK     1      18.481  -1.209  35.511  1.00  0.00     0.096 N 
HETATM    2  N2  UNK     1      19.880  -3.208  37.064  1.00  0.00     0.100 N 
HETATM    3  C1  UNK     1      17.859  -1.836  36.684  1.00  0.00     0.303 C 
HETATM    4  C2  UNK     1      19.437  -2.130  34.884  1.00  0.00     0.303 C 
HETATM    5  C3  UNK     1      18.924  -2.286  37.691  1.00  0.00     0.303 C 
HETATM    6  C4  UNK     1      20.502  -2.579  35.891  1.00  0.00     0.303 C 
ENDROOT
BRANCH   1   7
HETATM    7  C5  UNK     1      17.464  -0.784  34.551  1.00  0.00     0.312 C 
BRANCH   7   8
HETATM    8  C7  UNK     1      17.958   0.294  33.650  1.00  0.00    -0.011 A 
HETATM    9  C10 UNK     1      17.735   1.586  33.927  1.00  0.00     0.092 A 
HETATM   10  C13 UNK     1      18.204   2.686  33.066  1.00  0.00     0.288 A 
HETATM   11  O1  UNK     1      18.905   2.327  31.926  1.00  0.00    -0.275 OA
HETATM   12  O3  UNK     1      17.979   3.857  33.352  1.00  0.00    -0.260 OA
HETATM   13  C11 UNK     1      19.156   0.978  31.608  1.00  0.00     0.090 A 
HETATM   14  C8  UNK     1      18.705  -0.054  32.433  1.00  0.00     0.006 A 
HETATM   15  C14 UNK     1      19.873   0.735  30.434  1.00  0.00     0.045 A 
HETATM   16  C12 UNK     1      18.996  -1.369  32.047  1.00  0.00     0.015 A 
HETATM   17  C17 UNK     1      19.713  -1.628  30.873  1.00  0.00     0.007 A 
HETATM   18  C16 UNK     1      20.151  -0.577  30.069  1.00  0.00    -0.059 A 
HETATM   19  C21 UNK     1      20.915  -0.861  28.820  1.00  0.00     0.048 C 
ENDBRANCH   7   8
ENDBRANCH   1   7
BRANCH   2  20
HETATM   20  C6  UNK     1      20.895  -3.635  38.023  1.00  0.00     0.375 C 
BRANCH  20  21
HETATM   21  C9  UNK     1      21.099  -5.136  37.909  1.00  0.00     0.250 C 
HETATM   22  O2  UNK     1      22.182  -5.637  37.627  1.00  0.00    -0.271 OA
HETATM   23  N3  UNK     1      19.905  -5.805  38.172  1.00  0.00    -0.325 N 
HETATM   24  H14 UNK     1      19.099  -5.224  38.377  1.00  0.00     0.169 HD
BRANCH  23  25
HETATM   25  C15 UNK     1      19.680  -7.202  38.167  1.00  0.00     0.041 A 
HETATM   26  C18 UNK     1      19.139  -7.836  37.047  1.00  0.00    -0.032 A 
HETATM   27  C22 UNK     1      18.925  -9.214  37.062  1.00  0.00     0.009 A 
HETATM   28  C24 UNK     1      19.252  -9.959  38.195  1.00  0.00     0.001 A 
HETATM   29  C23 UNK     1      19.793  -9.325  39.314  1.00  0.00     0.002 A 
HETATM   30  C19 UNK     1      20.007  -7.947  39.300  1.00  0.00     0.030 A 
BRANCH  26  31
HETATM   31  C20 UNK     1      18.779  -7.063  35.820  1.00  0.00     0.036 C 
HETATM   32  C25 UNK     1      19.928  -7.003  34.818  1.00  0.00     0.010 C 
ENDBRANCH  26  31
ENDBRANCH  23  25
ENDBRANCH  20  21
ENDBRANCH   2  20
TORSDOF 6
ENDMDL
MODEL 8
REMARK VINA RESULT:      -9.2      3.565     10.907
REMARK  6 active torsions:
REMARK  status: ('A' for Active; 'I' for Inactive)
REMARK    1  A    between atoms: C5_11  and  N1_4 
REMARK    2  A    between atoms: C6_12  and  N2_5 
REMARK    3  A    between atoms: C15_21  and  N3_6 
REMARK       I    between atoms: C9_15  and  N3_6 
REMARK    4  A    between atoms: C5_11  and  C7_13 
REMARK    5  A    between atoms: C6_12  and  C9_15 
REMARK    6  A    between atoms: C18_24  and  C20_26 
ROOT
HETATM    1  N1  UNK     1      19.925  -4.329  36.544  1.00  0.00     0.096 N 
HETATM    2  N2  UNK     1      20.061  -7.197  36.886  1.00  0.00     0.100 N 
HETATM    3  C1  UNK     1      19.952  -5.235  35.388  1.00  0.00     0.303 C 
HETATM    4  C2  UNK     1      20.634  -4.928  37.682  1.00  0.00     0.303 C 
HETATM    5  C3  UNK     1      19.351  -6.598  35.749  1.00  0.00     0.303 C 
HETATM    6  C4  UNK     1      20.033  -6.291  38.042  1.00  0.00     0.303 C 
ENDROOT
BRANCH   1   7
HETATM    7  C5  UNK     1      20.502  -3.031  36.199  1.00  0.00     0.312 C 
BRANCH   7   8
HETATM    8  C7  UNK     1      19.563  -2.193  35.403  1.00  0.00    -0.011 A 
HETATM    9  C10 UNK     1      18.509  -1.596  35.978  1.00  0.00     0.092 A 
HETATM   10  C13 UNK     1      17.554  -0.759  35.233  1.00  0.00     0.288 A 
HETATM   11  O1  UNK     1      17.789  -0.604  33.876  1.00  0.00    -0.275 OA
HETATM   12  O3  UNK     1      16.600  -0.229  35.793  1.00  0.00    -0.260 OA
HETATM   13  C11 UNK     1      18.888  -1.218  33.243  1.00  0.00     0.090 A 
HETATM   14  C8  UNK     1      19.785  -2.009  33.962  1.00  0.00     0.006 A 
HETATM   15  C14 UNK     1      19.026  -0.992  31.872  1.00  0.00     0.045 A 
HETATM   16  C12 UNK     1      20.853  -2.585  33.260  1.00  0.00     0.015 A 
HETATM   17  C17 UNK     1      21.003  -2.368  31.886  1.00  0.00     0.007 A 
HETATM   18  C16 UNK     1      20.092  -1.573  31.193  1.00  0.00    -0.059 A 
HETATM   19  C21 UNK     1      20.260  -1.346  29.729  1.00  0.00     0.048 C 
ENDBRANCH   7   8
ENDBRANCH   1   7
BRANCH   2  20
HETATM   20  C6  UNK     1      19.486  -8.496  37.230  1.00  0.00     0.375 C 
BRANCH  20  21
HETATM   21  C9  UNK     1      20.605  -9.500  37.453  1.00  0.00     0.250 C 
HETATM   22  O2  UNK     1      20.567 -10.345  38.341  1.00  0.00    -0.271 OA
HETATM   23  N3  UNK     1      21.620  -9.305  36.518  1.00  0.00    -0.325 N 
HETATM   24  H14 UNK     1      21.485  -8.545  35.860  1.00  0.00     0.169 HD
BRANCH  23  25
HETATM   25  C15 UNK     1      22.827 -10.032  36.391  1.00  0.00     0.041 A 
HETATM   26  C18 UNK     1      24.021  -9.533  36.914  1.00  0.00    -0.032 A 
HETATM   27  C22 UNK     1      25.200 -10.265  36.779  1.00  0.00     0.009 A 
HETATM   28  C24 UNK     1      25.186 -11.496  36.123  1.00  0.00     0.001 A 
HETATM   29  C23 UNK     1      23.993 -11.994  35.601  1.00  0.00     0.002 A 
HETATM   30  C19 UNK     1      22.813 -11.263  35.736  1.00  0.00     0.030 A 
BRANCH  26  31
HETATM   31  C20 UNK     1      24.065  -8.217  37.621  1.00  0.00     0.036 C 
HETATM   32  C25 UNK     1      25.124  -8.188  38.719  1.00  0.00     0.010 C 
ENDBRANCH  26  31
ENDBRANCH  23  25
ENDBRANCH  20  21
ENDBRANCH   2  20
TORSDOF 6
ENDMDL
MODEL 9
REMARK VINA RESULT:      -9.1      2.057     10.290
REMARK  6 active torsions:
REMARK  status: ('A' for Active; 'I' for Inactive)
REMARK    1  A    between atoms: C5_11  and  N1_4 
REMARK    2  A    between atoms: C6_12  and  N2_5 
REMARK    3  A    between atoms: C15_21  and  N3_6 
REMARK       I    between atoms: C9_15  and  N3_6 
REMARK    4  A    between atoms: C5_11  and  C7_13 
REMARK    5  A    between atoms: C6_12  and  C9_15 
REMARK    6  A    between atoms: C18_24  and  C20_26 
ROOT
HETATM    1  N1  UNK     1      18.736  -1.057  35.193  1.00  0.00     0.096 N 
HETATM    2  N2  UNK     1      19.772  -3.125  36.928  1.00  0.00     0.100 N 
HETATM    3  C1  UNK     1      17.951  -1.567  36.323  1.00  0.00     0.303 C 
HETATM    4  C2  UNK     1      19.640  -2.097  34.685  1.00  0.00     0.303 C 
HETATM    5  C3  UNK     1      18.869  -2.084  37.437  1.00  0.00     0.303 C 
HETATM    6  C4  UNK     1      20.558  -2.613  35.798  1.00  0.00     0.303 C 
ENDROOT
BRANCH   1   7
HETATM    7  C5  UNK     1      17.859  -0.568  34.131  1.00  0.00     0.312 C 
BRANCH   7   8
HETATM    8  C7  UNK     1      18.569  -0.447  32.827  1.00  0.00    -0.011 A 
HETATM    9  C10 UNK     1      19.153  -1.508  32.254  1.00  0.00     0.092 A 
HETATM   10  C13 UNK     1      19.866  -1.437  30.967  1.00  0.00     0.288 A 
HETATM   11  O1  UNK     1      19.913  -0.197  30.350  1.00  0.00    -0.275 OA
HETATM   12  O3  UNK     1      20.389  -2.430  30.474  1.00  0.00    -0.260 OA
HETATM   13  C11 UNK     1      19.308   0.938  30.927  1.00  0.00     0.090 A 
HETATM   14  C8  UNK     1      18.636   0.855  32.148  1.00  0.00     0.006 A 
HETATM   15  C14 UNK     1      19.419   2.134  30.216  1.00  0.00     0.045 A 
HETATM   16  C12 UNK     1      18.061   2.028  32.655  1.00  0.00     0.015 A 
HETATM   17  C17 UNK     1      18.165   3.235  31.954  1.00  0.00     0.007 A 
HETATM   18  C16 UNK     1      18.842   3.288  30.737  1.00  0.00    -0.059 A 
HETATM   19  C21 UNK     1      18.947   4.578  29.996  1.00  0.00     0.048 C 
ENDBRANCH   7   8
ENDBRANCH   1   7
BRANCH   2  20
HETATM   20  C6  UNK     1      20.648  -3.615  37.990  1.00  0.00     0.375 C 
BRANCH  20  21
HETATM   21  C9  UNK     1      20.878  -5.106  37.807  1.00  0.00     0.250 C 
HETATM   22  O2  UNK     1      21.922  -5.563  37.354  1.00  0.00    -0.271 OA
HETATM   23  N3  UNK     1      19.758  -5.821  38.227  1.00  0.00    -0.325 N 
HETATM   24  H14 UNK     1      18.975  -5.272  38.566  1.00  0.00     0.169 HD
BRANCH  23  25
HETATM   25  C15 UNK     1      19.578  -7.225  38.219  1.00  0.00     0.041 A 
HETATM   26  C18 UNK     1      18.991  -7.864  37.126  1.00  0.00    -0.032 A 
HETATM   27  C22 UNK     1      18.822  -9.249  37.137  1.00  0.00     0.009 A 
HETATM   28  C24 UNK     1      19.241  -9.993  38.239  1.00  0.00     0.001 A 
HETATM   29  C23 UNK     1      19.828  -9.354  39.331  1.00  0.00     0.002 A 
HETATM   30  C19 UNK     1      19.996  -7.969  39.321  1.00  0.00     0.030 A 
BRANCH  26  31
HETATM   31  C20 UNK     1      18.532  -7.090  35.933  1.00  0.00     0.036 C 
HETATM   32  C25 UNK     1      19.606  -7.008  34.852  1.00  0.00     0.010 C 
ENDBRANCH  26  31
ENDBRANCH  23  25
ENDBRANCH  20  21
ENDBRANCH   2  20
TORSDOF 6
ENDMDL
MODEL 10
REMARK VINA RESULT:      -9.1      6.006      9.113
REMARK  6 active torsions:
REMARK  status: ('A' for Active; 'I' for Inactive)
REMARK    1  A    between atoms: C5_11  and  N1_4 
REMARK    2  A    between atoms: C6_12  and  N2_5 
REMARK    3  A    between atoms: C15_21  and  N3_6 
REMARK       I    between atoms: C9_15  and  N3_6 
REMARK    4  A    between atoms: C5_11  and  C7_13 
REMARK    5  A    between atoms: C6_12  and  C9_15 
REMARK    6  A    between atoms: C18_24  and  C20_26 
ROOT
HETATM    1  N1  UNK     1      18.616   4.759  32.540  1.00  0.00     0.096 N 
HETATM    2  N2  UNK     1      18.735   7.562  33.240  1.00  0.00     0.100 N 
HETATM    3  C1  UNK     1      19.534   5.678  31.856  1.00  0.00     0.303 C 
HETATM    4  C2  UNK     1      17.425   5.479  33.008  1.00  0.00     0.303 C 
HETATM    5  C3  UNK     1      19.926   6.842  32.773  1.00  0.00     0.303 C 
HETATM    6  C4  UNK     1      17.817   6.643  33.926  1.00  0.00     0.303 C 
ENDROOT
BRANCH   1   7
HETATM    7  C5  UNK     1      18.240   3.652  31.662  1.00  0.00     0.312 C 
BRANCH   7   8
HETATM    8  C7  UNK     1      18.416   2.329  32.321  1.00  0.00    -0.011 A 
HETATM    9  C10 UNK     1      18.059   2.138  33.599  1.00  0.00     0.092 A 
HETATM   10  C13 UNK     1      18.213   0.848  34.293  1.00  0.00     0.288 A 
HETATM   11  O1  UNK     1      18.756  -0.193  33.557  1.00  0.00    -0.275 OA
HETATM   12  O3  UNK     1      17.875   0.711  35.464  1.00  0.00    -0.260 OA
HETATM   13  C11 UNK     1      19.141  -0.024  32.212  1.00  0.00     0.090 A 
HETATM   14  C8  UNK     1      18.989   1.204  31.568  1.00  0.00     0.006 A 
HETATM   15  C14 UNK     1      19.676  -1.142  31.570  1.00  0.00     0.045 A 
HETATM   16  C12 UNK     1      19.395   1.292  30.230  1.00  0.00     0.015 A 
HETATM   17  C17 UNK     1      19.935   0.180  29.573  1.00  0.00     0.007 A 
HETATM   18  C16 UNK     1      20.074  -1.035  30.242  1.00  0.00    -0.059 A 
HETATM   19  C21 UNK     1      20.649  -2.216  29.535  1.00  0.00     0.048 C 
ENDBRANCH   7   8
ENDBRANCH   1   7
BRANCH   2  20
HETATM   20  C6  UNK     1      19.109   8.670  34.116  1.00  0.00     0.375 C 
BRANCH  20  21
HETATM   21  C9  UNK     1      18.131   9.817  33.926  1.00  0.00     0.250 C 
HETATM   22  O2  UNK     1      18.479  10.924  33.530  1.00  0.00    -0.271 OA
HETATM   23  N3  UNK     1      16.840   9.408  34.256  1.00  0.00    -0.325 N 
HETATM   24  H14 UNK     1      16.741   8.451  34.579  1.00  0.00     0.169 HD
BRANCH  23  25
HETATM   25  C15 UNK     1      15.654  10.178  34.213  1.00  0.00     0.041 A 
HETATM   26  C18 UNK     1      14.647   9.889  33.292  1.00  0.00    -0.032 A 
HETATM   27  C22 UNK     1      13.484  10.659  33.265  1.00  0.00     0.009 A 
HETATM   28  C24 UNK     1      13.328  11.717  34.160  1.00  0.00     0.001 A 
HETATM   29  C23 UNK     1      14.335  12.005  35.081  1.00  0.00     0.002 A 
HETATM   30  C19 UNK     1      15.498  11.236  35.108  1.00  0.00     0.030 A 
BRANCH  26  31
HETATM   31  C20 UNK     1      14.788   8.762  32.321  1.00  0.00     0.036 C 
HETATM   32  C25 UNK     1      14.020   7.520  32.764  1.00  0.00     0.010 C 
ENDBRANCH  26  31
ENDBRANCH  23  25
ENDBRANCH  20  21
ENDBRANCH   2  20
TORSDOF 6
ENDMDL
