MODEL 1
REMARK VINA RESULT:      -8.8      0.000      0.000
REMARK  6 active torsions:
REMARK  status: ('A' for Active; 'I' for Inactive)
REMARK    1  A    between atoms: C3_9  and  N1_4 
REMARK    2  A    between atoms: C8_14  and  N2_5 
REMARK    3  A    between atoms: C17_23  and  N3_6 
REMARK    4  A    between atoms: C8_14  and  N3_6 
REMARK    5  A    between atoms: C3_9  and  C6_12 
REMARK    6  A    between atoms: C3_9  and  C7_13 
ROOT
HETATM    1  N1  UNK     1      31.225  -7.467  32.683  1.00  0.00     0.105 N 
HETATM    2  N2  UNK     1      33.627  -7.424  34.211  1.00  0.00    -0.355 N 
HETATM    3  C1  UNK     1      31.627  -6.245  33.399  1.00  0.00     0.293 C 
HETATM    4  C2  UNK     1      31.657  -8.666  33.421  1.00  0.00     0.293 C 
HETATM    5  C4  UNK     1      33.144  -6.200  33.588  1.00  0.00     0.155 C 
HETATM    6  C5  UNK     1      33.174  -8.670  33.612  1.00  0.00     0.155 C 
ENDROOT
BRANCH   2   7
HETATM    7  C8  UNK     1      34.532  -7.403  35.219  1.00  0.00     0.174 C 
HETATM    8  S1  UNK     1      36.156  -7.148  34.883  1.00  0.00    -0.041 SA
BRANCH   7   9
HETATM    9  N3  UNK     1      34.128  -7.651  36.505  1.00  0.00    -0.333 N 
HETATM   10  H14 UNK     1      34.871  -7.945  37.138  1.00  0.00     0.168 HD
BRANCH   9  11
HETATM   11  C17 UNK     1      32.856  -7.550  37.120  1.00  0.00     0.036 A 
HETATM   12  C20 UNK     1      32.409  -6.316  37.550  1.00  0.00     0.067 A 
HETATM   13  C22 UNK     1      31.152  -6.239  38.152  1.00  0.00     0.092 A 
HETATM   14  O1  UNK     1      30.734  -4.961  38.575  1.00  0.00    -0.275 OA
HETATM   15  C23 UNK     1      30.340  -7.359  38.332  1.00  0.00     0.004 A 
HETATM   16  C28 UNK     1      29.504  -4.767  39.185  1.00  0.00     0.288 A 
HETATM   17  C26 UNK     1      28.660  -5.958  39.368  1.00  0.00     0.090 A 
HETATM   18  O2  UNK     1      29.130  -3.660  39.557  1.00  0.00    -0.260 OA
HETATM   19  C25 UNK     1      29.032  -7.186  38.975  1.00  0.00    -0.043 A 
HETATM   20  C27 UNK     1      28.136  -8.371  39.184  1.00  0.00     0.049 C 
HETATM   21  C24 UNK     1      30.829  -8.594  37.883  1.00  0.00     0.017 A 
HETATM   22  C21 UNK     1      32.087  -8.688  37.277  1.00  0.00     0.030 A 
ENDBRANCH   9  11
ENDBRANCH   7   9
ENDBRANCH   2   7
BRANCH   1  23
HETATM   23  C3  UNK     1      29.778  -7.486  32.475  1.00  0.00     0.289 C 
BRANCH  23  24
HETATM   24  C6  UNK     1      29.027  -8.051  33.673  1.00  0.00    -0.021 A 
HETATM   25  C11 UNK     1      28.435  -7.177  34.561  1.00  0.00     0.010 A 
HETATM   26  C15 UNK     1      27.747  -7.695  35.659  1.00  0.00     0.001 A 
HETATM   27  C18 UNK     1      27.665  -9.075  35.843  1.00  0.00     0.000 A 
HETATM   28  C13 UNK     1      28.272  -9.938  34.931  1.00  0.00     0.001 A 
HETATM   29  C9  UNK     1      28.960  -9.420  33.833  1.00  0.00     0.010 A 
ENDBRANCH  23  24
BRANCH  23  30
HETATM   30  C7  UNK     1      29.388  -8.186  31.182  1.00  0.00    -0.021 A 
HETATM   31  C10 UNK     1      28.051  -8.278  30.851  1.00  0.00     0.010 A 
HETATM   32  C14 UNK     1      27.693  -8.919  29.665  1.00  0.00     0.001 A 
HETATM   33  C19 UNK     1      28.679  -9.454  28.835  1.00  0.00     0.000 A 
HETATM   34  C16 UNK     1      30.023  -9.346  29.191  1.00  0.00     0.001 A 
HETATM   35  C12 UNK     1      30.381  -8.706  30.378  1.00  0.00     0.010 A 
ENDBRANCH  23  30
ENDBRANCH   1  23
TORSDOF 6
ENDMDL
MODEL 2
REMARK VINA RESULT:      -8.6      1.839      2.959
REMARK  6 active torsions:
REMARK  status: ('A' for Active; 'I' for Inactive)
REMARK    1  A    between atoms: C3_9  and  N1_4 
REMARK    2  A    between atoms: C8_14  and  N2_5 
REMARK    3  A    between atoms: C17_23  and  N3_6 
REMARK    4  A    between atoms: C8_14  and  N3_6 
REMARK    5  A    between atoms: C3_9  and  C6_12 
REMARK    6  A    between atoms: C3_9  and  C7_13 
ROOT
HETATM    1  N1  UNK     1      31.232  -7.900  33.252  1.00  0.00     0.105 N 
HETATM    2  N2  UNK     1      32.956  -6.893  35.281  1.00  0.00    -0.355 N 
HETATM    3  C1  UNK     1      30.806  -6.770  34.094  1.00  0.00     0.293 C 
HETATM    4  C2  UNK     1      32.097  -8.817  34.013  1.00  0.00     0.293 C 
HETATM    5  C4  UNK     1      32.016  -5.999  34.622  1.00  0.00     0.155 C 
HETATM    6  C5  UNK     1      33.333  -8.088  34.539  1.00  0.00     0.155 C 
ENDROOT
BRANCH   2   7
HETATM    7  C8  UNK     1      33.531  -6.578  36.467  1.00  0.00     0.174 C 
HETATM    8  S1  UNK     1      35.042  -5.849  36.498  1.00  0.00    -0.041 SA
BRANCH   7   9
HETATM    9  N3  UNK     1      32.905  -6.910  37.640  1.00  0.00    -0.333 N 
HETATM   10  H14 UNK     1      33.492  -6.850  38.470  1.00  0.00     0.168 HD
BRANCH   9  11
HETATM   11  C17 UNK     1      31.571  -7.304  37.906  1.00  0.00     0.036 A 
HETATM   12  C20 UNK     1      30.593  -6.338  38.035  1.00  0.00     0.067 A 
HETATM   13  C22 UNK     1      29.285  -6.749  38.296  1.00  0.00     0.092 A 
HETATM   14  O1  UNK     1      28.317  -5.731  38.419  1.00  0.00    -0.275 OA
HETATM   15  C23 UNK     1      28.937  -8.094  38.430  1.00  0.00     0.004 A 
HETATM   16  C28 UNK     1      26.987  -6.024  38.678  1.00  0.00     0.288 A 
HETATM   17  C26 UNK     1      26.637  -7.446  38.818  1.00  0.00     0.090 A 
HETATM   18  O2  UNK     1      26.137  -5.146  38.787  1.00  0.00    -0.260 OA
HETATM   19  C25 UNK     1      27.536  -8.435  38.705  1.00  0.00    -0.043 A 
HETATM   20  C27 UNK     1      27.130  -9.872  38.856  1.00  0.00     0.049 C 
HETATM   21  C24 UNK     1      29.958  -9.045  38.294  1.00  0.00     0.017 A 
HETATM   22  C21 UNK     1      31.274  -8.648  38.032  1.00  0.00     0.030 A 
ENDBRANCH   9  11
ENDBRANCH   7   9
ENDBRANCH   2   7
BRANCH   1  23
HETATM   23  C3  UNK     1      30.069  -8.611  32.724  1.00  0.00     0.289 C 
BRANCH  23  24
HETATM   24  C6  UNK     1      30.448  -9.925  32.054  1.00  0.00    -0.021 A 
HETATM   25  C11 UNK     1      29.967 -11.106  32.581  1.00  0.00     0.010 A 
HETATM   26  C15 UNK     1      30.314 -12.309  31.968  1.00  0.00     0.001 A 
HETATM   27  C18 UNK     1      31.133 -12.306  30.838  1.00  0.00     0.000 A 
HETATM   28  C13 UNK     1      31.606 -11.098  30.324  1.00  0.00     0.001 A 
HETATM   29  C9  UNK     1      31.259  -9.895  30.938  1.00  0.00     0.010 A 
ENDBRANCH  23  24
BRANCH  23  30
HETATM   30  C7  UNK     1      29.219  -7.737  31.814  1.00  0.00    -0.021 A 
HETATM   31  C10 UNK     1      29.772  -6.588  31.285  1.00  0.00     0.010 A 
HETATM   32  C14 UNK     1      28.993  -5.787  30.451  1.00  0.00     0.001 A 
HETATM   33  C19 UNK     1      27.677  -6.152  30.162  1.00  0.00     0.000 A 
HETATM   34  C16 UNK     1      27.142  -7.318  30.708  1.00  0.00     0.001 A 
HETATM   35  C12 UNK     1      27.921  -8.120  31.543  1.00  0.00     0.010 A 
ENDBRANCH  23  30
ENDBRANCH   1  23
TORSDOF 6
ENDMDL
MODEL 3
REMARK VINA RESULT:      -8.5      1.575      2.131
REMARK  6 active torsions:
REMARK  status: ('A' for Active; 'I' for Inactive)
REMARK    1  A    between atoms: C3_9  and  N1_4 
REMARK    2  A    between atoms: C8_14  and  N2_5 
REMARK    3  A    between atoms: C17_23  and  N3_6 
REMARK    4  A    between atoms: C8_14  and  N3_6 
REMARK    5  A    between atoms: C3_9  and  C6_12 
REMARK    6  A    between atoms: C3_9  and  C7_13 
ROOT
HETATM    1  N1  UNK     1      31.674  -8.457  31.847  1.00  0.00     0.105 N 
HETATM    2  N2  UNK     1      34.285  -8.558  32.975  1.00  0.00    -0.355 N 
HETATM    3  C1  UNK     1      32.461  -7.224  32.007  1.00  0.00     0.293 C 
HETATM    4  C2  UNK     1      31.980  -9.412  32.925  1.00  0.00     0.293 C 
HETATM    5  C4  UNK     1      33.959  -7.529  31.999  1.00  0.00     0.155 C 
HETATM    6  C5  UNK     1      33.468  -9.762  32.936  1.00  0.00     0.155 C 
ENDROOT
BRANCH   2   7
HETATM    7  C8  UNK     1      35.357  -8.448  33.797  1.00  0.00     0.174 C 
HETATM    8  S1  UNK     1      36.882  -8.881  33.249  1.00  0.00    -0.041 SA
BRANCH   7   9
HETATM    9  N3  UNK     1      35.184  -8.042  35.095  1.00  0.00    -0.333 N 
HETATM   10  H14 UNK     1      35.986  -8.197  35.703  1.00  0.00     0.168 HD
BRANCH   9  11
HETATM   11  C17 UNK     1      34.086  -7.422  35.740  1.00  0.00     0.036 A 
HETATM   12  C20 UNK     1      33.925  -6.055  35.637  1.00  0.00     0.067 A 
HETATM   13  C22 UNK     1      32.836  -5.464  36.279  1.00  0.00     0.092 A 
HETATM   14  O1  UNK     1      32.709  -4.066  36.148  1.00  0.00    -0.275 OA
HETATM   15  C23 UNK     1      31.912  -6.206  37.017  1.00  0.00     0.004 A 
HETATM   16  C28 UNK     1      31.665  -3.375  36.744  1.00  0.00     0.288 A 
HETATM   17  C26 UNK     1      30.700  -4.171  37.518  1.00  0.00     0.090 A 
HETATM   18  O2  UNK     1      31.545  -2.159  36.636  1.00  0.00    -0.260 OA
HETATM   19  C25 UNK     1      30.796  -5.501  37.660  1.00  0.00    -0.043 A 
HETATM   20  C27 UNK     1      29.785  -6.270  38.460  1.00  0.00     0.049 C 
HETATM   21  C24 UNK     1      32.109  -7.591  37.099  1.00  0.00     0.017 A 
HETATM   22  C21 UNK     1      33.196  -8.198  36.460  1.00  0.00     0.030 A 
ENDBRANCH   9  11
ENDBRANCH   7   9
ENDBRANCH   2   7
BRANCH   1  23
HETATM   23  C3  UNK     1      30.244  -8.153  31.821  1.00  0.00     0.289 C 
BRANCH  23  24
HETATM   24  C6  UNK     1      29.560  -8.466  33.144  1.00  0.00    -0.021 A 
HETATM   25  C11 UNK     1      29.395  -7.453  34.066  1.00  0.00     0.010 A 
HETATM   26  C15 UNK     1      28.769  -7.739  35.279  1.00  0.00     0.001 A 
HETATM   27  C18 UNK     1      28.319  -9.033  35.543  1.00  0.00     0.000 A 
HETATM   28  C13 UNK     1      28.498 -10.041  34.594  1.00  0.00     0.001 A 
HETATM   29  C9  UNK     1      29.124  -9.754  33.382  1.00  0.00     0.010 A 
ENDBRANCH  23  24
BRANCH  23  30
HETATM   30  C7  UNK     1      29.533  -8.811  30.647  1.00  0.00    -0.021 A 
HETATM   31  C10 UNK     1      30.235  -9.693  29.851  1.00  0.00     0.010 A 
HETATM   32  C14 UNK     1      29.583 -10.295  28.776  1.00  0.00     0.001 A 
HETATM   33  C19 UNK     1      28.242 -10.004  28.519  1.00  0.00     0.000 A 
HETATM   34  C16 UNK     1      27.554  -9.110  29.340  1.00  0.00     0.001 A 
HETATM   35  C12 UNK     1      28.207  -8.506  30.415  1.00  0.00     0.010 A 
ENDBRANCH  23  30
ENDBRANCH   1  23
TORSDOF 6
ENDMDL
MODEL 4
REMARK VINA RESULT:      -8.5      1.329      1.897
REMARK  6 active torsions:
REMARK  status: ('A' for Active; 'I' for Inactive)
REMARK    1  A    between atoms: C3_9  and  N1_4 
REMARK    2  A    between atoms: C8_14  and  N2_5 
REMARK    3  A    between atoms: C17_23  and  N3_6 
REMARK    4  A    between atoms: C8_14  and  N3_6 
REMARK    5  A    between atoms: C3_9  and  C6_12 
REMARK    6  A    between atoms: C3_9  and  C7_13 
ROOT
HETATM    1  N1  UNK     1      31.867  -8.225  32.460  1.00  0.00     0.105 N 
HETATM    2  N2  UNK     1      34.197  -7.901  34.063  1.00  0.00    -0.355 N 
HETATM    3  C1  UNK     1      32.459  -6.890  32.647  1.00  0.00     0.293 C 
HETATM    4  C2  UNK     1      32.061  -9.052  33.663  1.00  0.00     0.293 C 
HETATM    5  C4  UNK     1      33.954  -6.996  32.949  1.00  0.00     0.155 C 
HETATM    6  C5  UNK     1      33.547  -9.202  33.986  1.00  0.00     0.155 C 
ENDROOT
BRANCH   2   7
HETATM    7  C8  UNK     1      35.065  -7.593  35.058  1.00  0.00     0.174 C 
HETATM    8  S1  UNK     1      36.677  -7.298  34.701  1.00  0.00    -0.041 SA
BRANCH   7   9
HETATM    9  N3  UNK     1      34.636  -7.584  36.359  1.00  0.00    -0.333 N 
HETATM   10  H14 UNK     1      35.278  -8.012  37.024  1.00  0.00     0.168 HD
BRANCH   9  11
HETATM   11  C17 UNK     1      33.460  -7.063  36.951  1.00  0.00     0.036 A 
HETATM   12  C20 UNK     1      32.426  -7.920  37.271  1.00  0.00     0.067 A 
HETATM   13  C22 UNK     1      31.277  -7.385  37.855  1.00  0.00     0.092 A 
HETATM   14  O1  UNK     1      30.245  -8.295  38.166  1.00  0.00    -0.275 OA
HETATM   15  C23 UNK     1      31.140  -6.022  38.122  1.00  0.00     0.004 A 
HETATM   16  C28 UNK     1      29.060  -7.874  38.748  1.00  0.00     0.288 A 
HETATM   17  C26 UNK     1      28.931  -6.434  39.024  1.00  0.00     0.090 A 
HETATM   18  O2  UNK     1      28.157  -8.656  39.024  1.00  0.00    -0.260 OA
HETATM   19  C25 UNK     1      29.895  -5.546  38.738  1.00  0.00    -0.043 A 
HETATM   20  C27 UNK     1      29.718  -4.086  39.038  1.00  0.00     0.049 C 
HETATM   21  C24 UNK     1      32.211  -5.183  37.782  1.00  0.00     0.017 A 
HETATM   22  C21 UNK     1      33.370  -5.705  37.197  1.00  0.00     0.030 A 
ENDBRANCH   9  11
ENDBRANCH   7   9
ENDBRANCH   2   7
BRANCH   1  23
HETATM   23  C3  UNK     1      30.445  -8.114  32.138  1.00  0.00     0.289 C 
BRANCH  23  24
HETATM   24  C6  UNK     1      29.553  -8.422  33.332  1.00  0.00    -0.021 A 
HETATM   25  C11 UNK     1      29.085  -7.377  34.102  1.00  0.00     0.010 A 
HETATM   26  C15 UNK     1      28.268  -7.659  35.196  1.00  0.00     0.001 A 
HETATM   27  C18 UNK     1      27.936  -8.980  35.497  1.00  0.00     0.000 A 
HETATM   28  C13 UNK     1      28.421 -10.019  34.703  1.00  0.00     0.001 A 
HETATM   29  C9  UNK     1      29.239  -9.737  33.608  1.00  0.00     0.010 A 
ENDBRANCH  23  24
BRANCH  23  30
HETATM   30  C7  UNK     1      30.061  -8.939  30.918  1.00  0.00    -0.021 A 
HETATM   31  C10 UNK     1      28.841  -8.710  30.315  1.00  0.00     0.010 A 
HETATM   32  C14 UNK     1      28.489  -9.465  29.197  1.00  0.00     0.001 A 
HETATM   33  C19 UNK     1      29.365 -10.433  28.704  1.00  0.00     0.000 A 
HETATM   34  C16 UNK     1      30.594 -10.645  29.330  1.00  0.00     0.001 A 
HETATM   35  C12 UNK     1      30.945  -9.890  30.450  1.00  0.00     0.010 A 
ENDBRANCH  23  30
ENDBRANCH   1  23
TORSDOF 6
ENDMDL
MODEL 5
REMARK VINA RESULT:      -8.5      1.074      3.258
REMARK  6 active torsions:
REMARK  status: ('A' for Active; 'I' for Inactive)
REMARK    1  A    between atoms: C3_9  and  N1_4 
REMARK    2  A    between atoms: C8_14  and  N2_5 
REMARK    3  A    between atoms: C17_23  and  N3_6 
REMARK    4  A    between atoms: C8_14  and  N3_6 
REMARK    5  A    between atoms: C3_9  and  C6_12 
REMARK    6  A    between atoms: C3_9  and  C7_13 
ROOT
HETATM    1  N1  UNK     1      32.109  -8.526  32.413  1.00  0.00     0.105 N 
HETATM    2  N2  UNK     1      34.269  -7.761  34.103  1.00  0.00    -0.355 N 
HETATM    3  C1  UNK     1      32.098  -7.216  33.086  1.00  0.00     0.293 C 
HETATM    4  C2  UNK     1      32.791  -9.530  33.246  1.00  0.00     0.293 C 
HETATM    5  C4  UNK     1      33.521  -6.743  33.379  1.00  0.00     0.155 C 
HETATM    6  C5  UNK     1      34.229  -9.105  33.544  1.00  0.00     0.155 C 
ENDROOT
BRANCH   2   7
HETATM    7  C8  UNK     1      35.046  -7.454  35.170  1.00  0.00     0.174 C 
HETATM    8  S1  UNK     1      36.641  -6.989  34.939  1.00  0.00    -0.041 SA
BRANCH   7   9
HETATM    9  N3  UNK     1      34.545  -7.583  36.439  1.00  0.00    -0.333 N 
HETATM   10  H14 UNK     1      35.240  -7.786  37.155  1.00  0.00     0.168 HD
BRANCH   9  11
HETATM   11  C17 UNK     1      33.225  -7.462  36.938  1.00  0.00     0.036 A 
HETATM   12  C20 UNK     1      32.838  -6.286  37.550  1.00  0.00     0.067 A 
HETATM   13  C22 UNK     1      31.533  -6.188  38.034  1.00  0.00     0.092 A 
HETATM   14  O1  UNK     1      31.179  -4.970  38.651  1.00  0.00    -0.275 OA
HETATM   15  C23 UNK     1      30.614  -7.232  37.919  1.00  0.00     0.004 A 
HETATM   16  C28 UNK     1      29.909  -4.762  39.167  1.00  0.00     0.288 A 
HETATM   17  C26 UNK     1      28.952  -5.873  39.039  1.00  0.00     0.090 A 
HETATM   18  O2  UNK     1      29.591  -3.708  39.705  1.00  0.00    -0.260 OA
HETATM   19  C25 UNK     1      29.260  -7.041  38.457  1.00  0.00    -0.043 A 
HETATM   20  C27 UNK     1      28.249  -8.145  38.350  1.00  0.00     0.049 C 
HETATM   21  C24 UNK     1      31.043  -8.410  37.292  1.00  0.00     0.017 A 
HETATM   22  C21 UNK     1      32.349  -8.523  36.802  1.00  0.00     0.030 A 
ENDBRANCH   9  11
ENDBRANCH   7   9
ENDBRANCH   2   7
BRANCH   1  23
HETATM   23  C3  UNK     1      30.746  -8.955  32.105  1.00  0.00     0.289 C 
BRANCH  23  24
HETATM   24  C6  UNK     1      30.542  -9.213  30.618  1.00  0.00    -0.021 A 
HETATM   25  C11 UNK     1      29.475  -9.990  30.217  1.00  0.00     0.010 A 
HETATM   26  C15 UNK     1      29.288 -10.227  28.855  1.00  0.00     0.001 A 
HETATM   27  C18 UNK     1      30.171  -9.679  27.924  1.00  0.00     0.000 A 
HETATM   28  C13 UNK     1      31.242  -8.896  28.355  1.00  0.00     0.001 A 
HETATM   29  C9  UNK     1      31.429  -8.660  29.717  1.00  0.00     0.010 A 
ENDBRANCH  23  24
BRANCH  23  30
HETATM   30  C7  UNK     1      29.698  -8.004  32.663  1.00  0.00    -0.021 A 
HETATM   31  C10 UNK     1      29.252  -8.187  33.956  1.00  0.00     0.010 A 
HETATM   32  C14 UNK     1      28.292  -7.315  34.468  1.00  0.00     0.001 A 
HETATM   33  C19 UNK     1      27.798  -6.277  33.676  1.00  0.00     0.000 A 
HETATM   34  C16 UNK     1      28.266  -6.112  32.373  1.00  0.00     0.001 A 
HETATM   35  C12 UNK     1      29.226  -6.985  31.860  1.00  0.00     0.010 A 
ENDBRANCH  23  30
ENDBRANCH   1  23
TORSDOF 6
ENDMDL
MODEL 6
REMARK VINA RESULT:      -8.5      1.535      2.605
REMARK  6 active torsions:
REMARK  status: ('A' for Active; 'I' for Inactive)
REMARK    1  A    between atoms: C3_9  and  N1_4 
REMARK    2  A    between atoms: C8_14  and  N2_5 
REMARK    3  A    between atoms: C17_23  and  N3_6 
REMARK    4  A    between atoms: C8_14  and  N3_6 
REMARK    5  A    between atoms: C3_9  and  C6_12 
REMARK    6  A    between atoms: C3_9  and  C7_13 
ROOT
HETATM    1  N1  UNK     1      31.840  -8.333  32.682  1.00  0.00     0.105 N 
HETATM    2  N2  UNK     1      34.090  -7.560  34.245  1.00  0.00    -0.355 N 
HETATM    3  C1  UNK     1      31.744  -7.193  33.610  1.00  0.00     0.293 C 
HETATM    4  C2  UNK     1      32.764  -9.352  33.208  1.00  0.00     0.293 C 
HETATM    5  C4  UNK     1      33.116  -6.559  33.837  1.00  0.00     0.155 C 
HETATM    6  C5  UNK     1      34.157  -8.762  33.427  1.00  0.00     0.155 C 
ENDROOT
BRANCH   2   7
HETATM    7  C8  UNK     1      34.960  -7.338  35.261  1.00  0.00     0.174 C 
HETATM    8  S1  UNK     1      36.585  -7.085  34.932  1.00  0.00    -0.041 SA
BRANCH   7   9
HETATM    9  N3  UNK     1      34.521  -7.383  36.558  1.00  0.00    -0.333 N 
HETATM   10  H14 UNK     1      35.257  -7.471  37.257  1.00  0.00     0.168 HD
BRANCH   9  11
HETATM   11  C17 UNK     1      33.216  -7.305  37.105  1.00  0.00     0.036 A 
HETATM   12  C20 UNK     1      32.774  -6.109  37.634  1.00  0.00     0.067 A 
HETATM   13  C22 UNK     1      31.486  -6.054  38.166  1.00  0.00     0.092 A 
HETATM   14  O1  UNK     1      31.073  -4.814  38.695  1.00  0.00    -0.275 OA
HETATM   15  C23 UNK     1      30.637  -7.162  38.182  1.00  0.00     0.004 A 
HETATM   16  C28 UNK     1      29.814  -4.645  39.249  1.00  0.00     0.288 A 
HETATM   17  C26 UNK     1      28.931  -5.822  39.258  1.00  0.00     0.090 A 
HETATM   18  O2  UNK     1      29.445  -3.571  39.712  1.00  0.00    -0.260 OA
HETATM   19  C25 UNK     1      29.296  -7.014  38.762  1.00  0.00    -0.043 A 
HETATM   20  C27 UNK     1      28.359  -8.187  38.794  1.00  0.00     0.049 C 
HETATM   21  C24 UNK     1      31.121  -8.359  37.636  1.00  0.00     0.017 A 
HETATM   22  C21 UNK     1      32.411  -8.429  37.098  1.00  0.00     0.030 A 
ENDBRANCH   9  11
ENDBRANCH   7   9
ENDBRANCH   2   7
BRANCH   1  23
HETATM   23  C3  UNK     1      30.519  -8.912  32.443  1.00  0.00     0.289 C 
BRANCH  23  24
HETATM   24  C6  UNK     1      30.596 -10.267  31.755  1.00  0.00    -0.021 A 
HETATM   25  C11 UNK     1      31.092 -10.335  30.469  1.00  0.00     0.010 A 
HETATM   26  C15 UNK     1      31.162 -11.577  29.838  1.00  0.00     0.001 A 
HETATM   27  C18 UNK     1      30.736 -12.725  30.508  1.00  0.00     0.000 A 
HETATM   28  C13 UNK     1      30.239 -12.630  31.808  1.00  0.00     0.001 A 
HETATM   29  C9  UNK     1      30.169 -11.387  32.438  1.00  0.00     0.010 A 
ENDBRANCH  23  24
BRANCH  23  30
HETATM   30  C7  UNK     1      29.592  -7.955  31.707  1.00  0.00    -0.021 A 
HETATM   31  C10 UNK     1      28.230  -8.064  31.904  1.00  0.00     0.010 A 
HETATM   32  C14 UNK     1      27.380  -7.188  31.230  1.00  0.00     0.001 A 
HETATM   33  C19 UNK     1      27.909  -6.221  30.374  1.00  0.00     0.000 A 
HETATM   34  C16 UNK     1      29.289  -6.131  30.194  1.00  0.00     0.001 A 
HETATM   35  C12 UNK     1      30.140  -7.008  30.867  1.00  0.00     0.010 A 
ENDBRANCH  23  30
ENDBRANCH   1  23
TORSDOF 6
ENDMDL
MODEL 7
REMARK VINA RESULT:      -8.4      0.719      3.239
REMARK  6 active torsions:
REMARK  status: ('A' for Active; 'I' for Inactive)
REMARK    1  A    between atoms: C3_9  and  N1_4 
REMARK    2  A    between atoms: C8_14  and  N2_5 
REMARK    3  A    between atoms: C17_23  and  N3_6 
REMARK    4  A    between atoms: C8_14  and  N3_6 
REMARK    5  A    between atoms: C3_9  and  C6_12 
REMARK    6  A    between atoms: C3_9  and  C7_13 
ROOT
HETATM    1  N1  UNK     1      31.784  -9.027  32.887  1.00  0.00     0.105 N 
HETATM    2  N2  UNK     1      33.999  -7.969  34.327  1.00  0.00    -0.355 N 
HETATM    3  C1  UNK     1      31.765  -7.632  33.357  1.00  0.00     0.293 C 
HETATM    4  C2  UNK     1      32.536  -9.880  33.822  1.00  0.00     0.293 C 
HETATM    5  C4  UNK     1      33.187  -7.088  33.501  1.00  0.00     0.155 C 
HETATM    6  C5  UNK     1      33.973  -9.382  33.977  1.00  0.00     0.155 C 
ENDROOT
BRANCH   2   7
HETATM    7  C8  UNK     1      34.818  -7.488  35.294  1.00  0.00     0.174 C 
HETATM    8  S1  UNK     1      36.364  -6.970  34.902  1.00  0.00    -0.041 SA
BRANCH   7   9
HETATM    9  N3  UNK     1      34.403  -7.484  36.600  1.00  0.00    -0.333 N 
HETATM   10  H14 UNK     1      35.151  -7.551  37.288  1.00  0.00     0.168 HD
BRANCH   9  11
HETATM   11  C17 UNK     1      33.109  -7.379  37.168  1.00  0.00     0.036 A 
HETATM   12  C20 UNK     1      32.661  -6.150  37.609  1.00  0.00     0.067 A 
HETATM   13  C22 UNK     1      31.383  -6.070  38.164  1.00  0.00     0.092 A 
HETATM   14  O1  UNK     1      30.964  -4.796  38.601  1.00  0.00    -0.275 OA
HETATM   15  C23 UNK     1      30.551  -7.183  38.287  1.00  0.00     0.004 A 
HETATM   16  C28 UNK     1      29.714  -4.599  39.168  1.00  0.00     0.288 A 
HETATM   17  C26 UNK     1      28.849  -5.783  39.291  1.00  0.00     0.090 A 
HETATM   18  O2  UNK     1      29.340  -3.496  39.550  1.00  0.00    -0.260 OA
HETATM   19  C25 UNK     1      29.221  -7.007  38.884  1.00  0.00    -0.043 A 
HETATM   20  C27 UNK     1      28.303  -8.185  39.030  1.00  0.00     0.049 C 
HETATM   21  C24 UNK     1      31.041  -8.414  37.829  1.00  0.00     0.017 A 
HETATM   22  C21 UNK     1      32.321  -8.510  37.270  1.00  0.00     0.030 A 
ENDBRANCH   9  11
ENDBRANCH   7   9
ENDBRANCH   2   7
BRANCH   1  23
HETATM   23  C3  UNK     1      30.421  -9.529  32.718  1.00  0.00     0.289 C 
BRANCH  23  24
HETATM   24  C6  UNK     1      29.896  -9.319  31.304  1.00  0.00    -0.021 A 
HETATM   25  C11 UNK     1      30.790  -9.329  30.253  1.00  0.00     0.010 A 
HETATM   26  C15 UNK     1      30.310  -9.136  28.958  1.00  0.00     0.001 A 
HETATM   27  C18 UNK     1      28.946  -8.939  28.742  1.00  0.00     0.000 A 
HETATM   28  C13 UNK     1      28.062  -8.934  29.821  1.00  0.00     0.001 A 
HETATM   29  C9  UNK     1      28.543  -9.126  31.117  1.00  0.00     0.010 A 
ENDBRANCH  23  24
BRANCH  23  30
HETATM   30  C7  UNK     1      29.465  -8.974  33.764  1.00  0.00    -0.021 A 
HETATM   31  C10 UNK     1      29.195  -7.620  33.770  1.00  0.00     0.010 A 
HETATM   32  C14 UNK     1      28.318  -7.112  34.728  1.00  0.00     0.001 A 
HETATM   33  C19 UNK     1      27.730  -7.967  35.660  1.00  0.00     0.000 A 
HETATM   34  C16 UNK     1      28.018  -9.332  35.632  1.00  0.00     0.001 A 
HETATM   35  C12 UNK     1      28.895  -9.841  34.674  1.00  0.00     0.010 A 
ENDBRANCH  23  30
ENDBRANCH   1  23
TORSDOF 6
ENDMDL
MODEL 8
REMARK VINA RESULT:      -8.4      2.437      4.284
REMARK  6 active torsions:
REMARK  status: ('A' for Active; 'I' for Inactive)
REMARK    1  A    between atoms: C3_9  and  N1_4 
REMARK    2  A    between atoms: C8_14  and  N2_5 
REMARK    3  A    between atoms: C17_23  and  N3_6 
REMARK    4  A    between atoms: C8_14  and  N3_6 
REMARK    5  A    between atoms: C3_9  and  C6_12 
REMARK    6  A    between atoms: C3_9  and  C7_13 
ROOT
HETATM    1  N1  UNK     1      32.188  -8.862  31.378  1.00  0.00     0.105 N 
HETATM    2  N2  UNK     1      34.806  -8.962  32.492  1.00  0.00    -0.355 N 
HETATM    3  C1  UNK     1      32.989  -7.633  31.501  1.00  0.00     0.293 C 
HETATM    4  C2  UNK     1      32.491  -9.792  32.479  1.00  0.00     0.293 C 
HETATM    5  C4  UNK     1      34.484  -7.955  31.491  1.00  0.00     0.155 C 
HETATM    6  C5  UNK     1      33.975 -10.157  32.490  1.00  0.00     0.155 C 
ENDROOT
BRANCH   2   7
HETATM    7  C8  UNK     1      35.884  -8.843  33.304  1.00  0.00     0.174 C 
HETATM    8  S1  UNK     1      37.341  -9.553  32.873  1.00  0.00    -0.041 SA
BRANCH   7   9
HETATM    9  N3  UNK     1      35.765  -8.195  34.506  1.00  0.00    -0.333 N 
HETATM   10  H14 UNK     1      36.502  -8.402  35.178  1.00  0.00     0.168 HD
BRANCH   9  11
HETATM   11  C17 UNK     1      34.805  -7.264  34.974  1.00  0.00     0.036 A 
HETATM   12  C20 UNK     1      33.591  -7.724  35.444  1.00  0.00     0.067 A 
HETATM   13  C22 UNK     1      32.660  -6.790  35.902  1.00  0.00     0.092 A 
HETATM   14  O1  UNK     1      31.434  -7.301  36.374  1.00  0.00    -0.275 OA
HETATM   15  C23 UNK     1      32.915  -5.418  35.899  1.00  0.00     0.004 A 
HETATM   16  C28 UNK     1      30.436  -6.465  36.852  1.00  0.00     0.288 A 
HETATM   17  C26 UNK     1      30.721  -5.021  36.841  1.00  0.00     0.090 A 
HETATM   18  O2  UNK     1      29.366  -6.899  37.265  1.00  0.00    -0.260 OA
HETATM   19  C25 UNK     1      31.878  -4.507  36.399  1.00  0.00    -0.043 A 
HETATM   20  C27 UNK     1      32.122  -3.026  36.408  1.00  0.00     0.049 C 
HETATM   21  C24 UNK     1      34.159  -4.990  35.413  1.00  0.00     0.017 A 
HETATM   22  C21 UNK     1      35.103  -5.915  34.951  1.00  0.00     0.030 A 
ENDBRANCH   9  11
ENDBRANCH   7   9
ENDBRANCH   2   7
BRANCH   1  23
HETATM   23  C3  UNK     1      30.761  -8.543  31.353  1.00  0.00     0.289 C 
BRANCH  23  24
HETATM   24  C6  UNK     1      30.068  -9.080  30.109  1.00  0.00    -0.021 A 
HETATM   25  C11 UNK     1      28.690  -9.137  30.086  1.00  0.00     0.010 A 
HETATM   26  C15 UNK     1      28.055  -9.629  28.945  1.00  0.00     0.001 A 
HETATM   27  C18 UNK     1      28.812 -10.053  27.853  1.00  0.00     0.000 A 
HETATM   28  C13 UNK     1      30.204  -9.985  27.901  1.00  0.00     0.001 A 
HETATM   29  C9  UNK     1      30.839  -9.493  29.041  1.00  0.00     0.010 A 
ENDBRANCH  23  24
BRANCH  23  30
HETATM   30  C7  UNK     1      30.496  -7.058  31.552  1.00  0.00    -0.021 A 
HETATM   31  C10 UNK     1      30.523  -6.541  32.831  1.00  0.00     0.010 A 
HETATM   32  C14 UNK     1      30.280  -5.180  33.014  1.00  0.00     0.001 A 
HETATM   33  C19 UNK     1      30.015  -4.364  31.913  1.00  0.00     0.000 A 
HETATM   34  C16 UNK     1      29.995  -4.911  30.630  1.00  0.00     0.001 A 
HETATM   35  C12 UNK     1      30.237  -6.273  30.447  1.00  0.00     0.010 A 
ENDBRANCH  23  30
ENDBRANCH   1  23
TORSDOF 6
ENDMDL
MODEL 9
REMARK VINA RESULT:      -8.3      1.613      3.722
REMARK  6 active torsions:
REMARK  status: ('A' for Active; 'I' for Inactive)
REMARK    1  A    between atoms: C3_9  and  N1_4 
REMARK    2  A    between atoms: C8_14  and  N2_5 
REMARK    3  A    between atoms: C17_23  and  N3_6 
REMARK    4  A    between atoms: C8_14  and  N3_6 
REMARK    5  A    between atoms: C3_9  and  C6_12 
REMARK    6  A    between atoms: C3_9  and  C7_13 
ROOT
HETATM    1  N1  UNK     1      32.250  -8.744  32.414  1.00  0.00     0.105 N 
HETATM    2  N2  UNK     1      34.482  -7.944  33.990  1.00  0.00    -0.355 N 
HETATM    3  C1  UNK     1      32.313  -7.384  32.974  1.00  0.00     0.293 C 
HETATM    4  C2  UNK     1      32.906  -9.707  33.315  1.00  0.00     0.293 C 
HETATM    5  C4  UNK     1      33.764  -6.956  33.198  1.00  0.00     0.155 C 
HETATM    6  C5  UNK     1      34.368  -9.326  33.546  1.00  0.00     0.155 C 
ENDROOT
BRANCH   2   7
HETATM    7  C8  UNK     1      35.297  -7.587  35.011  1.00  0.00     0.174 C 
HETATM    8  S1  UNK     1      36.888  -7.155  34.702  1.00  0.00    -0.041 SA
BRANCH   7   9
HETATM    9  N3  UNK     1      34.838  -7.638  36.301  1.00  0.00    -0.333 N 
HETATM   10  H14 UNK     1      35.488  -8.044  36.972  1.00  0.00     0.168 HD
BRANCH   9  11
HETATM   11  C17 UNK     1      33.619  -7.202  36.876  1.00  0.00     0.036 A 
HETATM   12  C20 UNK     1      32.589  -8.106  37.045  1.00  0.00     0.067 A 
HETATM   13  C22 UNK     1      31.397  -7.656  37.615  1.00  0.00     0.092 A 
HETATM   14  O1  UNK     1      30.372  -8.612  37.770  1.00  0.00    -0.275 OA
HETATM   15  C23 UNK     1      31.214  -6.332  38.015  1.00  0.00     0.004 A 
HETATM   16  C28 UNK     1      29.147  -8.276  38.324  1.00  0.00     0.288 A 
HETATM   17  C26 UNK     1      28.969  -6.876  38.740  1.00  0.00     0.090 A 
HETATM   18  O2  UNK     1      28.249  -9.100  38.465  1.00  0.00    -0.260 OA
HETATM   19  C25 UNK     1      29.926  -5.946  38.605  1.00  0.00    -0.043 A 
HETATM   20  C27 UNK     1      29.698  -4.529  39.044  1.00  0.00     0.049 C 
HETATM   21  C24 UNK     1      32.282  -5.443  37.826  1.00  0.00     0.017 A 
HETATM   22  C21 UNK     1      33.483  -5.880  37.257  1.00  0.00     0.030 A 
ENDBRANCH   9  11
ENDBRANCH   7   9
ENDBRANCH   2   7
BRANCH   1  23
HETATM   23  C3  UNK     1      30.862  -9.133  32.170  1.00  0.00     0.289 C 
BRANCH  23  24
HETATM   24  C6  UNK     1      30.555  -9.288  30.687  1.00  0.00    -0.021 A 
HETATM   25  C11 UNK     1      31.488  -8.862  29.765  1.00  0.00     0.010 A 
HETATM   26  C15 UNK     1      31.207  -9.004  28.406  1.00  0.00     0.001 A 
HETATM   27  C18 UNK     1      29.999  -9.571  27.999  1.00  0.00     0.000 A 
HETATM   28  C13 UNK     1      29.072  -9.994  28.952  1.00  0.00     0.001 A 
HETATM   29  C9  UNK     1      29.353  -9.852  30.310  1.00  0.00     0.010 A 
ENDBRANCH  23  24
BRANCH  23  30
HETATM   30  C7  UNK     1      29.870  -8.206  32.859  1.00  0.00    -0.021 A 
HETATM   31  C10 UNK     1      29.480  -8.490  34.152  1.00  0.00     0.010 A 
HETATM   32  C14 UNK     1      28.571  -7.641  34.783  1.00  0.00     0.001 A 
HETATM   33  C19 UNK     1      28.073  -6.526  34.109  1.00  0.00     0.000 A 
HETATM   34  C16 UNK     1      28.484  -6.260  32.803  1.00  0.00     0.001 A 
HETATM   35  C12 UNK     1      29.392  -7.110  32.171  1.00  0.00     0.010 A 
ENDBRANCH  23  30
ENDBRANCH   1  23
TORSDOF 6
ENDMDL
MODEL 10
REMARK VINA RESULT:      -8.2      1.675      2.602
REMARK  6 active torsions:
REMARK  status: ('A' for Active; 'I' for Inactive)
REMARK    1  A    between atoms: C3_9  and  N1_4 
REMARK    2  A    between atoms: C8_14  and  N2_5 
REMARK    3  A    between atoms: C17_23  and  N3_6 
REMARK    4  A    between atoms: C8_14  and  N3_6 
REMARK    5  A    between atoms: C3_9  and  C6_12 
REMARK    6  A    between atoms: C3_9  and  C7_13 
ROOT
HETATM    1  N1  UNK     1      31.784  -8.636  31.923  1.00  0.00     0.105 N 
HETATM    2  N2  UNK     1      34.448  -8.739  32.920  1.00  0.00    -0.355 N 
HETATM    3  C1  UNK     1      32.671  -7.469  31.790  1.00  0.00     0.293 C 
HETATM    4  C2  UNK     1      32.086  -9.380  33.157  1.00  0.00     0.293 C 
HETATM    5  C4  UNK     1      34.138  -7.900  31.771  1.00  0.00     0.155 C 
HETATM    6  C5  UNK     1      33.540  -9.850  33.167  1.00  0.00     0.155 C 
ENDROOT
BRANCH   2   7
HETATM    7  C8  UNK     1      35.577  -8.563  33.649  1.00  0.00     0.174 C 
HETATM    8  S1  UNK     1      37.037  -9.177  33.096  1.00  0.00    -0.041 SA
BRANCH   7   9
HETATM    9  N3  UNK     1      35.512  -7.937  34.867  1.00  0.00    -0.333 N 
HETATM   10  H14 UNK     1      36.263  -8.176  35.511  1.00  0.00     0.168 HD
BRANCH   9  11
HETATM   11  C17 UNK     1      34.590  -6.994  35.383  1.00  0.00     0.036 A 
HETATM   12  C20 UNK     1      33.580  -7.422  36.221  1.00  0.00     0.067 A 
HETATM   13  C22 UNK     1      32.684  -6.476  36.719  1.00  0.00     0.092 A 
HETATM   14  O1  UNK     1      31.669  -6.956  37.572  1.00  0.00    -0.275 OA
HETATM   15  C23 UNK     1      32.776  -5.120  36.400  1.00  0.00     0.004 A 
HETATM   16  C28 UNK     1      30.725  -6.105  38.125  1.00  0.00     0.288 A 
HETATM   17  C26 UNK     1      30.834  -4.679  37.778  1.00  0.00     0.090 A 
HETATM   18  O2  UNK     1      29.838  -6.512  38.867  1.00  0.00    -0.260 OA
HETATM   19  C25 UNK     1      31.789  -4.194  36.970  1.00  0.00    -0.043 A 
HETATM   20  C27 UNK     1      31.861  -2.730  36.646  1.00  0.00     0.049 C 
HETATM   21  C24 UNK     1      33.814  -4.723  35.546  1.00  0.00     0.017 A 
HETATM   22  C21 UNK     1      34.721  -5.661  35.039  1.00  0.00     0.030 A 
ENDBRANCH   9  11
ENDBRANCH   7   9
ENDBRANCH   2   7
BRANCH   1  23
HETATM   23  C3  UNK     1      30.383  -8.219  31.906  1.00  0.00     0.289 C 
BRANCH  23  24
HETATM   24  C6  UNK     1      29.685  -8.471  33.235  1.00  0.00    -0.021 A 
HETATM   25  C11 UNK     1      29.590  -7.438  34.144  1.00  0.00     0.010 A 
HETATM   26  C15 UNK     1      28.951  -7.669  35.363  1.00  0.00     0.001 A 
HETATM   27  C18 UNK     1      28.421  -8.928  35.645  1.00  0.00     0.000 A 
HETATM   28  C13 UNK     1      28.530  -9.956  34.708  1.00  0.00     0.001 A 
HETATM   29  C9  UNK     1      29.169  -9.725  33.490  1.00  0.00     0.010 A 
ENDBRANCH  23  24
BRANCH  23  30
HETATM   30  C7  UNK     1      29.612  -8.823  30.740  1.00  0.00    -0.021 A 
HETATM   31  C10 UNK     1      28.316  -8.408  30.512  1.00  0.00     0.010 A 
HETATM   32  C14 UNK     1      27.610  -8.961  29.443  1.00  0.00     0.001 A 
HETATM   33  C19 UNK     1      28.216  -9.915  28.625  1.00  0.00     0.000 A 
HETATM   34  C16 UNK     1      29.528 -10.316  28.876  1.00  0.00     0.001 A 
HETATM   35  C12 UNK     1      30.234  -9.764  29.945  1.00  0.00     0.010 A 
ENDBRANCH  23  30
ENDBRANCH   1  23
TORSDOF 6
ENDMDL
