MODEL 1
REMARK VINA RESULT:     -10.2      0.000      0.000
REMARK  6 active torsions:
REMARK  status: ('A' for Active; 'I' for Inactive)
REMARK    1  A    between atoms: C11_19  and  O2_3 
REMARK    2  A    between atoms: C16_24  and  O3_4 
REMARK       I    between atoms: C10_18  and  N1_8 
REMARK    3  A    between atoms: C3_11  and  N1_8 
REMARK    4  A    between atoms: C1_9  and  C5_13 
REMARK    5  A    between atoms: C16_24  and  C2_10 
REMARK    6  A    between atoms: C10_18  and  C6_14 
ROOT
HETATM    1  O4  UNK     1      19.196  -2.149  36.644  1.00  0.00    -0.267 OA
HETATM    2  N1  UNK     1      19.972  -3.911  35.286  1.00  0.00    -0.316 N 
HETATM    3  C10 UNK     1      19.507  -2.631  35.556  1.00  0.00     0.262 C 
HETATM    4  H3  UNK     1      20.171  -4.170  34.324  1.00  0.00     0.169 HD
ENDROOT
BRANCH   2   5
HETATM    5  C3  UNK     1      20.197  -4.961  36.211  1.00  0.00     0.094 A 
HETATM    6  C2  UNK     1      19.945  -6.278  36.097  1.00  0.00     0.085 A 
HETATM    7  C1  UNK     1      20.335  -6.965  37.282  1.00  0.00    -0.000 A 
HETATM    8  C9  UNK     1      20.865  -6.112  38.225  1.00  0.00     0.065 A 
HETATM    9  S1  UNK     1      20.889  -4.489  37.681  1.00  0.00    -0.082 SA
BRANCH   6  10
HETATM   10  C16 UNK     1      19.357  -6.887  34.930  1.00  0.00     0.296 C 
HETATM   11  O6  UNK     1      19.877  -6.955  33.807  1.00  0.00    -0.259 OA
BRANCH  10  12
HETATM   12  O3  UNK     1      18.112  -7.406  35.199  1.00  0.00    -0.322 OA
HETATM   13  C23 UNK     1      17.253  -6.622  36.036  1.00  0.00     0.213 C 
ENDBRANCH  10  12
ENDBRANCH   6  10
BRANCH   7  14
HETATM   14  C5  UNK     1      20.232  -8.375  37.558  1.00  0.00    -0.024 A 
HETATM   15  C14 UNK     1      19.245  -8.842  38.425  1.00  0.00     0.012 A 
HETATM   16  C19 UNK     1      19.144 -10.207  38.692  1.00  0.00     0.001 A 
HETATM   17  C21 UNK     1      20.029 -11.103  38.091  1.00  0.00     0.000 A 
HETATM   18  C20 UNK     1      21.014 -10.633  37.223  1.00  0.00     0.001 A 
HETATM   19  C15 UNK     1      21.116  -9.268  36.957  1.00  0.00     0.012 A 
ENDBRANCH   7  14
ENDBRANCH   2   5
BRANCH   3  20
HETATM   20  C6  UNK     1      19.402  -1.814  34.341  1.00  0.00     0.108 A 
HETATM   21  C13 UNK     1      18.640  -0.546  34.310  1.00  0.00     0.304 A 
HETATM   22  O1  UNK     1      18.616   0.141  33.099  1.00  0.00    -0.271 OA
HETATM   23  O5  UNK     1      18.057  -0.115  35.300  1.00  0.00    -0.259 OA
HETATM   24  C7  UNK     1      19.281  -0.345  31.957  1.00  0.00     0.123 A 
HETATM   25  C11 UNK     1      19.199   0.411  30.790  1.00  0.00     0.102 A 
HETATM   26  C4  UNK     1      19.991  -1.540  32.007  1.00  0.00     0.002 A 
HETATM   27  C17 UNK     1      19.846  -0.044  29.643  1.00  0.00     0.040 A 
HETATM   28  C18 UNK     1      20.564  -1.241  29.674  1.00  0.00     0.004 A 
HETATM   29  C12 UNK     1      20.638  -1.990  30.852  1.00  0.00     0.014 A 
HETATM   30  C8  UNK     1      20.037  -2.280  33.258  1.00  0.00     0.037 A 
BRANCH  25  31
HETATM   31  O2  UNK     1      18.501   1.577  30.754  1.00  0.00    -0.353 OA
HETATM   32  C22 UNK     1      18.277   2.162  29.471  1.00  0.00     0.210 C 
ENDBRANCH  25  31
ENDBRANCH   3  20
TORSDOF 6
ENDMDL
MODEL 2
REMARK VINA RESULT:     -10.0      3.272      5.463
REMARK  6 active torsions:
REMARK  status: ('A' for Active; 'I' for Inactive)
REMARK    1  A    between atoms: C11_19  and  O2_3 
REMARK    2  A    between atoms: C16_24  and  O3_4 
REMARK       I    between atoms: C10_18  and  N1_8 
REMARK    3  A    between atoms: C3_11  and  N1_8 
REMARK    4  A    between atoms: C1_9  and  C5_13 
REMARK    5  A    between atoms: C16_24  and  C2_10 
REMARK    6  A    between atoms: C10_18  and  C6_14 
ROOT
HETATM    1  O4  UNK     1      16.617   0.587  34.158  1.00  0.00    -0.267 OA
HETATM    2  N1  UNK     1      18.841   0.639  34.932  1.00  0.00    -0.316 N 
HETATM    3  C10 UNK     1      17.738   1.090  34.221  1.00  0.00     0.262 C 
HETATM    4  H3  UNK     1      19.713   1.158  34.870  1.00  0.00     0.169 HD
ENDROOT
BRANCH   2   5
HETATM    5  C3  UNK     1      18.927  -0.512  35.753  1.00  0.00     0.094 A 
HETATM    6  C2  UNK     1      19.580  -1.672  35.547  1.00  0.00     0.085 A 
HETATM    7  C1  UNK     1      19.389  -2.555  36.648  1.00  0.00    -0.000 A 
HETATM    8  C9  UNK     1      18.594  -1.999  37.626  1.00  0.00     0.065 A 
HETATM    9  S1  UNK     1      18.082  -0.417  37.216  1.00  0.00    -0.082 SA
BRANCH   6  10
HETATM   10  C16 UNK     1      20.358  -1.959  34.367  1.00  0.00     0.296 C 
HETATM   11  O6  UNK     1      21.557  -2.273  34.346  1.00  0.00    -0.259 OA
BRANCH  10  12
HETATM   12  O3  UNK     1      19.605  -1.843  33.222  1.00  0.00    -0.322 OA
HETATM   13  C23 UNK     1      20.317  -1.831  31.979  1.00  0.00     0.213 C 
ENDBRANCH  10  12
ENDBRANCH   6  10
BRANCH   7  14
HETATM   14  C5  UNK     1      19.917  -3.885  36.813  1.00  0.00    -0.024 A 
HETATM   15  C14 UNK     1      19.360  -4.946  36.102  1.00  0.00     0.012 A 
HETATM   16  C19 UNK     1      19.871  -6.233  36.261  1.00  0.00     0.001 A 
HETATM   17  C21 UNK     1      20.940  -6.457  37.129  1.00  0.00     0.000 A 
HETATM   18  C20 UNK     1      21.497  -5.393  37.838  1.00  0.00     0.001 A 
HETATM   19  C15 UNK     1      20.985  -4.105  37.680  1.00  0.00     0.012 A 
ENDBRANCH   7  14
ENDBRANCH   2   5
BRANCH   3  20
HETATM   20  C6  UNK     1      18.025   2.326  33.481  1.00  0.00     0.108 A 
HETATM   21  C13 UNK     1      18.329   2.322  32.033  1.00  0.00     0.304 A 
HETATM   22  O1  UNK     1      18.582   3.557  31.443  1.00  0.00    -0.271 OA
HETATM   23  O5  UNK     1      18.356   1.284  31.378  1.00  0.00    -0.259 OA
HETATM   24  C7  UNK     1      18.554   4.754  32.185  1.00  0.00     0.123 A 
HETATM   25  C11 UNK     1      18.823   5.941  31.508  1.00  0.00     0.102 A 
HETATM   26  C4  UNK     1      18.268   4.735  33.546  1.00  0.00     0.002 A 
HETATM   27  C17 UNK     1      18.803   7.141  32.215  1.00  0.00     0.040 A 
HETATM   28  C18 UNK     1      18.517   7.143  33.582  1.00  0.00     0.004 A 
HETATM   29  C12 UNK     1      18.250   5.943  34.248  1.00  0.00     0.014 A 
HETATM   30  C8  UNK     1      17.996   3.460  34.191  1.00  0.00     0.037 A 
BRANCH  25  31
HETATM   31  O2  UNK     1      19.101   5.946  30.177  1.00  0.00    -0.353 OA
HETATM   32  C22 UNK     1      20.478   5.982  29.801  1.00  0.00     0.210 C 
ENDBRANCH  25  31
ENDBRANCH   3  20
TORSDOF 6
ENDMDL
MODEL 3
REMARK VINA RESULT:     -10.0      6.547     12.808
REMARK  6 active torsions:
REMARK  status: ('A' for Active; 'I' for Inactive)
REMARK    1  A    between atoms: C11_19  and  O2_3 
REMARK    2  A    between atoms: C16_24  and  O3_4 
REMARK       I    between atoms: C10_18  and  N1_8 
REMARK    3  A    between atoms: C3_11  and  N1_8 
REMARK    4  A    between atoms: C1_9  and  C5_13 
REMARK    5  A    between atoms: C16_24  and  C2_10 
REMARK    6  A    between atoms: C10_18  and  C6_14 
ROOT
HETATM    1  O4  UNK     1      18.611   5.228  30.359  1.00  0.00    -0.267 OA
HETATM    2  N1  UNK     1      17.427   5.032  32.385  1.00  0.00    -0.316 N 
HETATM    3  C10 UNK     1      18.197   4.584  31.321  1.00  0.00     0.262 C 
HETATM    4  H3  UNK     1      17.146   4.369  33.103  1.00  0.00     0.169 HD
ENDROOT
BRANCH   2   5
HETATM    5  C3  UNK     1      16.939   6.343  32.606  1.00  0.00     0.094 A 
HETATM    6  C2  UNK     1      17.523   7.387  33.224  1.00  0.00     0.085 A 
HETATM    7  C1  UNK     1      16.659   8.520  33.214  1.00  0.00    -0.000 A 
HETATM    8  C9  UNK     1      15.465   8.255  32.580  1.00  0.00     0.065 A 
HETATM    9  S1  UNK     1      15.388   6.645  32.002  1.00  0.00    -0.082 SA
BRANCH   6  10
HETATM   10  C16 UNK     1      18.840   7.342  33.811  1.00  0.00     0.296 C 
HETATM   11  O6  UNK     1      19.093   7.310  35.024  1.00  0.00    -0.259 OA
BRANCH  10  12
HETATM   12  O3  UNK     1      19.824   7.338  32.850  1.00  0.00    -0.322 OA
HETATM   13  C23 UNK     1      20.821   6.315  32.951  1.00  0.00     0.213 C 
ENDBRANCH  10  12
ENDBRANCH   6  10
BRANCH   7  14
HETATM   14  C5  UNK     1      16.911   9.825  33.769  1.00  0.00    -0.024 A 
HETATM   15  C14 UNK     1      15.883  10.518  34.406  1.00  0.00     0.012 A 
HETATM   16  C19 UNK     1      16.126  11.781  34.944  1.00  0.00     0.001 A 
HETATM   17  C21 UNK     1      17.397  12.349  34.845  1.00  0.00     0.000 A 
HETATM   18  C20 UNK     1      18.424  11.652  34.208  1.00  0.00     0.001 A 
HETATM   19  C15 UNK     1      18.180  10.389  33.670  1.00  0.00     0.012 A 
ENDBRANCH   7  14
ENDBRANCH   2   5
BRANCH   3  20
HETATM   20  C6  UNK     1      18.516   3.155  31.433  1.00  0.00     0.108 A 
HETATM   21  C13 UNK     1      18.332   2.404  32.695  1.00  0.00     0.304 A 
HETATM   22  O1  UNK     1      18.669   1.054  32.675  1.00  0.00    -0.271 OA
HETATM   23  O5  UNK     1      17.903   2.941  33.712  1.00  0.00    -0.259 OA
HETATM   24  C7  UNK     1      19.163   0.429  31.513  1.00  0.00     0.123 A 
HETATM   25  C11 UNK     1      19.474  -0.927  31.591  1.00  0.00     0.102 A 
HETATM   26  C4  UNK     1      19.330   1.153  30.338  1.00  0.00     0.002 A 
HETATM   27  C17 UNK     1      19.964  -1.573  30.459  1.00  0.00     0.040 A 
HETATM   28  C18 UNK     1      20.139  -0.863  29.269  1.00  0.00     0.004 A 
HETATM   29  C12 UNK     1      19.823   0.497  29.206  1.00  0.00     0.014 A 
HETATM   30  C8  UNK     1      18.985   2.565  30.326  1.00  0.00     0.037 A 
BRANCH  25  31
HETATM   31  O2  UNK     1      19.306  -1.623  32.747  1.00  0.00    -0.353 OA
HETATM   32  C22 UNK     1      20.396  -2.437  33.180  1.00  0.00     0.210 C 
ENDBRANCH  25  31
ENDBRANCH   3  20
TORSDOF 6
ENDMDL
MODEL 4
REMARK VINA RESULT:      -9.9      3.013      4.950
REMARK  6 active torsions:
REMARK  status: ('A' for Active; 'I' for Inactive)
REMARK    1  A    between atoms: C11_19  and  O2_3 
REMARK    2  A    between atoms: C16_24  and  O3_4 
REMARK       I    between atoms: C10_18  and  N1_8 
REMARK    3  A    between atoms: C3_11  and  N1_8 
REMARK    4  A    between atoms: C1_9  and  C5_13 
REMARK    5  A    between atoms: C16_24  and  C2_10 
REMARK    6  A    between atoms: C10_18  and  C6_14 
ROOT
HETATM    1  O4  UNK     1      16.988   0.025  33.804  1.00  0.00    -0.267 OA
HETATM    2  N1  UNK     1      18.877   0.347  35.174  1.00  0.00    -0.316 N 
HETATM    3  C10 UNK     1      17.940   0.690  34.210  1.00  0.00     0.262 C 
HETATM    4  H3  UNK     1      19.624   1.002  35.390  1.00  0.00     0.169 HD
ENDROOT
BRANCH   2   5
HETATM    5  C3  UNK     1      18.951  -0.857  35.916  1.00  0.00     0.094 A 
HETATM    6  C2  UNK     1      19.726  -1.942  35.726  1.00  0.00     0.085 A 
HETATM    7  C1  UNK     1      19.464  -2.924  36.723  1.00  0.00    -0.000 A 
HETATM    8  C9  UNK     1      18.497  -2.512  37.614  1.00  0.00     0.065 A 
HETATM    9  S1  UNK     1      17.908  -0.947  37.246  1.00  0.00    -0.082 SA
BRANCH   6  10
HETATM   10  C16 UNK     1      20.680  -2.070  34.653  1.00  0.00     0.296 C 
HETATM   11  O6  UNK     1      21.913  -2.111  34.778  1.00  0.00    -0.259 OA
BRANCH  10  12
HETATM   12  O3  UNK     1      20.060  -2.146  33.428  1.00  0.00    -0.322 OA
HETATM   13  C23 UNK     1      20.893  -2.437  32.299  1.00  0.00     0.213 C 
ENDBRANCH  10  12
ENDBRANCH   6  10
BRANCH   7  14
HETATM   14  C5  UNK     1      20.080  -4.218  36.869  1.00  0.00    -0.024 A 
HETATM   15  C14 UNK     1      19.691  -5.269  36.041  1.00  0.00     0.012 A 
HETATM   16  C19 UNK     1      20.287  -6.521  36.181  1.00  0.00     0.001 A 
HETATM   17  C21 UNK     1      21.273  -6.721  37.149  1.00  0.00     0.000 A 
HETATM   18  C20 UNK     1      21.661  -5.666  37.975  1.00  0.00     0.001 A 
HETATM   19  C15 UNK     1      21.064  -4.414  37.836  1.00  0.00     0.012 A 
ENDBRANCH   7  14
ENDBRANCH   2   5
BRANCH   3  20
HETATM   20  C6  UNK     1      18.182   2.028  33.654  1.00  0.00     0.108 A 
HETATM   21  C13 UNK     1      18.287   3.228  34.514  1.00  0.00     0.304 A 
HETATM   22  O1  UNK     1      18.520   4.440  33.870  1.00  0.00    -0.271 OA
HETATM   23  O5  UNK     1      18.177   3.164  35.734  1.00  0.00    -0.259 OA
HETATM   24  C7  UNK     1      18.648   4.525  32.469  1.00  0.00     0.123 A 
HETATM   25  C11 UNK     1      18.878   5.782  31.916  1.00  0.00     0.102 A 
HETATM   26  C4  UNK     1      18.544   3.384  31.680  1.00  0.00     0.002 A 
HETATM   27  C17 UNK     1      19.009   5.898  30.534  1.00  0.00     0.040 A 
HETATM   28  C18 UNK     1      18.908   4.764  29.725  1.00  0.00     0.004 A 
HETATM   29  C12 UNK     1      18.676   3.509  30.294  1.00  0.00     0.014 A 
HETATM   30  C8  UNK     1      18.304   2.103  32.324  1.00  0.00     0.037 A 
BRANCH  25  31
HETATM   31  O2  UNK     1      18.977   6.889  32.699  1.00  0.00    -0.353 OA
HETATM   32  C22 UNK     1      17.839   7.748  32.758  1.00  0.00     0.210 C 
ENDBRANCH  25  31
ENDBRANCH   3  20
TORSDOF 6
ENDMDL
MODEL 5
REMARK VINA RESULT:      -9.6     16.963     21.070
REMARK  6 active torsions:
REMARK  status: ('A' for Active; 'I' for Inactive)
REMARK    1  A    between atoms: C11_19  and  O2_3 
REMARK    2  A    between atoms: C16_24  and  O3_4 
REMARK       I    between atoms: C10_18  and  N1_8 
REMARK    3  A    between atoms: C3_11  and  N1_8 
REMARK    4  A    between atoms: C1_9  and  C5_13 
REMARK    5  A    between atoms: C16_24  and  C2_10 
REMARK    6  A    between atoms: C10_18  and  C6_14 
ROOT
HETATM    1  O4  UNK     1      17.489  -2.906  15.395  1.00  0.00    -0.267 OA
HETATM    2  N1  UNK     1      19.820  -2.966  15.062  1.00  0.00    -0.316 N 
HETATM    3  C10 UNK     1      18.619  -2.438  15.517  1.00  0.00     0.262 C 
HETATM    4  H3  UNK     1      20.679  -2.448  15.225  1.00  0.00     0.169 HD
ENDROOT
BRANCH   2   5
HETATM    5  C3  UNK     1      20.017  -4.175  14.351  1.00  0.00     0.094 A 
HETATM    6  C2  UNK     1      19.912  -4.427  13.033  1.00  0.00     0.085 A 
HETATM    7  C1  UNK     1      20.201  -5.795  12.761  1.00  0.00    -0.000 A 
HETATM    8  C9  UNK     1      20.511  -6.496  13.905  1.00  0.00     0.065 A 
HETATM    9  S1  UNK     1      20.451  -5.506  15.301  1.00  0.00    -0.082 SA
BRANCH   6  10
HETATM   10  C16 UNK     1      19.552  -3.434  12.050  1.00  0.00     0.296 C 
HETATM   11  O6  UNK     1      18.624  -3.525  11.233  1.00  0.00    -0.259 OA
BRANCH  10  12
HETATM   12  O3  UNK     1      20.374  -2.334  12.115  1.00  0.00    -0.322 OA
HETATM   13  C23 UNK     1      20.967  -1.898  10.886  1.00  0.00     0.213 C 
ENDBRANCH  10  12
ENDBRANCH   6  10
BRANCH   7  14
HETATM   14  C5  UNK     1      20.198  -6.458  11.483  1.00  0.00    -0.024 A 
HETATM   15  C14 UNK     1      21.350  -6.456  10.697  1.00  0.00     0.012 A 
HETATM   16  C19 UNK     1      21.348  -7.098   9.460  1.00  0.00     0.001 A 
HETATM   17  C21 UNK     1      20.195  -7.743   9.010  1.00  0.00     0.000 A 
HETATM   18  C20 UNK     1      19.045  -7.744   9.799  1.00  0.00     0.001 A 
HETATM   19  C15 UNK     1      19.046  -7.101  11.036  1.00  0.00     0.012 A 
ENDBRANCH   7  14
ENDBRANCH   2   5
BRANCH   3  20
HETATM   20  C6  UNK     1      18.807  -1.162  16.219  1.00  0.00     0.108 A 
HETATM   21  C13 UNK     1      19.243   0.066  15.517  1.00  0.00     0.304 A 
HETATM   22  O1  UNK     1      19.384   1.213  16.292  1.00  0.00    -0.271 OA
HETATM   23  O5  UNK     1      19.469   0.077  14.311  1.00  0.00    -0.259 OA
HETATM   24  C7  UNK     1      19.128   1.210  17.677  1.00  0.00     0.123 A 
HETATM   25  C11 UNK     1      19.298   2.408  18.368  1.00  0.00     0.102 A 
HETATM   26  C4  UNK     1      18.721   0.045  18.318  1.00  0.00     0.002 A 
HETATM   27  C17 UNK     1      19.053   2.436  19.739  1.00  0.00     0.040 A 
HETATM   28  C18 UNK     1      18.643   1.276  20.401  1.00  0.00     0.004 A 
HETATM   29  C12 UNK     1      18.477   0.082  19.693  1.00  0.00     0.014 A 
HETATM   30  C8  UNK     1      18.562  -1.170  17.535  1.00  0.00     0.037 A 
BRANCH  25  31
HETATM   31  O2  UNK     1      19.697   3.539  17.730  1.00  0.00    -0.353 OA
HETATM   32  C22 UNK     1      20.701   4.327  18.369  1.00  0.00     0.210 C 
ENDBRANCH  25  31
ENDBRANCH   3  20
TORSDOF 6
ENDMDL
MODEL 6
REMARK VINA RESULT:      -9.5     16.304     20.076
REMARK  6 active torsions:
REMARK  status: ('A' for Active; 'I' for Inactive)
REMARK    1  A    between atoms: C11_19  and  O2_3 
REMARK    2  A    between atoms: C16_24  and  O3_4 
REMARK       I    between atoms: C10_18  and  N1_8 
REMARK    3  A    between atoms: C3_11  and  N1_8 
REMARK    4  A    between atoms: C1_9  and  C5_13 
REMARK    5  A    between atoms: C16_24  and  C2_10 
REMARK    6  A    between atoms: C10_18  and  C6_14 
ROOT
HETATM    1  O4  UNK     1      17.758  -2.492  16.108  1.00  0.00    -0.267 OA
HETATM    2  N1  UNK     1      19.601  -1.781  14.825  1.00  0.00    -0.316 N 
HETATM    3  C10 UNK     1      18.690  -1.725  15.870  1.00  0.00     0.262 C 
HETATM    4  H3  UNK     1      20.311  -1.057  14.752  1.00  0.00     0.169 HD
ENDROOT
BRANCH   2   5
HETATM    5  C3  UNK     1      19.667  -2.743  13.787  1.00  0.00     0.094 A 
HETATM    6  C2  UNK     1      20.034  -4.037  13.833  1.00  0.00     0.085 A 
HETATM    7  C1  UNK     1      19.948  -4.627  12.540  1.00  0.00    -0.000 A 
HETATM    8  C9  UNK     1      19.514  -3.729  11.589  1.00  0.00     0.065 A 
HETATM    9  S1  UNK     1      19.215  -2.181  12.257  1.00  0.00    -0.082 SA
BRANCH   6  10
HETATM   10  C16 UNK     1      20.456  -4.712  15.036  1.00  0.00     0.296 C 
HETATM   11  O6  UNK     1      19.760  -5.476  15.722  1.00  0.00    -0.259 OA
BRANCH  10  12
HETATM   12  O3  UNK     1      21.758  -4.410  15.358  1.00  0.00    -0.322 OA
HETATM   13  C23 UNK     1      21.987  -3.831  16.649  1.00  0.00     0.213 C 
ENDBRANCH  10  12
ENDBRANCH   6  10
BRANCH   7  14
HETATM   14  C5  UNK     1      20.252  -5.985  12.169  1.00  0.00    -0.024 A 
HETATM   15  C14 UNK     1      21.270  -6.242  11.252  1.00  0.00     0.012 A 
HETATM   16  C19 UNK     1      21.565  -7.557  10.893  1.00  0.00     0.001 A 
HETATM   17  C21 UNK     1      20.843  -8.612  11.451  1.00  0.00     0.000 A 
HETATM   18  C20 UNK     1      19.825  -8.351  12.368  1.00  0.00     0.001 A 
HETATM   19  C15 UNK     1      19.529  -7.036  12.727  1.00  0.00     0.012 A 
ENDBRANCH   7  14
ENDBRANCH   2   5
BRANCH   3  20
HETATM   20  C6  UNK     1      18.935  -0.581  16.758  1.00  0.00     0.108 A 
HETATM   21  C13 UNK     1      19.155   0.786  16.236  1.00  0.00     0.304 A 
HETATM   22  O1  UNK     1      19.376   1.787  17.177  1.00  0.00    -0.271 OA
HETATM   23  O5  UNK     1      19.142   1.031  15.034  1.00  0.00    -0.259 OA
HETATM   24  C7  UNK     1      19.393   1.517  18.560  1.00  0.00     0.123 A 
HETATM   25  C11 UNK     1      19.624   2.584  19.425  1.00  0.00     0.102 A 
HETATM   26  C4  UNK     1      19.186   0.224  19.029  1.00  0.00     0.002 A 
HETATM   27  C17 UNK     1      19.647   2.347  20.797  1.00  0.00     0.040 A 
HETATM   28  C18 UNK     1      19.441   1.056  21.288  1.00  0.00     0.004 A 
HETATM   29  C12 UNK     1      19.211  -0.005  20.407  1.00  0.00     0.014 A 
HETATM   30  C8  UNK     1      18.950  -0.844  18.070  1.00  0.00     0.037 A 
BRANCH  25  31
HETATM   31  O2  UNK     1      19.826   3.843  18.953  1.00  0.00    -0.353 OA
HETATM   32  C22 UNK     1      21.152   4.182  18.550  1.00  0.00     0.210 C 
ENDBRANCH  25  31
ENDBRANCH   3  20
TORSDOF 6
ENDMDL
MODEL 7
REMARK VINA RESULT:      -9.3      6.882     13.194
REMARK  6 active torsions:
REMARK  status: ('A' for Active; 'I' for Inactive)
REMARK    1  A    between atoms: C11_19  and  O2_3 
REMARK    2  A    between atoms: C16_24  and  O3_4 
REMARK       I    between atoms: C10_18  and  N1_8 
REMARK    3  A    between atoms: C3_11  and  N1_8 
REMARK    4  A    between atoms: C1_9  and  C5_13 
REMARK    5  A    between atoms: C16_24  and  C2_10 
REMARK    6  A    between atoms: C10_18  and  C6_14 
ROOT
HETATM    1  O4  UNK     1      18.505   5.460  30.778  1.00  0.00    -0.267 OA
HETATM    2  N1  UNK     1      17.230   5.407  32.758  1.00  0.00    -0.316 N 
HETATM    3  C10 UNK     1      18.016   4.877  31.744  1.00  0.00     0.262 C 
HETATM    4  H3  UNK     1      16.882   4.788  33.485  1.00  0.00     0.169 HD
ENDROOT
BRANCH   2   5
HETATM    5  C3  UNK     1      16.812   6.752  32.913  1.00  0.00     0.094 A 
HETATM    6  C2  UNK     1      17.425   7.780  33.528  1.00  0.00     0.085 A 
HETATM    7  C1  UNK     1      16.633   8.960  33.438  1.00  0.00    -0.000 A 
HETATM    8  C9  UNK     1      15.459   8.744  32.750  1.00  0.00     0.065 A 
HETATM    9  S1  UNK     1      15.314   7.123  32.219  1.00  0.00    -0.082 SA
BRANCH   6  10
HETATM   10  C16 UNK     1      18.706   7.678  34.184  1.00  0.00     0.296 C 
HETATM   11  O6  UNK     1      18.896   7.674  35.409  1.00  0.00    -0.259 OA
BRANCH  10  12
HETATM   12  O3  UNK     1      19.735   7.581  33.277  1.00  0.00    -0.322 OA
HETATM   13  C23 UNK     1      20.603   6.449  33.403  1.00  0.00     0.213 C 
ENDBRANCH  10  12
ENDBRANCH   6  10
BRANCH   7  14
HETATM   14  C5  UNK     1      16.934  10.266  33.965  1.00  0.00    -0.024 A 
HETATM   15  C14 UNK     1      18.203  10.813  33.780  1.00  0.00     0.012 A 
HETATM   16  C19 UNK     1      18.496  12.077  34.290  1.00  0.00     0.001 A 
HETATM   17  C21 UNK     1      17.519  12.793  34.984  1.00  0.00     0.000 A 
HETATM   18  C20 UNK     1      16.250  12.243  35.167  1.00  0.00     0.001 A 
HETATM   19  C15 UNK     1      15.958  10.979  34.658  1.00  0.00     0.012 A 
ENDBRANCH   7  14
ENDBRANCH   2   5
BRANCH   3  20
HETATM   20  C6  UNK     1      18.246   3.437  31.918  1.00  0.00     0.108 A 
HETATM   21  C13 UNK     1      18.577   2.550  30.781  1.00  0.00     0.304 A 
HETATM   22  O1  UNK     1      18.774   1.204  31.074  1.00  0.00    -0.271 OA
HETATM   23  O5  UNK     1      18.676   2.976  29.634  1.00  0.00    -0.259 OA
HETATM   24  C7  UNK     1      18.662   0.705  32.386  1.00  0.00     0.123 A 
HETATM   25  C11 UNK     1      18.876  -0.658  32.580  1.00  0.00     0.102 A 
HETATM   26  C4  UNK     1      18.348   1.555  33.441  1.00  0.00     0.002 A 
HETATM   27  C17 UNK     1      18.771  -1.181  33.867  1.00  0.00     0.040 A 
HETATM   28  C18 UNK     1      18.457  -0.343  34.939  1.00  0.00     0.004 A 
HETATM   29  C12 UNK     1      18.245   1.023  34.729  1.00  0.00     0.014 A 
HETATM   30  C8  UNK     1      18.138   2.968  33.167  1.00  0.00     0.037 A 
BRANCH  25  31
HETATM   31  O2  UNK     1      19.182  -1.478  31.540  1.00  0.00    -0.353 OA
HETATM   32  C22 UNK     1      20.499  -2.027  31.511  1.00  0.00     0.210 C 
ENDBRANCH  25  31
ENDBRANCH   3  20
TORSDOF 6
ENDMDL
MODEL 8
REMARK VINA RESULT:      -9.3      2.158      9.310
REMARK  6 active torsions:
REMARK  status: ('A' for Active; 'I' for Inactive)
REMARK    1  A    between atoms: C11_19  and  O2_3 
REMARK    2  A    between atoms: C16_24  and  O3_4 
REMARK       I    between atoms: C10_18  and  N1_8 
REMARK    3  A    between atoms: C3_11  and  N1_8 
REMARK    4  A    between atoms: C1_9  and  C5_13 
REMARK    5  A    between atoms: C16_24  and  C2_10 
REMARK    6  A    between atoms: C10_18  and  C6_14 
ROOT
HETATM    1  O4  UNK     1      20.888  -3.154  37.814  1.00  0.00    -0.267 OA
HETATM    2  N1  UNK     1      19.062  -3.230  36.328  1.00  0.00    -0.316 N 
HETATM    3  C10 UNK     1      20.077  -3.758  37.114  1.00  0.00     0.262 C 
HETATM    4  H3  UNK     1      18.479  -3.862  35.787  1.00  0.00     0.169 HD
ENDROOT
BRANCH   2   5
HETATM    5  C3  UNK     1      18.728  -1.865  36.153  1.00  0.00     0.094 A 
HETATM    6  C2  UNK     1      18.840  -1.083  35.062  1.00  0.00     0.085 A 
HETATM    7  C1  UNK     1      18.378   0.235  35.343  1.00  0.00    -0.000 A 
HETATM    8  C9  UNK     1      17.940   0.364  36.643  1.00  0.00     0.065 A 
HETATM    9  S1  UNK     1      18.088  -1.100  37.519  1.00  0.00    -0.082 SA
BRANCH   6  10
HETATM   10  C16 UNK     1      19.362  -1.537  33.797  1.00  0.00     0.296 C 
HETATM   11  O6  UNK     1      18.747  -1.547  32.720  1.00  0.00    -0.259 OA
BRANCH  10  12
HETATM   12  O3  UNK     1      20.661  -1.973  33.910  1.00  0.00    -0.322 OA
HETATM   13  C23 UNK     1      21.264  -2.520  32.731  1.00  0.00     0.213 C 
ENDBRANCH  10  12
ENDBRANCH   6  10
BRANCH   7  14
HETATM   14  C5  UNK     1      18.333   1.362  34.448  1.00  0.00    -0.024 A 
HETATM   15  C14 UNK     1      18.374   2.658  34.960  1.00  0.00     0.012 A 
HETATM   16  C19 UNK     1      18.330   3.749  34.094  1.00  0.00     0.001 A 
HETATM   17  C21 UNK     1      18.247   3.544  32.716  1.00  0.00     0.000 A 
HETATM   18  C20 UNK     1      18.206   2.246  32.207  1.00  0.00     0.001 A 
HETATM   19  C15 UNK     1      18.249   1.155  33.073  1.00  0.00     0.012 A 
ENDBRANCH   7  14
ENDBRANCH   2   5
BRANCH   3  20
HETATM   20  C6  UNK     1      20.121  -5.224  37.050  1.00  0.00     0.108 A 
HETATM   21  C13 UNK     1      20.243  -5.951  35.767  1.00  0.00     0.304 A 
HETATM   22  O1  UNK     1      20.275  -7.341  35.836  1.00  0.00    -0.271 OA
HETATM   23  O5  UNK     1      20.313  -5.363  34.692  1.00  0.00    -0.259 OA
HETATM   24  C7  UNK     1      20.194  -8.026  37.064  1.00  0.00     0.123 A 
HETATM   25  C11 UNK     1      20.233  -9.418  37.032  1.00  0.00     0.102 A 
HETATM   26  C4  UNK     1      20.078  -7.323  38.259  1.00  0.00     0.002 A 
HETATM   27  C17 UNK     1      20.154 -10.123  38.231  1.00  0.00     0.040 A 
HETATM   28  C18 UNK     1      20.038  -9.435  39.441  1.00  0.00     0.004 A 
HETATM   29  C12 UNK     1      20.000  -8.038  39.457  1.00  0.00     0.014 A 
HETATM   30  C8  UNK     1      20.044  -5.870  38.220  1.00  0.00     0.037 A 
BRANCH  25  31
HETATM   31  O2  UNK     1      20.346 -10.093  35.858  1.00  0.00    -0.353 OA
HETATM   32  C22 UNK     1      21.625 -10.645  35.546  1.00  0.00     0.210 C 
ENDBRANCH  25  31
ENDBRANCH   3  20
TORSDOF 6
ENDMDL
MODEL 9
REMARK VINA RESULT:      -9.2      8.576     11.825
REMARK  6 active torsions:
REMARK  status: ('A' for Active; 'I' for Inactive)
REMARK    1  A    between atoms: C11_19  and  O2_3 
REMARK    2  A    between atoms: C16_24  and  O3_4 
REMARK       I    between atoms: C10_18  and  N1_8 
REMARK    3  A    between atoms: C3_11  and  N1_8 
REMARK    4  A    between atoms: C1_9  and  C5_13 
REMARK    5  A    between atoms: C16_24  and  C2_10 
REMARK    6  A    between atoms: C10_18  and  C6_14 
ROOT
HETATM    1  O4  UNK     1      27.766  -7.905  39.679  1.00  0.00    -0.267 OA
HETATM    2  N1  UNK     1      27.657  -6.496  37.794  1.00  0.00    -0.316 N 
HETATM    3  C10 UNK     1      27.184  -7.433  38.703  1.00  0.00     0.262 C 
HETATM    4  H3  UNK     1      27.059  -6.215  37.022  1.00  0.00     0.169 HD
ENDROOT
BRANCH   2   5
HETATM    5  C3  UNK     1      28.925  -5.866  37.784  1.00  0.00     0.094 A 
HETATM    6  C2  UNK     1      30.054  -6.210  37.137  1.00  0.00     0.085 A 
HETATM    7  C1  UNK     1      31.096  -5.280  37.420  1.00  0.00    -0.000 A 
HETATM    8  C9  UNK     1      30.680  -4.281  38.271  1.00  0.00     0.065 A 
HETATM    9  S1  UNK     1      29.040  -4.466  38.728  1.00  0.00    -0.082 SA
BRANCH   6  10
HETATM   10  C16 UNK     1      30.171  -7.367  36.283  1.00  0.00     0.296 C 
HETATM   11  O6  UNK     1      30.439  -7.351  35.073  1.00  0.00    -0.259 OA
BRANCH  10  12
HETATM   12  O3  UNK     1      29.947  -8.534  36.975  1.00  0.00    -0.322 OA
HETATM   13  C23 UNK     1      30.994  -8.980  37.846  1.00  0.00     0.213 C 
ENDBRANCH  10  12
ENDBRANCH   6  10
BRANCH   7  14
HETATM   14  C5  UNK     1      32.448  -5.295  36.925  1.00  0.00    -0.024 A 
HETATM   15  C14 UNK     1      32.789  -4.526  35.814  1.00  0.00     0.012 A 
HETATM   16  C19 UNK     1      34.098  -4.540  35.334  1.00  0.00     0.001 A 
HETATM   17  C21 UNK     1      35.065  -5.323  35.967  1.00  0.00     0.000 A 
HETATM   18  C20 UNK     1      34.721  -6.091  37.079  1.00  0.00     0.001 A 
HETATM   19  C15 UNK     1      33.411  -6.077  37.558  1.00  0.00     0.012 A 
ENDBRANCH   7  14
ENDBRANCH   2   5
BRANCH   3  20
HETATM   20  C6  UNK     1      25.815  -7.862  38.393  1.00  0.00     0.108 A 
HETATM   21  C13 UNK     1      25.523  -8.867  37.347  1.00  0.00     0.304 A 
HETATM   22  O1  UNK     1      24.184  -9.192  37.148  1.00  0.00    -0.271 OA
HETATM   23  O5  UNK     1      26.413  -9.392  36.686  1.00  0.00    -0.259 OA
HETATM   24  C7  UNK     1      23.155  -8.595  37.901  1.00  0.00     0.123 A 
HETATM   25  C11 UNK     1      21.845  -8.984  37.628  1.00  0.00     0.102 A 
HETATM   26  C4  UNK     1      23.450  -7.651  38.879  1.00  0.00     0.002 A 
HETATM   27  C17 UNK     1      20.805  -8.411  38.356  1.00  0.00     0.040 A 
HETATM   28  C18 UNK     1      21.082  -7.461  39.342  1.00  0.00     0.004 A 
HETATM   29  C12 UNK     1      22.401  -7.081  39.605  1.00  0.00     0.014 A 
HETATM   30  C8  UNK     1      24.840  -7.292  39.112  1.00  0.00     0.037 A 
BRANCH  25  31
HETATM   31  O2  UNK     1      21.570  -9.907  36.669  1.00  0.00    -0.353 OA
HETATM   32  C22 UNK     1      20.518 -10.833  36.941  1.00  0.00     0.210 C 
ENDBRANCH  25  31
ENDBRANCH   3  20
TORSDOF 6
ENDMDL
MODEL 10
REMARK VINA RESULT:      -9.2      2.247      3.448
REMARK  6 active torsions:
REMARK  status: ('A' for Active; 'I' for Inactive)
REMARK    1  A    between atoms: C11_19  and  O2_3 
REMARK    2  A    between atoms: C16_24  and  O3_4 
REMARK       I    between atoms: C10_18  and  N1_8 
REMARK    3  A    between atoms: C3_11  and  N1_8 
REMARK    4  A    between atoms: C1_9  and  C5_13 
REMARK    5  A    between atoms: C16_24  and  C2_10 
REMARK    6  A    between atoms: C10_18  and  C6_14 
ROOT
HETATM    1  O4  UNK     1      20.433  -4.058  34.529  1.00  0.00    -0.267 OA
HETATM    2  N1  UNK     1      19.867  -3.958  36.813  1.00  0.00    -0.316 N 
HETATM    3  C10 UNK     1      19.965  -3.485  35.512  1.00  0.00     0.262 C 
HETATM    4  H3  UNK     1      19.469  -3.355  37.528  1.00  0.00     0.169 HD
ENDROOT
BRANCH   2   5
HETATM    5  C3  UNK     1      20.286  -5.218  37.308  1.00  0.00     0.094 A 
HETATM    6  C2  UNK     1      19.643  -6.401  37.310  1.00  0.00     0.085 A 
HETATM    7  C1  UNK     1      20.450  -7.407  37.916  1.00  0.00    -0.000 A 
HETATM    8  C9  UNK     1      21.665  -6.912  38.336  1.00  0.00     0.065 A 
HETATM    9  S1  UNK     1      21.829  -5.241  38.002  1.00  0.00    -0.082 SA
BRANCH   6  10
HETATM   10  C16 UNK     1      18.320  -6.599  36.770  1.00  0.00     0.296 C 
HETATM   11  O6  UNK     1      17.255  -6.308  37.334  1.00  0.00    -0.259 OA
BRANCH  10  12
HETATM   12  O3  UNK     1      18.362  -7.165  35.518  1.00  0.00    -0.322 OA
HETATM   13  C23 UNK     1      17.131  -7.687  35.004  1.00  0.00     0.213 C 
ENDBRANCH  10  12
ENDBRANCH   6  10
BRANCH   7  14
HETATM   14  C5  UNK     1      20.126  -8.796  38.111  1.00  0.00    -0.024 A 
HETATM   15  C14 UNK     1      19.704  -9.241  39.362  1.00  0.00     0.012 A 
HETATM   16  C19 UNK     1      19.389 -10.586  39.552  1.00  0.00     0.001 A 
HETATM   17  C21 UNK     1      19.497 -11.484  38.489  1.00  0.00     0.000 A 
HETATM   18  C20 UNK     1      19.919 -11.036  37.238  1.00  0.00     0.001 A 
HETATM   19  C15 UNK     1      20.234  -9.691  37.049  1.00  0.00     0.012 A 
ENDBRANCH   7  14
ENDBRANCH   2   5
BRANCH   3  20
HETATM   20  C6  UNK     1      19.421  -2.129  35.375  1.00  0.00     0.108 A 
HETATM   21  C13 UNK     1      19.469  -1.388  34.094  1.00  0.00     0.304 A 
HETATM   22  O1  UNK     1      18.918  -0.110  34.089  1.00  0.00    -0.271 OA
HETATM   23  O5  UNK     1      19.968  -1.873  33.083  1.00  0.00    -0.259 OA
HETATM   24  C7  UNK     1      18.344   0.456  35.245  1.00  0.00     0.123 A 
HETATM   25  C11 UNK     1      17.820   1.742  35.142  1.00  0.00     0.102 A 
HETATM   26  C4  UNK     1      18.311  -0.256  36.439  1.00  0.00     0.002 A 
HETATM   27  C17 UNK     1      17.246   2.329  36.268  1.00  0.00     0.040 A 
HETATM   28  C18 UNK     1      17.202   1.629  37.476  1.00  0.00     0.004 A 
HETATM   29  C12 UNK     1      17.733   0.339  37.563  1.00  0.00     0.014 A 
HETATM   30  C8  UNK     1      18.876  -1.596  36.475  1.00  0.00     0.037 A 
BRANCH  25  31
HETATM   31  O2  UNK     1      17.859   2.428  33.969  1.00  0.00    -0.353 OA
HETATM   32  C22 UNK     1      18.294   3.786  34.024  1.00  0.00     0.210 C 
ENDBRANCH  25  31
ENDBRANCH   3  20
TORSDOF 6
ENDMDL
