MODEL 1
REMARK VINA RESULT:      -7.8      0.000      0.000
REMARK  1 active torsions:
REMARK  status: ('A' for Active; 'I' for Inactive)
REMARK    1  A    between atoms: C3_7  and  C4_8 
ROOT
HETATM    1 Br1  UNK     1      18.289   1.144  28.947  1.00  0.00    -0.051 Br
HETATM    2  O1  UNK     1      18.955   6.510  31.662  1.00  0.00    -0.309 OA
HETATM    3  O2  UNK     1      17.894   3.331  33.979  1.00  0.00    -0.287 OA
HETATM    4  C1  UNK     1      18.428   4.144  31.826  1.00  0.00     0.049 A 
HETATM    5  C2  UNK     1      18.791   5.272  31.092  1.00  0.00     0.090 A 
HETATM    6  C3  UNK     1      18.740   6.642  33.025  1.00  0.00     0.091 A 
HETATM    7  C5  UNK     1      18.210   4.279  33.274  1.00  0.00     0.187 A 
HETATM    8  C6  UNK     1      18.395   5.631  33.838  1.00  0.00     0.093 A 
HETATM    9  C7  UNK     1      18.277   2.908  31.192  1.00  0.00     0.037 A 
HETATM   10  C8  UNK     1      19.005   5.171  29.717  1.00  0.00     0.039 A 
HETATM   11  C11 UNK     1      18.492   2.809  29.817  1.00  0.00     0.012 A 
HETATM   12  C12 UNK     1      18.855   3.938  29.081  1.00  0.00     0.022 A 
ENDROOT
BRANCH   6  13
HETATM   13  C4  UNK     1      18.948   8.013  33.534  1.00  0.00     0.020 A 
HETATM   14  C10 UNK     1      20.195   8.329  34.085  1.00  0.00     0.016 A 
HETATM   15  C14 UNK     1      20.442   9.610  34.578  1.00  0.00     0.001 A 
HETATM   16  C15 UNK     1      19.444  10.583  34.525  1.00  0.00     0.002 A 
HETATM   17  C13 UNK     1      18.198  10.274  33.977  1.00  0.00     0.025 A 
HETATM   18  C9  UNK     1      17.951   8.993  33.484  1.00  0.00     0.047 A 
HETATM   19 Cl1  UNK     1      16.391   8.665  32.816  1.00  0.00    -0.083 Cl
ENDBRANCH   6  13
TORSDOF 1
ENDMDL
MODEL 2
REMARK VINA RESULT:      -7.8     10.060     11.966
REMARK  1 active torsions:
REMARK  status: ('A' for Active; 'I' for Inactive)
REMARK    1  A    between atoms: C3_7  and  C4_8 
ROOT
HETATM    1 Br1  UNK     1      20.405 -10.521  37.279  1.00  0.00    -0.051 Br
HETATM    2  O1  UNK     1      18.781  -4.738  36.557  1.00  0.00    -0.309 OA
HETATM    3  O2  UNK     1      22.447  -5.491  38.166  1.00  0.00    -0.287 OA
HETATM    4  C1  UNK     1      20.434  -6.361  37.287  1.00  0.00     0.049 A 
HETATM    5  C2  UNK     1      19.194  -6.033  36.741  1.00  0.00     0.090 A 
HETATM    6  C3  UNK     1      19.633  -3.713  36.940  1.00  0.00     0.091 A 
HETATM    7  C5  UNK     1      21.344  -5.276  37.684  1.00  0.00     0.187 A 
HETATM    8  C6  UNK     1      20.852  -3.900  37.470  1.00  0.00     0.093 A 
HETATM    9  C7  UNK     1      20.802  -7.699  37.450  1.00  0.00     0.037 A 
HETATM   10  C8  UNK     1      18.313  -7.043  36.354  1.00  0.00     0.039 A 
HETATM   11  C11 UNK     1      19.920  -8.707  37.063  1.00  0.00     0.012 A 
HETATM   12  C12 UNK     1      18.678  -8.380  36.516  1.00  0.00     0.022 A 
ENDROOT
BRANCH   6  13
HETATM   13  C4  UNK     1      19.092  -2.361  36.693  1.00  0.00     0.020 A 
HETATM   14  C10 UNK     1      18.356  -1.749  37.714  1.00  0.00     0.016 A 
HETATM   15  C14 UNK     1      17.825  -0.472  37.531  1.00  0.00     0.001 A 
HETATM   16  C15 UNK     1      18.026   0.201  36.326  1.00  0.00     0.002 A 
HETATM   17  C13 UNK     1      18.758  -0.403  35.304  1.00  0.00     0.025 A 
HETATM   18  C9  UNK     1      19.290  -1.680  35.486  1.00  0.00     0.047 A 
HETATM   19 Cl1  UNK     1      20.190  -2.381  34.187  1.00  0.00    -0.083 Cl
ENDBRANCH   6  13
TORSDOF 1
ENDMDL
MODEL 3
REMARK VINA RESULT:      -7.8      4.231      6.641
REMARK  1 active torsions:
REMARK  status: ('A' for Active; 'I' for Inactive)
REMARK    1  A    between atoms: C3_7  and  C4_8 
ROOT
HETATM    1 Br1  UNK     1      13.124  12.199  35.728  1.00  0.00    -0.051 Br
HETATM    2  O1  UNK     1      17.423   8.923  33.008  1.00  0.00    -0.309 OA
HETATM    3  O2  UNK     1      13.799   7.165  33.616  1.00  0.00    -0.287 OA
HETATM    4  C1  UNK     1      15.154   9.084  33.861  1.00  0.00     0.049 A 
HETATM    5  C2  UNK     1      16.416   9.625  33.621  1.00  0.00     0.090 A 
HETATM    6  C3  UNK     1      17.173   7.616  32.619  1.00  0.00     0.091 A 
HETATM    7  C5  UNK     1      14.883   7.701  33.440  1.00  0.00     0.187 A 
HETATM    8  C6  UNK     1      15.999   6.987  32.789  1.00  0.00     0.093 A 
HETATM    9  C7  UNK     1      14.166   9.847  34.489  1.00  0.00     0.037 A 
HETATM   10  C8  UNK     1      16.698  10.936  34.010  1.00  0.00     0.039 A 
HETATM   11  C11 UNK     1      14.451  11.156  34.877  1.00  0.00     0.012 A 
HETATM   12  C12 UNK     1      15.714  11.700  34.637  1.00  0.00     0.022 A 
ENDROOT
BRANCH   6  13
HETATM   13  C4  UNK     1      18.321   6.956  31.965  1.00  0.00     0.020 A 
HETATM   14  C10 UNK     1      18.190   6.582  30.624  1.00  0.00     0.016 A 
HETATM   15  C14 UNK     1      19.246   5.957  29.961  1.00  0.00     0.001 A 
HETATM   16  C15 UNK     1      20.440   5.701  30.635  1.00  0.00     0.002 A 
HETATM   17  C13 UNK     1      20.577   6.071  31.973  1.00  0.00     0.025 A 
HETATM   18  C9  UNK     1      19.522   6.697  32.637  1.00  0.00     0.047 A 
HETATM   19 Cl1  UNK     1      19.746   7.135  34.294  1.00  0.00    -0.083 Cl
ENDBRANCH   6  13
TORSDOF 1
ENDMDL
MODEL 4
REMARK VINA RESULT:      -7.5      3.514      6.511
REMARK  1 active torsions:
REMARK  status: ('A' for Active; 'I' for Inactive)
REMARK    1  A    between atoms: C3_7  and  C4_8 
ROOT
HETATM    1 Br1  UNK     1      16.017  12.391  34.845  1.00  0.00    -0.051 Br
HETATM    2  O1  UNK     1      17.101   6.906  32.534  1.00  0.00    -0.309 OA
HETATM    3  O2  UNK     1      20.142   8.769  34.502  1.00  0.00    -0.287 OA
HETATM    4  C1  UNK     1      17.901   8.845  33.759  1.00  0.00     0.049 A 
HETATM    5  C2  UNK     1      16.904   8.151  33.075  1.00  0.00     0.090 A 
HETATM    6  C3  UNK     1      18.350   6.318  32.668  1.00  0.00     0.091 A 
HETATM    7  C5  UNK     1      19.223   8.220  33.912  1.00  0.00     0.187 A 
HETATM    8  C6  UNK     1      19.386   6.882  33.309  1.00  0.00     0.093 A 
HETATM    9  C7  UNK     1      17.643  10.111  34.291  1.00  0.00     0.037 A 
HETATM   10  C8  UNK     1      15.640   8.721  32.917  1.00  0.00     0.039 A 
HETATM   11  C11 UNK     1      16.379  10.679  34.132  1.00  0.00     0.012 A 
HETATM   12  C12 UNK     1      15.380   9.985  33.447  1.00  0.00     0.022 A 
ENDROOT
BRANCH   6  13
HETATM   13  C4  UNK     1      18.451   4.979  32.054  1.00  0.00     0.020 A 
HETATM   14  C10 UNK     1      18.107   3.869  32.834  1.00  0.00     0.016 A 
HETATM   15  C14 UNK     1      18.183   2.583  32.300  1.00  0.00     0.001 A 
HETATM   16  C15 UNK     1      18.605   2.397  30.983  1.00  0.00     0.002 A 
HETATM   17  C13 UNK     1      18.950   3.500  30.201  1.00  0.00     0.025 A 
HETATM   18  C9  UNK     1      18.874   4.786  30.734  1.00  0.00     0.047 A 
HETATM   19 Cl1  UNK     1      19.312   6.116  29.720  1.00  0.00    -0.083 Cl
ENDBRANCH   6  13
TORSDOF 1
ENDMDL
MODEL 5
REMARK VINA RESULT:      -7.5     24.565     25.794
REMARK  1 active torsions:
REMARK  status: ('A' for Active; 'I' for Inactive)
REMARK    1  A    between atoms: C3_7  and  C4_8 
ROOT
HETATM    1 Br1  UNK     1       3.654   3.440  13.213  1.00  0.00    -0.051 Br
HETATM    2  O1  UNK     1       7.859   4.605   9.021  1.00  0.00    -0.309 OA
HETATM    3  O2  UNK     1       6.749   7.649  11.490  1.00  0.00    -0.287 OA
HETATM    4  C1  UNK     1       6.482   5.387  10.863  1.00  0.00     0.049 A 
HETATM    5  C2  UNK     1       6.909   4.390   9.987  1.00  0.00     0.090 A 
HETATM    6  C3  UNK     1       8.411   5.872   8.908  1.00  0.00     0.091 A 
HETATM    7  C5  UNK     1       7.073   6.729  10.753  1.00  0.00     0.187 A 
HETATM    8  C6  UNK     1       8.088   6.910   9.696  1.00  0.00     0.093 A 
HETATM    9  C7  UNK     1       5.512   5.110  11.829  1.00  0.00     0.037 A 
HETATM   10  C8  UNK     1       6.365   3.108  10.071  1.00  0.00     0.039 A 
HETATM   11  C11 UNK     1       4.969   3.827  11.911  1.00  0.00     0.012 A 
HETATM   12  C12 UNK     1       5.395   2.828  11.035  1.00  0.00     0.022 A 
ENDROOT
BRANCH   6  13
HETATM   13  C4  UNK     1       9.425   5.992   7.841  1.00  0.00     0.020 A 
HETATM   14  C10 UNK     1       9.006   6.432   6.581  1.00  0.00     0.016 A 
HETATM   15  C14 UNK     1       9.926   6.562   5.540  1.00  0.00     0.001 A 
HETATM   16  C15 UNK     1      11.269   6.253   5.752  1.00  0.00     0.002 A 
HETATM   17  C13 UNK     1      11.693   5.813   7.007  1.00  0.00     0.025 A 
HETATM   18  C9  UNK     1      10.774   5.682   8.048  1.00  0.00     0.047 A 
HETATM   19 Cl1  UNK     1      11.353   5.134   9.582  1.00  0.00    -0.083 Cl
ENDBRANCH   6  13
TORSDOF 1
ENDMDL
MODEL 6
REMARK VINA RESULT:      -7.4      2.206      3.138
REMARK  1 active torsions:
REMARK  status: ('A' for Active; 'I' for Inactive)
REMARK    1  A    between atoms: C3_7  and  C4_8 
ROOT
HETATM    1 Br1  UNK     1      19.989  -1.655  29.877  1.00  0.00    -0.051 Br
HETATM    2  O1  UNK     1      18.297   4.016  31.130  1.00  0.00    -0.309 OA
HETATM    3  O2  UNK     1      18.647   1.411  34.242  1.00  0.00    -0.287 OA
HETATM    4  C1  UNK     1      18.815   1.777  31.914  1.00  0.00     0.049 A 
HETATM    5  C2  UNK     1      18.677   2.719  30.897  1.00  0.00     0.090 A 
HETATM    6  C3  UNK     1      18.030   4.401  32.436  1.00  0.00     0.091 A 
HETATM    7  C5  UNK     1      18.543   2.184  33.301  1.00  0.00     0.187 A 
HETATM    8  C6  UNK     1      18.133   3.589  33.499  1.00  0.00     0.093 A 
HETATM    9  C7  UNK     1      19.207   0.469  31.617  1.00  0.00     0.037 A 
HETATM   10  C8  UNK     1      18.931   2.359  29.572  1.00  0.00     0.039 A 
HETATM   11  C11 UNK     1      19.460   0.111  30.293  1.00  0.00     0.012 A 
HETATM   12  C12 UNK     1      19.322   1.054  29.273  1.00  0.00     0.022 A 
ENDROOT
BRANCH   6  13
HETATM   13  C4  UNK     1      17.634   5.817  32.574  1.00  0.00     0.020 A 
HETATM   14  C10 UNK     1      16.298   6.154  32.333  1.00  0.00     0.016 A 
HETATM   15  C14 UNK     1      15.874   7.478  32.452  1.00  0.00     0.001 A 
HETATM   16  C15 UNK     1      16.783   8.473  32.811  1.00  0.00     0.002 A 
HETATM   17  C13 UNK     1      18.117   8.143  33.053  1.00  0.00     0.025 A 
HETATM   18  C9  UNK     1      18.542   6.820  32.934  1.00  0.00     0.047 A 
HETATM   19 Cl1  UNK     1      20.206   6.467  33.245  1.00  0.00    -0.083 Cl
ENDBRANCH   6  13
TORSDOF 1
ENDMDL
MODEL 7
REMARK VINA RESULT:      -7.2      2.405      3.699
REMARK  1 active torsions:
REMARK  status: ('A' for Active; 'I' for Inactive)
REMARK    1  A    between atoms: C3_7  and  C4_8 
ROOT
HETATM    1 Br1  UNK     1      19.473  -1.708  31.948  1.00  0.00    -0.051 Br
HETATM    2  O1  UNK     1      17.877   4.018  33.074  1.00  0.00    -0.309 OA
HETATM    3  O2  UNK     1      19.002   3.076  29.274  1.00  0.00    -0.287 OA
HETATM    4  C1  UNK     1      18.645   2.344  31.491  1.00  0.00     0.049 A 
HETATM    5  C2  UNK     1      18.248   2.733  32.769  1.00  0.00     0.090 A 
HETATM    6  C3  UNK     1      17.907   4.970  32.067  1.00  0.00     0.091 A 
HETATM    7  C5  UNK     1      18.668   3.349  30.418  1.00  0.00     0.187 A 
HETATM    8  C6  UNK     1      18.263   4.717  30.798  1.00  0.00     0.093 A 
HETATM    9  C7  UNK     1      19.011   1.019  31.239  1.00  0.00     0.037 A 
HETATM   10  C8  UNK     1      18.216   1.798  33.805  1.00  0.00     0.039 A 
HETATM   11  C11 UNK     1      18.978   0.087  32.276  1.00  0.00     0.012 A 
HETATM   12  C12 UNK     1      18.581   0.475  33.556  1.00  0.00     0.022 A 
ENDROOT
BRANCH   6  13
HETATM   13  C4  UNK     1      17.484   6.317  32.502  1.00  0.00     0.020 A 
HETATM   14  C10 UNK     1      16.123   6.635  32.430  1.00  0.00     0.016 A 
HETATM   15  C14 UNK     1      15.673   7.893  32.831  1.00  0.00     0.001 A 
HETATM   16  C15 UNK     1      16.580   8.841  33.305  1.00  0.00     0.002 A 
HETATM   17  C13 UNK     1      17.938   8.530  33.378  1.00  0.00     0.025 A 
HETATM   18  C9  UNK     1      18.389   7.272  32.978  1.00  0.00     0.047 A 
HETATM   19 Cl1  UNK     1      20.082   6.939  33.091  1.00  0.00    -0.083 Cl
ENDBRANCH   6  13
TORSDOF 1
ENDMDL
MODEL 8
REMARK VINA RESULT:      -7.1      9.571     12.267
REMARK  1 active torsions:
REMARK  status: ('A' for Active; 'I' for Inactive)
REMARK    1  A    between atoms: C3_7  and  C4_8 
ROOT
HETATM    1 Br1  UNK     1      18.182   2.066  35.115  1.00  0.00    -0.051 Br
HETATM    2  O1  UNK     1      19.037  -3.403  37.558  1.00  0.00    -0.309 OA
HETATM    3  O2  UNK     1      20.634  -2.700  33.877  1.00  0.00    -0.287 OA
HETATM    4  C1  UNK     1      19.388  -1.872  35.705  1.00  0.00     0.049 A 
HETATM    5  C2  UNK     1      18.870  -2.178  36.963  1.00  0.00     0.090 A 
HETATM    6  C3  UNK     1      19.746  -4.378  36.874  1.00  0.00     0.091 A 
HETATM    7  C5  UNK     1      20.149  -2.901  34.981  1.00  0.00     0.187 A 
HETATM    8  C6  UNK     1      20.298  -4.203  35.663  1.00  0.00     0.093 A 
HETATM    9  C7  UNK     1      19.187  -0.607  35.148  1.00  0.00     0.037 A 
HETATM   10  C8  UNK     1      18.145  -1.219  37.671  1.00  0.00     0.039 A 
HETATM   11  C11 UNK     1      18.462   0.351  35.858  1.00  0.00     0.012 A 
HETATM   12  C12 UNK     1      17.943   0.045  37.117  1.00  0.00     0.022 A 
ENDROOT
BRANCH   6  13
HETATM   13  C4  UNK     1      19.870  -5.654  37.607  1.00  0.00     0.020 A 
HETATM   14  C10 UNK     1      21.000  -5.845  38.410  1.00  0.00     0.016 A 
HETATM   15  C14 UNK     1      21.163  -7.032  39.124  1.00  0.00     0.001 A 
HETATM   16  C15 UNK     1      20.199  -8.036  39.040  1.00  0.00     0.002 A 
HETATM   17  C13 UNK     1      19.070  -7.852  38.241  1.00  0.00     0.025 A 
HETATM   18  C9  UNK     1      18.906  -6.665  37.527  1.00  0.00     0.047 A 
HETATM   19 Cl1  UNK     1      17.488  -6.489  36.553  1.00  0.00    -0.083 Cl
ENDBRANCH   6  13
TORSDOF 1
ENDMDL
MODEL 9
REMARK VINA RESULT:      -7.0     17.167     18.238
REMARK  1 active torsions:
REMARK  status: ('A' for Active; 'I' for Inactive)
REMARK    1  A    between atoms: C3_7  and  C4_8 
ROOT
HETATM    1 Br1  UNK     1      24.997  -8.024  38.854  1.00  0.00    -0.051 Br
HETATM    2  O1  UNK     1      30.439  -6.529  36.674  1.00  0.00    -0.309 OA
HETATM    3  O2  UNK     1      28.952  -4.307  39.748  1.00  0.00    -0.287 OA
HETATM    4  C1  UNK     1      28.641  -6.109  38.252  1.00  0.00     0.049 A 
HETATM    5  C2  UNK     1      29.209  -6.829  37.203  1.00  0.00     0.090 A 
HETATM    6  C3  UNK     1      31.141  -5.457  37.205  1.00  0.00     0.091 A 
HETATM    7  C5  UNK     1      29.388  -4.979  38.824  1.00  0.00     0.187 A 
HETATM    8  C6  UNK     1      30.704  -4.694  38.219  1.00  0.00     0.093 A 
HETATM    9  C7  UNK     1      27.384  -6.461  38.751  1.00  0.00     0.037 A 
HETATM   10  C8  UNK     1      28.521  -7.907  36.643  1.00  0.00     0.039 A 
HETATM   11  C11 UNK     1      26.698  -7.539  38.190  1.00  0.00     0.012 A 
HETATM   12  C12 UNK     1      27.266  -8.260  37.138  1.00  0.00     0.022 A 
ENDROOT
BRANCH   6  13
HETATM   13  C4  UNK     1      32.453  -5.226  36.567  1.00  0.00     0.020 A 
HETATM   14  C10 UNK     1      32.577  -4.146  35.687  1.00  0.00     0.016 A 
HETATM   15  C14 UNK     1      33.795  -3.885  35.060  1.00  0.00     0.001 A 
HETATM   16  C15 UNK     1      34.898  -4.702  35.309  1.00  0.00     0.002 A 
HETATM   17  C13 UNK     1      34.781  -5.781  36.185  1.00  0.00     0.025 A 
HETATM   18  C9  UNK     1      33.563  -6.043  36.813  1.00  0.00     0.047 A 
HETATM   19 Cl1  UNK     1      33.475  -7.392  37.890  1.00  0.00    -0.083 Cl
ENDBRANCH   6  13
TORSDOF 1
ENDMDL
MODEL 10
REMARK VINA RESULT:      -7.0      3.287      4.886
REMARK  1 active torsions:
REMARK  status: ('A' for Active; 'I' for Inactive)
REMARK    1  A    between atoms: C3_7  and  C4_8 
ROOT
HETATM    1 Br1  UNK     1      19.810   5.101  30.724  1.00  0.00    -0.051 Br
HETATM    2  O1  UNK     1      17.342   9.351  34.253  1.00  0.00    -0.309 OA
HETATM    3  O2  UNK     1      15.199   8.085  31.028  1.00  0.00    -0.287 OA
HETATM    4  C1  UNK     1      17.181   7.912  32.302  1.00  0.00     0.049 A 
HETATM    5  C2  UNK     1      17.860   8.388  33.423  1.00  0.00     0.090 A 
HETATM    6  C3  UNK     1      16.093   9.875  33.957  1.00  0.00     0.091 A 
HETATM    7  C5  UNK     1      15.852   8.459  31.992  1.00  0.00     0.187 A 
HETATM    8  C6  UNK     1      15.341   9.494  32.913  1.00  0.00     0.093 A 
HETATM    9  C7  UNK     1      17.757   6.930  31.493  1.00  0.00     0.037 A 
HETATM   10  C8  UNK     1      19.122   7.885  33.741  1.00  0.00     0.039 A 
HETATM   11  C11 UNK     1      19.019   6.429  31.812  1.00  0.00     0.012 A 
HETATM   12  C12 UNK     1      19.700   6.905  32.934  1.00  0.00     0.022 A 
ENDROOT
BRANCH   6  13
HETATM   13  C4  UNK     1      15.630  10.898  34.917  1.00  0.00     0.020 A 
HETATM   14  C10 UNK     1      14.486  10.622  35.673  1.00  0.00     0.016 A 
HETATM   15  C14 UNK     1      14.009  11.555  36.594  1.00  0.00     0.001 A 
HETATM   16  C15 UNK     1      14.673  12.769  36.765  1.00  0.00     0.002 A 
HETATM   17  C13 UNK     1      15.814  13.051  36.014  1.00  0.00     0.025 A 
HETATM   18  C9  UNK     1      16.292  12.119  35.093  1.00  0.00     0.047 A 
HETATM   19 Cl1  UNK     1      17.711  12.518  34.190  1.00  0.00    -0.083 Cl
ENDBRANCH   6  13
TORSDOF 1
ENDMDL
