MODEL 1
REMARK VINA RESULT:      -8.9      0.000      0.000
REMARK  5 active torsions:
REMARK  status: ('A' for Active; 'I' for Inactive)
REMARK    1  A    between atoms: C14_20  and  N1_5 
REMARK    2  A    between atoms: C4_10  and  N1_5 
REMARK    3  A    between atoms: C14_20  and  N2_6 
REMARK    4  A    between atoms: C7_13  and  N2_6 
REMARK    5  A    between atoms: C2_8  and  C5_11 
ROOT
HETATM    1  N2  UNK     1      19.136   3.803  29.961  1.00  0.00    -0.333 N 
HETATM    2  H8  UNK     1      19.649   4.088  29.129  1.00  0.00     0.168 HD
ENDROOT
BRANCH   1   3
HETATM    3  C14 UNK     1      18.843   2.433  29.985  1.00  0.00     0.176 C 
HETATM    4  S1  UNK     1      17.902   1.820  28.729  1.00  0.00    -0.041 SA
BRANCH   3   5
HETATM    5  N1  UNK     1      19.462   1.703  30.985  1.00  0.00    -0.333 N 
HETATM    6  H7  UNK     1      20.348   1.312  30.701  1.00  0.00     0.168 HD
BRANCH   5   7
HETATM    7  C4  UNK     1      18.931   1.045  32.123  1.00  0.00     0.040 A 
HETATM    8  C12 UNK     1      18.304   1.810  33.093  1.00  0.00     0.031 A 
HETATM    9  C18 UNK     1      17.778   1.181  34.221  1.00  0.00     0.021 A 
HETATM   10  C17 UNK     1      17.885  -0.202  34.363  1.00  0.00     0.011 A 
HETATM   11 Br1  UNK     1      17.172  -1.054  35.892  1.00  0.00    -0.051 Br
HETATM   12  C11 UNK     1      18.520  -0.957  33.377  1.00  0.00     0.028 A 
HETATM   13  C2  UNK     1      19.047  -0.328  32.248  1.00  0.00    -0.030 A 
BRANCH  13  14
HETATM   14  C5  UNK     1      19.722  -1.161  31.206  1.00  0.00     0.036 C 
HETATM   15  C15 UNK     1      20.721  -2.142  31.810  1.00  0.00     0.010 C 
ENDBRANCH  13  14
ENDBRANCH   5   7
ENDBRANCH   3   5
ENDBRANCH   1   3
BRANCH   1  16
HETATM   16  C7  UNK     1      19.042   4.794  30.937  1.00  0.00     0.036 A 
HETATM   17  C10 UNK     1      20.183   5.481  31.348  1.00  0.00     0.030 A 
HETATM   18  C9  UNK     1      20.096   6.477  32.328  1.00  0.00     0.017 A 
HETATM   19  C1  UNK     1      18.863   6.799  32.913  1.00  0.00     0.004 A 
HETATM   20  C3  UNK     1      17.738   6.095  32.482  1.00  0.00     0.092 A 
HETATM   21  C6  UNK     1      18.696   7.830  33.946  1.00  0.00    -0.043 A 
HETATM   22  O1  UNK     1      16.463   6.360  33.021  1.00  0.00    -0.275 OA
HETATM   23  C8  UNK     1      17.809   5.100  31.505  1.00  0.00     0.067 A 
HETATM   24  C19 UNK     1      16.274   7.327  33.996  1.00  0.00     0.288 A 
HETATM   25  C13 UNK     1      17.471   8.061  34.440  1.00  0.00     0.090 A 
HETATM   26  O2  UNK     1      15.169   7.565  34.471  1.00  0.00    -0.260 OA
HETATM   27  C16 UNK     1      19.887   8.605  34.430  1.00  0.00     0.049 C 
ENDBRANCH   1  16
TORSDOF 5
ENDMDL
MODEL 2
REMARK VINA RESULT:      -8.7      7.987     12.369
REMARK  5 active torsions:
REMARK  status: ('A' for Active; 'I' for Inactive)
REMARK    1  A    between atoms: C14_20  and  N1_5 
REMARK    2  A    between atoms: C4_10  and  N1_5 
REMARK    3  A    between atoms: C14_20  and  N2_6 
REMARK    4  A    between atoms: C7_13  and  N2_6 
REMARK    5  A    between atoms: C2_8  and  C5_11 
ROOT
HETATM    1  N2  UNK     1      19.006  -4.719  36.088  1.00  0.00    -0.333 N 
HETATM    2  H8  UNK     1      18.075  -4.547  35.712  1.00  0.00     0.168 HD
ENDROOT
BRANCH   1   3
HETATM    3  C14 UNK     1      19.708  -3.543  36.380  1.00  0.00     0.176 C 
HETATM    4  S1  UNK     1      20.978  -3.652  37.482  1.00  0.00    -0.041 SA
BRANCH   3   5
HETATM    5  N1  UNK     1      19.355  -2.431  35.635  1.00  0.00    -0.333 N 
HETATM    6  H7  UNK     1      18.559  -1.937  36.011  1.00  0.00     0.168 HD
BRANCH   5   7
HETATM    7  C4  UNK     1      19.585  -2.111  34.274  1.00  0.00     0.040 A 
HETATM    8  C12 UNK     1      20.647  -2.718  33.623  1.00  0.00     0.031 A 
HETATM    9  C18 UNK     1      20.890  -2.413  32.285  1.00  0.00     0.021 A 
HETATM   10  C17 UNK     1      20.069  -1.507  31.614  1.00  0.00     0.011 A 
HETATM   11 Br1  UNK     1      20.399  -1.094  29.800  1.00  0.00    -0.051 Br
HETATM   12  C11 UNK     1      19.003  -0.904  32.284  1.00  0.00     0.028 A 
HETATM   13  C2  UNK     1      18.760  -1.209  33.624  1.00  0.00    -0.030 A 
BRANCH  13  14
HETATM   14  C5  UNK     1      17.612  -0.549  34.317  1.00  0.00     0.036 C 
HETATM   15  C15 UNK     1      17.791   0.962  34.419  1.00  0.00     0.010 C 
ENDBRANCH  13  14
ENDBRANCH   5   7
ENDBRANCH   3   5
ENDBRANCH   1   3
BRANCH   1  16
HETATM   16  C7  UNK     1      19.254  -6.056  36.400  1.00  0.00     0.036 A 
HETATM   17  C10 UNK     1      18.635  -6.643  37.503  1.00  0.00     0.030 A 
HETATM   18  C9  UNK     1      18.880  -7.983  37.823  1.00  0.00     0.017 A 
HETATM   19  C1  UNK     1      19.751  -8.757  37.043  1.00  0.00     0.004 A 
HETATM   20  C3  UNK     1      20.357  -8.143  35.946  1.00  0.00     0.092 A 
HETATM   21  C6  UNK     1      20.056 -10.167  37.319  1.00  0.00    -0.043 A 
HETATM   22  O1  UNK     1      21.245  -8.853  35.113  1.00  0.00    -0.275 OA
HETATM   23  C8  UNK     1      20.121  -6.807  35.614  1.00  0.00     0.067 A 
HETATM   24  C19 UNK     1      21.552 -10.184  35.348  1.00  0.00     0.288 A 
HETATM   25  C13 UNK     1      20.904 -10.817  36.509  1.00  0.00     0.090 A 
HETATM   26  O2  UNK     1      22.323 -10.811  34.629  1.00  0.00    -0.260 OA
HETATM   27  C16 UNK     1      19.420 -10.856  38.491  1.00  0.00     0.049 C 
ENDBRANCH   1  16
TORSDOF 5
ENDMDL
MODEL 3
REMARK VINA RESULT:      -8.6      3.868      7.973
REMARK  5 active torsions:
REMARK  status: ('A' for Active; 'I' for Inactive)
REMARK    1  A    between atoms: C14_20  and  N1_5 
REMARK    2  A    between atoms: C4_10  and  N1_5 
REMARK    3  A    between atoms: C14_20  and  N2_6 
REMARK    4  A    between atoms: C7_13  and  N2_6 
REMARK    5  A    between atoms: C2_8  and  C5_11 
ROOT
HETATM    1  N2  UNK     1      17.631   4.213  31.714  1.00  0.00    -0.333 N 
HETATM    2  H8  UNK     1      16.613   4.204  31.705  1.00  0.00     0.168 HD
ENDROOT
BRANCH   1   3
HETATM    3  C14 UNK     1      18.166   5.355  32.323  1.00  0.00     0.176 C 
HETATM    4  S1  UNK     1      19.432   6.135  31.531  1.00  0.00    -0.041 SA
BRANCH   3   5
HETATM    5  N1  UNK     1      17.514   5.791  33.463  1.00  0.00    -0.333 N 
HETATM    6  H7  UNK     1      17.296   5.044  34.107  1.00  0.00     0.168 HD
BRANCH   5   7
HETATM    7  C4  UNK     1      16.724   6.944  33.701  1.00  0.00     0.040 A 
HETATM    8  C12 UNK     1      15.470   7.016  33.119  1.00  0.00     0.031 A 
HETATM    9  C18 UNK     1      14.680   8.144  33.339  1.00  0.00     0.021 A 
HETATM   10  C17 UNK     1      15.155   9.183  34.139  1.00  0.00     0.011 A 
HETATM   11 Br1  UNK     1      14.084  10.711  34.437  1.00  0.00    -0.051 Br
HETATM   12  C11 UNK     1      16.421   9.095  34.719  1.00  0.00     0.028 A 
HETATM   13  C2  UNK     1      17.212   7.966  34.497  1.00  0.00    -0.030 A 
BRANCH  13  14
HETATM   14  C5  UNK     1      18.564   7.897  35.130  1.00  0.00     0.036 C 
HETATM   15  C15 UNK     1      19.601   8.712  34.366  1.00  0.00     0.010 C 
ENDBRANCH  13  14
ENDBRANCH   5   7
ENDBRANCH   3   5
ENDBRANCH   1   3
BRANCH   1  16
HETATM   16  C7  UNK     1      18.214   3.013  31.308  1.00  0.00     0.036 A 
HETATM   17  C10 UNK     1      18.539   2.812  29.967  1.00  0.00     0.030 A 
HETATM   18  C9  UNK     1      19.123   1.609  29.552  1.00  0.00     0.017 A 
HETATM   19  C1  UNK     1      19.389   0.588  30.474  1.00  0.00     0.004 A 
HETATM   20  C3  UNK     1      19.052   0.817  31.810  1.00  0.00     0.092 A 
HETATM   21  C6  UNK     1      19.998  -0.699  30.112  1.00  0.00    -0.043 A 
HETATM   22  O1  UNK     1      19.287  -0.160  32.798  1.00  0.00    -0.275 OA
HETATM   23  C8  UNK     1      18.470   2.011  32.238  1.00  0.00     0.067 A 
HETATM   24  C19 UNK     1      19.860  -1.384  32.486  1.00  0.00     0.288 A 
HETATM   25  C13 UNK     1      20.210  -1.609  31.074  1.00  0.00     0.090 A 
HETATM   26  O2  UNK     1      20.069  -2.241  33.338  1.00  0.00    -0.260 OA
HETATM   27  C16 UNK     1      20.372  -0.975  28.685  1.00  0.00     0.049 C 
ENDBRANCH   1  16
TORSDOF 5
ENDMDL
MODEL 4
REMARK VINA RESULT:      -8.6      7.989     12.309
REMARK  5 active torsions:
REMARK  status: ('A' for Active; 'I' for Inactive)
REMARK    1  A    between atoms: C14_20  and  N1_5 
REMARK    2  A    between atoms: C4_10  and  N1_5 
REMARK    3  A    between atoms: C14_20  and  N2_6 
REMARK    4  A    between atoms: C7_13  and  N2_6 
REMARK    5  A    between atoms: C2_8  and  C5_11 
ROOT
HETATM    1  N2  UNK     1      19.013  -4.763  36.087  1.00  0.00    -0.333 N 
HETATM    2  H8  UNK     1      18.005  -4.667  35.982  1.00  0.00     0.168 HD
ENDROOT
BRANCH   1   3
HETATM    3  C14 UNK     1      19.654  -3.555  36.389  1.00  0.00     0.176 C 
HETATM    4  S1  UNK     1      20.900  -3.601  37.521  1.00  0.00    -0.041 SA
BRANCH   3   5
HETATM    5  N1  UNK     1      19.268  -2.464  35.630  1.00  0.00    -0.333 N 
HETATM    6  H7  UNK     1      18.434  -2.013  35.977  1.00  0.00     0.168 HD
BRANCH   5   7
HETATM    7  C4  UNK     1      19.526  -2.132  34.276  1.00  0.00     0.040 A 
HETATM    8  C12 UNK     1      20.599  -2.738  33.642  1.00  0.00     0.031 A 
HETATM    9  C18 UNK     1      20.871  -2.422  32.312  1.00  0.00     0.021 A 
HETATM   10  C17 UNK     1      20.067  -1.507  31.633  1.00  0.00     0.011 A 
HETATM   11 Br1  UNK     1      20.436  -1.079  29.830  1.00  0.00    -0.051 Br
HETATM   12  C11 UNK     1      18.990  -0.906  32.286  1.00  0.00     0.028 A 
HETATM   13  C2  UNK     1      18.719  -1.221  33.618  1.00  0.00    -0.030 A 
BRANCH  13  14
HETATM   14  C5  UNK     1      17.559  -0.563  34.294  1.00  0.00     0.036 C 
HETATM   15  C15 UNK     1      17.838   0.900  34.624  1.00  0.00     0.010 C 
ENDBRANCH  13  14
ENDBRANCH   5   7
ENDBRANCH   3   5
ENDBRANCH   1   3
BRANCH   1  16
HETATM   16  C7  UNK     1      19.458  -6.085  36.105  1.00  0.00     0.036 A 
HETATM   17  C10 UNK     1      20.279  -6.561  35.084  1.00  0.00     0.030 A 
HETATM   18  C9  UNK     1      20.728  -7.886  35.095  1.00  0.00     0.017 A 
HETATM   19  C1  UNK     1      20.361  -8.757  36.130  1.00  0.00     0.004 A 
HETATM   20  C3  UNK     1      19.539  -8.254  37.139  1.00  0.00     0.092 A 
HETATM   21  C6  UNK     1      20.794 -10.159  36.208  1.00  0.00    -0.043 A 
HETATM   22  O1  UNK     1      19.125  -9.065  38.214  1.00  0.00    -0.275 OA
HETATM   23  C8  UNK     1      19.083  -6.934  37.141  1.00  0.00     0.067 A 
HETATM   24  C19 UNK     1      19.517 -10.392  38.314  1.00  0.00     0.288 A 
HETATM   25  C13 UNK     1      20.385 -10.907  37.243  1.00  0.00     0.090 A 
HETATM   26  O2  UNK     1      19.163 -11.107  39.246  1.00  0.00    -0.260 OA
HETATM   27  C16 UNK     1      21.679 -10.730  35.139  1.00  0.00     0.049 C 
ENDBRANCH   1  16
TORSDOF 5
ENDMDL
MODEL 5
REMARK VINA RESULT:      -8.2      3.911      8.086
REMARK  5 active torsions:
REMARK  status: ('A' for Active; 'I' for Inactive)
REMARK    1  A    between atoms: C14_20  and  N1_5 
REMARK    2  A    between atoms: C4_10  and  N1_5 
REMARK    3  A    between atoms: C14_20  and  N2_6 
REMARK    4  A    between atoms: C7_13  and  N2_6 
REMARK    5  A    between atoms: C2_8  and  C5_11 
ROOT
HETATM    1  N2  UNK     1      17.788   3.816  31.444  1.00  0.00    -0.333 N 
HETATM    2  H8  UNK     1      16.785   3.792  31.617  1.00  0.00     0.168 HD
ENDROOT
BRANCH   1   3
HETATM    3  C14 UNK     1      18.358   5.073  31.682  1.00  0.00     0.176 C 
HETATM    4  S1  UNK     1      19.338   5.720  30.474  1.00  0.00    -0.041 SA
BRANCH   3   5
HETATM    5  N1  UNK     1      17.957   5.705  32.846  1.00  0.00    -0.333 N 
HETATM    6  H7  UNK     1      17.407   5.112  33.451  1.00  0.00     0.168 HD
BRANCH   5   7
HETATM    7  C4  UNK     1      17.783   7.079  33.147  1.00  0.00     0.040 A 
HETATM    8  C12 UNK     1      18.838   7.765  33.729  1.00  0.00     0.031 A 
HETATM    9  C18 UNK     1      18.685   9.116  34.035  1.00  0.00     0.021 A 
HETATM   10  C17 UNK     1      17.482   9.764  33.756  1.00  0.00     0.011 A 
HETATM   11 Br1  UNK     1      17.275  11.596  34.171  1.00  0.00    -0.051 Br
HETATM   12  C11 UNK     1      16.430   9.059  33.171  1.00  0.00     0.028 A 
HETATM   13  C2  UNK     1      16.582   7.706  32.864  1.00  0.00    -0.030 A 
BRANCH  13  14
HETATM   14  C5  UNK     1      15.440   6.974  32.238  1.00  0.00     0.036 C 
HETATM   15  C15 UNK     1      14.092   7.430  32.786  1.00  0.00     0.010 C 
ENDBRANCH  13  14
ENDBRANCH   5   7
ENDBRANCH   3   5
ENDBRANCH   1   3
BRANCH   1  16
HETATM   16  C7  UNK     1      18.355   2.562  31.218  1.00  0.00     0.036 A 
HETATM   17  C10 UNK     1      18.755   2.197  29.934  1.00  0.00     0.030 A 
HETATM   18  C9  UNK     1      19.323   0.939  29.699  1.00  0.00     0.017 A 
HETATM   19  C1  UNK     1      19.500   0.027  30.749  1.00  0.00     0.004 A 
HETATM   20  C3  UNK     1      19.090   0.420  32.024  1.00  0.00     0.092 A 
HETATM   21  C6  UNK     1      20.088  -1.308  30.578  1.00  0.00    -0.043 A 
HETATM   22  O1  UNK     1      19.232  -0.440  33.132  1.00  0.00    -0.275 OA
HETATM   23  C8  UNK     1      18.521   1.670  32.273  1.00  0.00     0.067 A 
HETATM   24  C19 UNK     1      19.784  -1.705  33.001  1.00  0.00     0.288 A 
HETATM   25  C13 UNK     1      20.212  -2.104  31.650  1.00  0.00     0.090 A 
HETATM   26  O2  UNK     1      19.913  -2.461  33.958  1.00  0.00    -0.260 OA
HETATM   27  C16 UNK     1      20.539  -1.760  29.220  1.00  0.00     0.049 C 
ENDBRANCH   1  16
TORSDOF 5
ENDMDL
MODEL 6
REMARK VINA RESULT:      -8.2      8.011     12.338
REMARK  5 active torsions:
REMARK  status: ('A' for Active; 'I' for Inactive)
REMARK    1  A    between atoms: C14_20  and  N1_5 
REMARK    2  A    between atoms: C4_10  and  N1_5 
REMARK    3  A    between atoms: C14_20  and  N2_6 
REMARK    4  A    between atoms: C7_13  and  N2_6 
REMARK    5  A    between atoms: C2_8  and  C5_11 
ROOT
HETATM    1  N2  UNK     1      18.373  -4.805  36.514  1.00  0.00    -0.333 N 
HETATM    2  H8  UNK     1      17.356  -4.842  36.552  1.00  0.00     0.168 HD
ENDROOT
BRANCH   1   3
HETATM    3  C14 UNK     1      18.889  -3.534  36.799  1.00  0.00     0.176 C 
HETATM    4  S1  UNK     1      20.538  -3.423  37.125  1.00  0.00    -0.041 SA
BRANCH   3   5
HETATM    5  N1  UNK     1      18.001  -2.481  36.665  1.00  0.00    -0.333 N 
HETATM    6  H7  UNK     1      17.057  -2.721  36.929  1.00  0.00     0.168 HD
BRANCH   5   7
HETATM    7  C4  UNK     1      18.047  -1.323  35.849  1.00  0.00     0.040 A 
HETATM    8  C12 UNK     1      18.451  -1.460  34.531  1.00  0.00     0.031 A 
HETATM    9  C18 UNK     1      18.505  -0.332  33.713  1.00  0.00     0.021 A 
HETATM   10  C17 UNK     1      18.153   0.918  34.224  1.00  0.00     0.011 A 
HETATM   11 Br1  UNK     1      18.227   2.446  33.116  1.00  0.00    -0.051 Br
HETATM   12  C11 UNK     1      17.748   1.039  35.554  1.00  0.00     0.028 A 
HETATM   13  C2  UNK     1      17.695  -0.091  36.372  1.00  0.00    -0.030 A 
BRANCH  13  14
HETATM   14  C5  UNK     1      17.257   0.067  37.792  1.00  0.00     0.036 C 
HETATM   15  C15 UNK     1      17.660   1.418  38.373  1.00  0.00     0.010 C 
ENDBRANCH  13  14
ENDBRANCH   5   7
ENDBRANCH   3   5
ENDBRANCH   1   3
BRANCH   1  16
HETATM   16  C7  UNK     1      18.983  -6.054  36.394  1.00  0.00     0.036 A 
HETATM   17  C10 UNK     1      19.899  -6.289  35.370  1.00  0.00     0.030 A 
HETATM   18  C9  UNK     1      20.514  -7.540  35.243  1.00  0.00     0.017 A 
HETATM   19  C1  UNK     1      20.219  -8.576  36.139  1.00  0.00     0.004 A 
HETATM   20  C3  UNK     1      19.299  -8.312  37.155  1.00  0.00     0.092 A 
HETATM   21  C6  UNK     1      20.825  -9.913  36.067  1.00  0.00    -0.043 A 
HETATM   22  O1  UNK     1      18.949  -9.301  38.096  1.00  0.00    -0.275 OA
HETATM   23  C8  UNK     1      18.678  -7.069  37.294  1.00  0.00     0.067 A 
HETATM   24  C19 UNK     1      19.504 -10.571  38.053  1.00  0.00     0.288 A 
HETATM   25  C13 UNK     1      20.474 -10.833  36.977  1.00  0.00     0.090 A 
HETATM   26  O2  UNK     1      19.207 -11.439  38.867  1.00  0.00    -0.260 OA
HETATM   27  C16 UNK     1      21.819 -10.227  34.988  1.00  0.00     0.049 C 
ENDBRANCH   1  16
TORSDOF 5
ENDMDL
MODEL 7
REMARK VINA RESULT:      -8.1      4.086      8.225
REMARK  5 active torsions:
REMARK  status: ('A' for Active; 'I' for Inactive)
REMARK    1  A    between atoms: C14_20  and  N1_5 
REMARK    2  A    between atoms: C4_10  and  N1_5 
REMARK    3  A    between atoms: C14_20  and  N2_6 
REMARK    4  A    between atoms: C7_13  and  N2_6 
REMARK    5  A    between atoms: C2_8  and  C5_11 
ROOT
HETATM    1  N2  UNK     1      17.622   4.358  32.048  1.00  0.00    -0.333 N 
HETATM    2  H8  UNK     1      16.606   4.413  32.055  1.00  0.00     0.168 HD
ENDROOT
BRANCH   1   3
HETATM    3  C14 UNK     1      18.242   5.579  32.345  1.00  0.00     0.176 C 
HETATM    4  S1  UNK     1      19.428   6.125  31.279  1.00  0.00    -0.041 SA
BRANCH   3   5
HETATM    5  N1  UNK     1      17.726   6.268  33.429  1.00  0.00    -0.333 N 
HETATM    6  H7  UNK     1      17.129   5.700  34.013  1.00  0.00     0.168 HD
BRANCH   5   7
HETATM    7  C4  UNK     1      17.508   7.653  33.634  1.00  0.00     0.040 A 
HETATM    8  C12 UNK     1      18.611   8.478  33.792  1.00  0.00     0.031 A 
HETATM    9  C18 UNK     1      18.417   9.843  33.998  1.00  0.00     0.021 A 
HETATM   10  C17 UNK     1      17.124  10.366  34.042  1.00  0.00     0.011 A 
HETATM   11 Br1  UNK     1      16.862  12.216  34.320  1.00  0.00    -0.051 Br
HETATM   12  C11 UNK     1      16.025   9.522  33.881  1.00  0.00     0.028 A 
HETATM   13  C2  UNK     1      16.219   8.155  33.675  1.00  0.00    -0.030 A 
BRANCH  13  14
HETATM   14  C5  UNK     1      15.024   7.274  33.506  1.00  0.00     0.036 C 
HETATM   15  C15 UNK     1      14.557   7.207  32.056  1.00  0.00     0.010 C 
ENDBRANCH  13  14
ENDBRANCH   5   7
ENDBRANCH   3   5
ENDBRANCH   1   3
BRANCH   1  16
HETATM   16  C7  UNK     1      18.120   3.059  31.949  1.00  0.00     0.036 A 
HETATM   17  C10 UNK     1      18.122   2.224  33.065  1.00  0.00     0.030 A 
HETATM   18  C9  UNK     1      18.622   0.920  32.973  1.00  0.00     0.017 A 
HETATM   19  C1  UNK     1      19.128   0.431  31.761  1.00  0.00     0.004 A 
HETATM   20  C3  UNK     1      19.113   1.290  30.660  1.00  0.00     0.092 A 
HETATM   21  C6  UNK     1      19.668  -0.924  31.591  1.00  0.00    -0.043 A 
HETATM   22  O1  UNK     1      19.605   0.874  29.407  1.00  0.00    -0.275 OA
HETATM   23  C8  UNK     1      18.618   2.593  30.737  1.00  0.00     0.067 A 
HETATM   24  C19 UNK     1      20.120  -0.399  29.215  1.00  0.00     0.288 A 
HETATM   25  C13 UNK     1      20.128  -1.292  30.386  1.00  0.00     0.090 A 
HETATM   26  O2  UNK     1      20.550  -0.771  28.128  1.00  0.00    -0.260 OA
HETATM   27  C16 UNK     1      19.697  -1.871  32.755  1.00  0.00     0.049 C 
ENDBRANCH   1  16
TORSDOF 5
ENDMDL
MODEL 8
REMARK VINA RESULT:      -8.1      5.447      8.223
REMARK  5 active torsions:
REMARK  status: ('A' for Active; 'I' for Inactive)
REMARK    1  A    between atoms: C14_20  and  N1_5 
REMARK    2  A    between atoms: C4_10  and  N1_5 
REMARK    3  A    between atoms: C14_20  and  N2_6 
REMARK    4  A    between atoms: C7_13  and  N2_6 
REMARK    5  A    between atoms: C2_8  and  C5_11 
ROOT
HETATM    1  N2  UNK     1      19.134  -2.358  34.928  1.00  0.00    -0.333 N 
HETATM    2  H8  UNK     1      18.169  -2.260  35.237  1.00  0.00     0.168 HD
ENDROOT
BRANCH   1   3
HETATM    3  C14 UNK     1      19.898  -3.188  35.759  1.00  0.00     0.176 C 
HETATM    4  S1  UNK     1      21.264  -2.516  36.481  1.00  0.00    -0.041 SA
BRANCH   3   5
HETATM    5  N1  UNK     1      19.377  -4.448  35.992  1.00  0.00    -0.333 N 
HETATM    6  H7  UNK     1      18.609  -4.446  36.648  1.00  0.00     0.168 HD
BRANCH   5   7
HETATM    7  C4  UNK     1      19.956  -5.735  35.855  1.00  0.00     0.040 A 
HETATM    8  C12 UNK     1      20.014  -6.302  34.592  1.00  0.00     0.031 A 
HETATM    9  C18 UNK     1      20.578  -7.568  34.438  1.00  0.00     0.021 A 
HETATM   10  C17 UNK     1      21.075  -8.250  35.549  1.00  0.00     0.011 A 
HETATM   11 Br1  UNK     1      21.838  -9.966  35.340  1.00  0.00    -0.051 Br
HETATM   12  C11 UNK     1      21.009  -7.665  36.814  1.00  0.00     0.028 A 
HETATM   13  C2  UNK     1      20.444  -6.398  36.968  1.00  0.00    -0.030 A 
BRANCH  13  14
HETATM   14  C5  UNK     1      20.385  -5.795  38.334  1.00  0.00     0.036 C 
HETATM   15  C15 UNK     1      20.057  -6.828  39.407  1.00  0.00     0.010 C 
ENDBRANCH  13  14
ENDBRANCH   5   7
ENDBRANCH   3   5
ENDBRANCH   1   3
BRANCH   1  16
HETATM   16  C7  UNK     1      19.385  -1.815  33.668  1.00  0.00     0.036 A 
HETATM   17  C10 UNK     1      20.242  -2.467  32.783  1.00  0.00     0.030 A 
HETATM   18  C9  UNK     1      20.499  -1.928  31.517  1.00  0.00     0.017 A 
HETATM   19  C1  UNK     1      19.901  -0.725  31.118  1.00  0.00     0.004 A 
HETATM   20  C3  UNK     1      19.047  -0.094  32.024  1.00  0.00     0.092 A 
HETATM   21  C6  UNK     1      20.123  -0.100  29.807  1.00  0.00    -0.043 A 
HETATM   22  O1  UNK     1      18.407   1.119  31.698  1.00  0.00    -0.275 OA
HETATM   23  C8  UNK     1      18.782  -0.620  33.290  1.00  0.00     0.067 A 
HETATM   24  C19 UNK     1      18.599   1.732  30.469  1.00  0.00     0.288 A 
HETATM   25  C13 UNK     1      19.501   1.054  29.525  1.00  0.00     0.090 A 
HETATM   26  O2  UNK     1      18.046   2.788  30.176  1.00  0.00    -0.260 OA
HETATM   27  C16 UNK     1      21.035  -0.754  28.811  1.00  0.00     0.049 C 
ENDBRANCH   1  16
TORSDOF 5
ENDMDL
MODEL 9
REMARK VINA RESULT:      -7.9      2.933      4.277
REMARK  5 active torsions:
REMARK  status: ('A' for Active; 'I' for Inactive)
REMARK    1  A    between atoms: C14_20  and  N1_5 
REMARK    2  A    between atoms: C4_10  and  N1_5 
REMARK    3  A    between atoms: C14_20  and  N2_6 
REMARK    4  A    between atoms: C7_13  and  N2_6 
REMARK    5  A    between atoms: C2_8  and  C5_11 
ROOT
HETATM    1  N2  UNK     1      18.204   5.740  32.964  1.00  0.00    -0.333 N 
HETATM    2  H8  UNK     1      18.473   5.127  33.730  1.00  0.00     0.168 HD
ENDROOT
BRANCH   1   3
HETATM    3  C14 UNK     1      18.357   5.147  31.704  1.00  0.00     0.176 C 
HETATM    4  S1  UNK     1      19.309   5.960  30.575  1.00  0.00    -0.041 SA
BRANCH   3   5
HETATM    5  N1  UNK     1      17.802   3.888  31.560  1.00  0.00    -0.333 N 
HETATM    6  H7  UNK     1      16.977   3.751  32.125  1.00  0.00     0.168 HD
BRANCH   5   7
HETATM    7  C4  UNK     1      18.375   2.658  31.149  1.00  0.00     0.040 A 
HETATM    8  C12 UNK     1      18.689   2.492  29.809  1.00  0.00     0.031 A 
HETATM    9  C18 UNK     1      19.250   1.289  29.385  1.00  0.00     0.021 A 
HETATM   10  C17 UNK     1      19.492   0.268  30.305  1.00  0.00     0.011 A 
HETATM   11 Br1  UNK     1      20.253  -1.362  29.730  1.00  0.00    -0.051 Br
HETATM   12  C11 UNK     1      19.170   0.452  31.650  1.00  0.00     0.028 A 
HETATM   13  C2  UNK     1      18.607   1.656  32.075  1.00  0.00    -0.030 A 
BRANCH  13  14
HETATM   14  C5  UNK     1      18.271   1.826  33.521  1.00  0.00     0.036 C 
HETATM   15  C15 UNK     1      17.928   0.501  34.194  1.00  0.00     0.010 C 
ENDBRANCH  13  14
ENDBRANCH   5   7
ENDBRANCH   3   5
ENDBRANCH   1   3
BRANCH   1  16
HETATM   16  C7  UNK     1      17.570   6.914  33.371  1.00  0.00     0.036 A 
HETATM   17  C10 UNK     1      16.252   6.877  33.823  1.00  0.00     0.030 A 
HETATM   18  C9  UNK     1      15.610   8.051  34.232  1.00  0.00     0.017 A 
HETATM   19  C1  UNK     1      16.278   9.282  34.194  1.00  0.00     0.004 A 
HETATM   20  C3  UNK     1      17.597   9.290  33.737  1.00  0.00     0.092 A 
HETATM   21  C6  UNK     1      15.668  10.554  34.607  1.00  0.00    -0.043 A 
HETATM   22  O1  UNK     1      18.337  10.487  33.668  1.00  0.00    -0.275 OA
HETATM   23  C8  UNK     1      18.251   8.126  33.326  1.00  0.00     0.067 A 
HETATM   24  C19 UNK     1      17.788  11.702  34.051  1.00  0.00     0.288 A 
HETATM   25  C13 UNK     1      16.397  11.677  34.531  1.00  0.00     0.090 A 
HETATM   26  O2  UNK     1      18.424  12.749  33.995  1.00  0.00    -0.260 OA
HETATM   27  C16 UNK     1      14.252  10.579  35.103  1.00  0.00     0.049 C 
ENDBRANCH   1  16
TORSDOF 5
ENDMDL
MODEL 10
REMARK VINA RESULT:      -7.9      7.209     11.301
REMARK  5 active torsions:
REMARK  status: ('A' for Active; 'I' for Inactive)
REMARK    1  A    between atoms: C14_20  and  N1_5 
REMARK    2  A    between atoms: C4_10  and  N1_5 
REMARK    3  A    between atoms: C14_20  and  N2_6 
REMARK    4  A    between atoms: C7_13  and  N2_6 
REMARK    5  A    between atoms: C2_8  and  C5_11 
ROOT
HETATM    1  N2  UNK     1      19.041  -3.769  36.312  1.00  0.00    -0.333 N 
HETATM    2  H8  UNK     1      18.067  -3.850  36.597  1.00  0.00     0.168 HD
ENDROOT
BRANCH   1   3
HETATM    3  C14 UNK     1      19.389  -2.477  35.899  1.00  0.00     0.176 C 
HETATM    4  S1  UNK     1      21.027  -2.151  35.675  1.00  0.00    -0.041 SA
BRANCH   3   5
HETATM    5  N1  UNK     1      18.332  -1.634  35.605  1.00  0.00    -0.333 N 
HETATM    6  H7  UNK     1      17.481  -2.128  35.378  1.00  0.00     0.168 HD
BRANCH   5   7
HETATM    7  C4  UNK     1      18.310  -0.295  35.140  1.00  0.00     0.040 A 
HETATM    8  C12 UNK     1      18.289   0.727  36.074  1.00  0.00     0.031 A 
HETATM    9  C18 UNK     1      18.264   2.051  35.636  1.00  0.00     0.021 A 
HETATM   10  C17 UNK     1      18.262   2.334  34.270  1.00  0.00     0.011 A 
HETATM   11 Br1  UNK     1      18.228   4.127  33.676  1.00  0.00    -0.051 Br
HETATM   12  C11 UNK     1      18.284   1.292  33.342  1.00  0.00     0.028 A 
HETATM   13  C2  UNK     1      18.308  -0.033  33.781  1.00  0.00    -0.030 A 
BRANCH  13  14
HETATM   14  C5  UNK     1      18.331  -1.129  32.766  1.00  0.00     0.036 C 
HETATM   15  C15 UNK     1      19.627  -1.145  31.962  1.00  0.00     0.010 C 
ENDBRANCH  13  14
ENDBRANCH   5   7
ENDBRANCH   3   5
ENDBRANCH   1   3
BRANCH   1  16
HETATM   16  C7  UNK     1      19.811  -4.897  36.598  1.00  0.00     0.036 A 
HETATM   17  C10 UNK     1      20.458  -5.008  37.828  1.00  0.00     0.030 A 
HETATM   18  C9  UNK     1      21.234  -6.135  38.121  1.00  0.00     0.017 A 
HETATM   19  C1  UNK     1      21.374  -7.170  37.186  1.00  0.00     0.004 A 
HETATM   20  C3  UNK     1      20.715  -7.032  35.963  1.00  0.00     0.092 A 
HETATM   21  C6  UNK     1      22.171  -8.381  37.424  1.00  0.00    -0.043 A 
HETATM   22  O1  UNK     1      20.806  -8.027  34.970  1.00  0.00    -0.275 OA
HETATM   23  C8  UNK     1      19.938  -5.913  35.657  1.00  0.00     0.067 A 
HETATM   24  C19 UNK     1      21.551  -9.181  35.166  1.00  0.00     0.288 A 
HETATM   25  C13 UNK     1      22.239  -9.312  36.461  1.00  0.00     0.090 A 
HETATM   26  O2  UNK     1      21.637 -10.053  34.308  1.00  0.00    -0.260 OA
HETATM   27  C16 UNK     1      22.891  -8.560  38.729  1.00  0.00     0.049 C 
ENDBRANCH   1  16
TORSDOF 5
ENDMDL
