MODEL 1
REMARK VINA RESULT:      -8.0      0.000      0.000
REMARK  4 active torsions:
REMARK  status: ('A' for Active; 'I' for Inactive)
REMARK    1  A    between atoms: C14_19  and  O3_3 
REMARK    2  A    between atoms: C1_6  and  N1_5 
REMARK       I    between atoms: C5_10  and  N1_5 
REMARK    3  A    between atoms: C1_6  and  C2_7 
REMARK    4  A    between atoms: C5_10  and  C6_11 
ROOT
HETATM    1  C1  UNK     1      18.784   5.653  31.961  1.00  0.00     0.092 C 
HETATM    2  C3  UNK     1      17.834   5.470  33.155  1.00  0.00     0.053 C 
HETATM    3  C7  UNK     1      20.053   6.240  32.445  1.00  0.00    -0.086 C 
HETATM    4  C16 UNK     1      21.082   6.716  32.841  1.00  0.00     0.015 C 
ENDROOT
BRANCH   1   5
HETATM    5  N1  UNK     1      19.051   4.355  31.385  1.00  0.00    -0.337 N 
HETATM    6  C5  UNK     1      18.050   3.483  30.996  1.00  0.00     0.259 C 
HETATM    7  O2  UNK     1      16.839   3.682  31.082  1.00  0.00    -0.267 OA
HETATM    8  H3  UNK     1      20.022   4.068  31.300  1.00  0.00     0.164 HD
BRANCH   6   9
HETATM    9  C6  UNK     1      18.570   2.229  30.437  1.00  0.00     0.108 A 
HETATM   10  C11 UNK     1      18.581   1.964  28.981  1.00  0.00     0.304 A 
HETATM   11  O1  UNK     1      19.100   0.739  28.572  1.00  0.00    -0.274 OA
HETATM   12  O4  UNK     1      18.156   2.780  28.170  1.00  0.00    -0.259 OA
HETATM   13  C10 UNK     1      19.591  -0.205  29.496  1.00  0.00     0.089 A 
HETATM   14  C13 UNK     1      20.093  -1.404  28.992  1.00  0.00     0.041 A 
HETATM   15  C8  UNK     1      19.571   0.065  30.861  1.00  0.00     0.002 A 
HETATM   16  C15 UNK     1      20.585  -2.357  29.881  1.00  0.00     0.039 A 
HETATM   17  C14 UNK     1      20.572  -2.104  31.254  1.00  0.00     0.069 A 
HETATM   18  C12 UNK     1      20.067  -0.896  31.745  1.00  0.00     0.051 A 
HETATM   19  C9  UNK     1      19.035   1.337  31.319  1.00  0.00     0.037 A 
BRANCH  17  20
HETATM   20  O3  UNK     1      21.055  -3.039  32.121  1.00  0.00    -0.356 OA
HETATM   21  C17 UNK     1      20.854  -2.797  33.512  1.00  0.00     0.210 C 
ENDBRANCH  17  20
ENDBRANCH   6   9
ENDBRANCH   1   5
BRANCH   1  22
HETATM   22  C2  UNK     1      18.114   6.580  30.919  1.00  0.00     0.040 C 
HETATM   23  C4  UNK     1      17.055   7.521  31.488  1.00  0.00     0.009 C 
ENDBRANCH   1  22
TORSDOF 4
ENDMDL
MODEL 2
REMARK VINA RESULT:      -8.0     21.829     24.094
REMARK  4 active torsions:
REMARK  status: ('A' for Active; 'I' for Inactive)
REMARK    1  A    between atoms: C14_19  and  O3_3 
REMARK    2  A    between atoms: C1_6  and  N1_5 
REMARK       I    between atoms: C5_10  and  N1_5 
REMARK    3  A    between atoms: C1_6  and  C2_7 
REMARK    4  A    between atoms: C5_10  and  C6_11 
ROOT
HETATM    1  C1  UNK     1      16.157   8.090  10.166  1.00  0.00     0.092 C 
HETATM    2  C3  UNK     1      17.171   6.952   9.966  1.00  0.00     0.053 C 
HETATM    3  C7  UNK     1      16.752   9.353   9.679  1.00  0.00    -0.086 C 
HETATM    4  C16 UNK     1      17.239  10.377   9.282  1.00  0.00     0.015 C 
ENDROOT
BRANCH   1   5
HETATM    5  N1  UNK     1      14.976   7.791   9.389  1.00  0.00    -0.337 N 
HETATM    6  C5  UNK     1      14.242   6.629   9.549  1.00  0.00     0.259 C 
HETATM    7  O2  UNK     1      14.482   5.722  10.344  1.00  0.00    -0.267 OA
HETATM    8  H3  UNK     1      14.703   8.457   8.671  1.00  0.00     0.164 HD
BRANCH   6   9
HETATM    9  C6  UNK     1      13.085   6.556   8.648  1.00  0.00     0.108 A 
HETATM   10  C11 UNK     1      13.204   6.809   7.195  1.00  0.00     0.304 A 
HETATM   11  O1  UNK     1      12.036   6.709   6.445  1.00  0.00    -0.274 OA
HETATM   12  O4  UNK     1      14.277   7.091   6.672  1.00  0.00    -0.259 OA
HETATM   13  C10 UNK     1      10.799   6.385   7.036  1.00  0.00     0.089 A 
HETATM   14  C13 UNK     1       9.684   6.307   6.204  1.00  0.00     0.041 A 
HETATM   15  C8  UNK     1      10.709   6.152   8.405  1.00  0.00     0.002 A 
HETATM   16  C15 UNK     1       8.447   5.989   6.759  1.00  0.00     0.039 A 
HETATM   17  C14 UNK     1       8.337   5.752   8.131  1.00  0.00     0.069 A 
HETATM   18  C12 UNK     1       9.464   5.832   8.954  1.00  0.00     0.051 A 
HETATM   19  C9  UNK     1      11.913   6.248   9.215  1.00  0.00     0.037 A 
BRANCH  17  20
HETATM   20  O3  UNK     1       7.125   5.441   8.671  1.00  0.00    -0.356 OA
HETATM   21  C17 UNK     1       7.098   4.397   9.643  1.00  0.00     0.210 C 
ENDBRANCH  17  20
ENDBRANCH   6   9
ENDBRANCH   1   5
BRANCH   1  22
HETATM   22  C2  UNK     1      15.804   8.194  11.668  1.00  0.00     0.040 C 
HETATM   23  C4  UNK     1      14.763   9.257  12.008  1.00  0.00     0.009 C 
ENDBRANCH   1  22
TORSDOF 4
ENDMDL
MODEL 3
REMARK VINA RESULT:      -7.8      3.247      4.388
REMARK  4 active torsions:
REMARK  status: ('A' for Active; 'I' for Inactive)
REMARK    1  A    between atoms: C14_19  and  O3_3 
REMARK    2  A    between atoms: C1_6  and  N1_5 
REMARK       I    between atoms: C5_10  and  N1_5 
REMARK    3  A    between atoms: C1_6  and  C2_7 
REMARK    4  A    between atoms: C5_10  and  C6_11 
ROOT
HETATM    1  C1  UNK     1      16.864   7.367  32.707  1.00  0.00     0.092 C 
HETATM    2  C3  UNK     1      16.765   7.632  31.196  1.00  0.00     0.053 C 
HETATM    3  C7  UNK     1      15.580   7.734  33.342  1.00  0.00    -0.086 C 
HETATM    4  C16 UNK     1      14.536   8.033  33.855  1.00  0.00     0.015 C 
ENDROOT
BRANCH   1   5
HETATM    5  N1  UNK     1      17.108   5.957  32.909  1.00  0.00    -0.337 N 
HETATM    6  C5  UNK     1      18.208   5.300  32.388  1.00  0.00     0.259 C 
HETATM    7  O2  UNK     1      19.099   5.804  31.706  1.00  0.00    -0.267 OA
HETATM    8  H3  UNK     1      16.413   5.429  33.430  1.00  0.00     0.164 HD
BRANCH   6   9
HETATM    9  C6  UNK     1      18.237   3.873  32.733  1.00  0.00     0.108 A 
HETATM   10  C11 UNK     1      18.254   2.816  31.698  1.00  0.00     0.304 A 
HETATM   11  O1  UNK     1      18.281   1.499  32.149  1.00  0.00    -0.274 OA
HETATM   12  O4  UNK     1      18.245   3.081  30.501  1.00  0.00    -0.259 OA
HETATM   13  C10 UNK     1      18.292   1.185  33.522  1.00  0.00     0.089 A 
HETATM   14  C13 UNK     1      18.321  -0.162  33.878  1.00  0.00     0.041 A 
HETATM   15  C8  UNK     1      18.276   2.195  34.479  1.00  0.00     0.002 A 
HETATM   16  C15 UNK     1      18.333  -0.505  35.228  1.00  0.00     0.039 A 
HETATM   17  C14 UNK     1      18.316   0.495  36.202  1.00  0.00     0.069 A 
HETATM   18  C12 UNK     1      18.288   1.843  35.831  1.00  0.00     0.051 A 
HETATM   19  C9  UNK     1      18.248   3.581  34.038  1.00  0.00     0.037 A 
BRANCH  17  20
HETATM   20  O3  UNK     1      18.327   0.156  37.522  1.00  0.00    -0.356 OA
HETATM   21  C17 UNK     1      18.055  -1.207  37.843  1.00  0.00     0.210 C 
ENDBRANCH  17  20
ENDBRANCH   6   9
ENDBRANCH   1   5
BRANCH   1  22
HETATM   22  C2  UNK     1      18.024   8.206  33.292  1.00  0.00     0.040 C 
HETATM   23  C4  UNK     1      18.319   7.950  34.768  1.00  0.00     0.009 C 
ENDBRANCH   1  22
TORSDOF 4
ENDMDL
MODEL 4
REMARK VINA RESULT:      -7.8      3.340      4.213
REMARK  4 active torsions:
REMARK  status: ('A' for Active; 'I' for Inactive)
REMARK    1  A    between atoms: C14_19  and  O3_3 
REMARK    2  A    between atoms: C1_6  and  N1_5 
REMARK       I    between atoms: C5_10  and  N1_5 
REMARK    3  A    between atoms: C1_6  and  C2_7 
REMARK    4  A    between atoms: C5_10  and  C6_11 
ROOT
HETATM    1  C1  UNK     1      17.530   7.610  33.758  1.00  0.00     0.092 C 
HETATM    2  C3  UNK     1      16.480   8.060  34.785  1.00  0.00     0.053 C 
HETATM    3  C7  UNK     1      18.839   8.192  34.125  1.00  0.00    -0.086 C 
HETATM    4  C16 UNK     1      19.901   8.666  34.426  1.00  0.00     0.015 C 
ENDROOT
BRANCH   1   5
HETATM    5  N1  UNK     1      17.623   6.168  33.800  1.00  0.00    -0.337 N 
HETATM    6  C5  UNK     1      18.434   5.439  32.949  1.00  0.00     0.259 C 
HETATM    7  O2  UNK     1      19.163   5.898  32.071  1.00  0.00    -0.267 OA
HETATM    8  H3  UNK     1      17.032   5.678  34.467  1.00  0.00     0.164 HD
BRANCH   6   9
HETATM    9  C6  UNK     1      18.358   3.993  33.188  1.00  0.00     0.108 A 
HETATM   10  C11 UNK     1      18.250   3.019  32.079  1.00  0.00     0.304 A 
HETATM   11  O1  UNK     1      18.186   1.674  32.433  1.00  0.00    -0.274 OA
HETATM   12  O4  UNK     1      18.218   3.373  30.906  1.00  0.00    -0.259 OA
HETATM   13  C10 UNK     1      18.222   1.256  33.778  1.00  0.00     0.089 A 
HETATM   14  C13 UNK     1      18.153  -0.112  34.034  1.00  0.00     0.041 A 
HETATM   15  C8  UNK     1      18.324   2.189  34.805  1.00  0.00     0.002 A 
HETATM   16  C15 UNK     1      18.186  -0.555  35.354  1.00  0.00     0.039 A 
HETATM   17  C14 UNK     1      18.288   0.366  36.398  1.00  0.00     0.069 A 
HETATM   18  C12 UNK     1      18.357   1.736  36.126  1.00  0.00     0.051 A 
HETATM   19  C9  UNK     1      18.393   3.603  34.468  1.00  0.00     0.037 A 
BRANCH  17  20
HETATM   20  O3  UNK     1      18.320  -0.071  37.688  1.00  0.00    -0.356 OA
HETATM   21  C17 UNK     1      18.219  -1.478  37.898  1.00  0.00     0.210 C 
ENDBRANCH  17  20
ENDBRANCH   6   9
ENDBRANCH   1   5
BRANCH   1  22
HETATM   22  C2  UNK     1      17.096   8.083  32.351  1.00  0.00     0.040 C 
HETATM   23  C4  UNK     1      15.688   7.659  31.940  1.00  0.00     0.009 C 
ENDBRANCH   1  22
TORSDOF 4
ENDMDL
MODEL 5
REMARK VINA RESULT:      -7.7      4.783      9.700
REMARK  4 active torsions:
REMARK  status: ('A' for Active; 'I' for Inactive)
REMARK    1  A    between atoms: C14_19  and  O3_3 
REMARK    2  A    between atoms: C1_6  and  N1_5 
REMARK       I    between atoms: C5_10  and  N1_5 
REMARK    3  A    between atoms: C1_6  and  C2_7 
REMARK    4  A    between atoms: C5_10  and  C6_11 
ROOT
HETATM    1  C1  UNK     1      19.015  -5.939  36.704  1.00  0.00     0.092 C 
HETATM    2  C3  UNK     1      17.664  -6.643  36.905  1.00  0.00     0.053 C 
HETATM    3  C7  UNK     1      19.686  -6.520  35.521  1.00  0.00    -0.086 C 
HETATM    4  C16 UNK     1      20.228  -6.993  34.559  1.00  0.00     0.015 C 
ENDROOT
BRANCH   1   5
HETATM    5  N1  UNK     1      18.770  -4.535  36.470  1.00  0.00    -0.337 N 
HETATM    6  C5  UNK     1      19.782  -3.596  36.385  1.00  0.00     0.259 C 
HETATM    7  O2  UNK     1      20.987  -3.815  36.493  1.00  0.00    -0.267 OA
HETATM    8  H3  UNK     1      17.802  -4.231  36.401  1.00  0.00     0.164 HD
BRANCH   6   9
HETATM    9  C6  UNK     1      19.282  -2.238  36.139  1.00  0.00     0.108 A 
HETATM   10  C11 UNK     1      18.780  -1.376  37.232  1.00  0.00     0.304 A 
HETATM   11  O1  UNK     1      18.332  -0.108  36.873  1.00  0.00    -0.274 OA
HETATM   12  O4  UNK     1      18.757  -1.755  38.398  1.00  0.00    -0.259 OA
HETATM   13  C10 UNK     1      18.354   0.337  35.536  1.00  0.00     0.089 A 
HETATM   14  C13 UNK     1      17.886   1.624  35.274  1.00  0.00     0.041 A 
HETATM   15  C8  UNK     1      18.830  -0.490  34.524  1.00  0.00     0.002 A 
HETATM   16  C15 UNK     1      17.895   2.092  33.962  1.00  0.00     0.039 A 
HETATM   17  C14 UNK     1      18.368   1.276  32.932  1.00  0.00     0.069 A 
HETATM   18  C12 UNK     1      18.836  -0.012  33.211  1.00  0.00     0.051 A 
HETATM   19  C9  UNK     1      19.305  -1.821  34.867  1.00  0.00     0.037 A 
BRANCH  17  20
HETATM   20  O3  UNK     1      18.376   1.737  31.650  1.00  0.00    -0.356 OA
HETATM   21  C17 UNK     1      18.248   3.146  31.468  1.00  0.00     0.210 C 
ENDBRANCH  17  20
ENDBRANCH   6   9
ENDBRANCH   1   5
BRANCH   1  22
HETATM   22  C2  UNK     1      19.879  -6.132  37.973  1.00  0.00     0.040 C 
HETATM   23  C4  UNK     1      19.704  -7.481  38.666  1.00  0.00     0.009 C 
ENDBRANCH   1  22
TORSDOF 4
ENDMDL
MODEL 6
REMARK VINA RESULT:      -7.6      3.508      7.377
REMARK  4 active torsions:
REMARK  status: ('A' for Active; 'I' for Inactive)
REMARK    1  A    between atoms: C14_19  and  O3_3 
REMARK    2  A    between atoms: C1_6  and  N1_5 
REMARK       I    between atoms: C5_10  and  N1_5 
REMARK    3  A    between atoms: C1_6  and  C2_7 
REMARK    4  A    between atoms: C5_10  and  C6_11 
ROOT
HETATM    1  C1  UNK     1      17.305  -0.101  35.631  1.00  0.00     0.092 C 
HETATM    2  C3  UNK     1      16.295  -1.005  34.908  1.00  0.00     0.053 C 
HETATM    3  C7  UNK     1      18.592  -0.821  35.750  1.00  0.00    -0.086 C 
HETATM    4  C16 UNK     1      19.635  -1.408  35.845  1.00  0.00     0.015 C 
ENDROOT
BRANCH   1   5
HETATM    5  N1  UNK     1      17.500   1.092  34.839  1.00  0.00    -0.337 N 
HETATM    6  C5  UNK     1      18.147   1.088  33.616  1.00  0.00     0.259 C 
HETATM    7  O2  UNK     1      18.628   0.107  33.052  1.00  0.00    -0.267 OA
HETATM    8  H3  UNK     1      17.173   1.973  35.227  1.00  0.00     0.164 HD
BRANCH   6   9
HETATM    9  C6  UNK     1      18.217   2.420  33.004  1.00  0.00     0.108 A 
HETATM   10  C11 UNK     1      18.293   2.607  31.537  1.00  0.00     0.304 A 
HETATM   11  O1  UNK     1      18.356   3.919  31.077  1.00  0.00    -0.274 OA
HETATM   12  O4  UNK     1      18.300   1.657  30.763  1.00  0.00    -0.259 OA
HETATM   13  C10 UNK     1      18.348   5.018  31.959  1.00  0.00     0.089 A 
HETATM   14  C13 UNK     1      18.413   6.295  31.404  1.00  0.00     0.041 A 
HETATM   15  C8  UNK     1      18.277   4.819  33.334  1.00  0.00     0.002 A 
HETATM   16  C15 UNK     1      18.407   7.400  32.251  1.00  0.00     0.039 A 
HETATM   17  C14 UNK     1      18.337   7.221  33.634  1.00  0.00     0.069 A 
HETATM   18  C12 UNK     1      18.271   5.934  34.176  1.00  0.00     0.051 A 
HETATM   19  C9  UNK     1      18.210   3.460  33.846  1.00  0.00     0.037 A 
BRANCH  17  20
HETATM   20  O3  UNK     1      18.332   8.305  34.459  1.00  0.00    -0.356 OA
HETATM   21  C17 UNK     1      18.160   9.583  33.849  1.00  0.00     0.210 C 
ENDBRANCH  17  20
ENDBRANCH   6   9
ENDBRANCH   1   5
BRANCH   1  22
HETATM   22  C2  UNK     1      16.749   0.262  37.028  1.00  0.00     0.040 C 
HETATM   23  C4  UNK     1      17.608   1.242  37.823  1.00  0.00     0.009 C 
ENDBRANCH   1  22
TORSDOF 4
ENDMDL
MODEL 7
REMARK VINA RESULT:      -7.5     21.927     24.181
REMARK  4 active torsions:
REMARK  status: ('A' for Active; 'I' for Inactive)
REMARK    1  A    between atoms: C14_19  and  O3_3 
REMARK    2  A    between atoms: C1_6  and  N1_5 
REMARK       I    between atoms: C5_10  and  N1_5 
REMARK    3  A    between atoms: C1_6  and  C2_7 
REMARK    4  A    between atoms: C5_10  and  C6_11 
ROOT
HETATM    1  C1  UNK     1      10.119   6.056   8.169  1.00  0.00     0.092 C 
HETATM    2  C3  UNK     1      10.309   7.463   8.756  1.00  0.00     0.053 C 
HETATM    3  C7  UNK     1      11.418   5.348   8.193  1.00  0.00    -0.086 C 
HETATM    4  C16 UNK     1      12.474   4.776   8.214  1.00  0.00     0.015 C 
ENDROOT
BRANCH   1   5
HETATM    5  N1  UNK     1       9.173   5.340   8.994  1.00  0.00    -0.337 N 
HETATM    6  C5  UNK     1       7.852   5.728   9.137  1.00  0.00     0.259 C 
HETATM    7  O2  UNK     1       7.319   6.699   8.603  1.00  0.00    -0.267 OA
HETATM    8  H3  UNK     1       9.515   4.538   9.515  1.00  0.00     0.164 HD
BRANCH   6   9
HETATM    9  C6  UNK     1       7.090   4.841  10.023  1.00  0.00     0.108 A 
HETATM   10  C11 UNK     1       6.601   3.517   9.578  1.00  0.00     0.304 A 
HETATM   11  O1  UNK     1       5.889   2.767  10.510  1.00  0.00    -0.274 OA
HETATM   12  O4  UNK     1       6.811   3.096   8.446  1.00  0.00    -0.259 OA
HETATM   13  C10 UNK     1       5.643   3.242  11.814  1.00  0.00     0.089 A 
HETATM   14  C13 UNK     1       4.922   2.419  12.677  1.00  0.00     0.041 A 
HETATM   15  C8  UNK     1       6.111   4.490  12.211  1.00  0.00     0.002 A 
HETATM   16  C15 UNK     1       4.663   2.860  13.972  1.00  0.00     0.039 A 
HETATM   17  C14 UNK     1       5.124   4.111  14.389  1.00  0.00     0.069 A 
HETATM   18  C12 UNK     1       5.847   4.925  13.512  1.00  0.00     0.051 A 
HETATM   19  C9  UNK     1       6.859   5.297  11.260  1.00  0.00     0.037 A 
BRANCH  17  20
HETATM   20  O3  UNK     1       4.868   4.540  15.657  1.00  0.00    -0.356 OA
HETATM   21  C17 UNK     1       5.434   3.781  16.724  1.00  0.00     0.210 C 
ENDBRANCH  17  20
ENDBRANCH   6   9
ENDBRANCH   1   5
BRANCH   1  22
HETATM   22  C2  UNK     1       9.589   6.180   6.721  1.00  0.00     0.040 C 
HETATM   23  C4  UNK     1      10.552   6.849   5.743  1.00  0.00     0.009 C 
ENDBRANCH   1  22
TORSDOF 4
ENDMDL
MODEL 8
REMARK VINA RESULT:      -7.4      4.914      9.756
REMARK  4 active torsions:
REMARK  status: ('A' for Active; 'I' for Inactive)
REMARK    1  A    between atoms: C14_19  and  O3_3 
REMARK    2  A    between atoms: C1_6  and  N1_5 
REMARK       I    between atoms: C5_10  and  N1_5 
REMARK    3  A    between atoms: C1_6  and  C2_7 
REMARK    4  A    between atoms: C5_10  and  C6_11 
ROOT
HETATM    1  C1  UNK     1      19.319  -6.445  36.948  1.00  0.00     0.092 C 
HETATM    2  C3  UNK     1      20.418  -6.988  36.022  1.00  0.00     0.053 C 
HETATM    3  C7  UNK     1      19.798  -6.505  38.346  1.00  0.00    -0.086 C 
HETATM    4  C16 UNK     1      20.191  -6.555  39.480  1.00  0.00     0.015 C 
ENDROOT
BRANCH   1   5
HETATM    5  N1  UNK     1      19.061  -5.068  36.594  1.00  0.00    -0.337 N 
HETATM    6  C5  UNK     1      20.027  -4.079  36.655  1.00  0.00     0.259 C 
HETATM    7  O2  UNK     1      21.196  -4.228  37.007  1.00  0.00    -0.267 OA
HETATM    8  H3  UNK     1      18.113  -4.821  36.322  1.00  0.00     0.164 HD
BRANCH   6   9
HETATM    9  C6  UNK     1      19.525  -2.763  36.243  1.00  0.00     0.108 A 
HETATM   10  C11 UNK     1      18.978  -1.792  37.216  1.00  0.00     0.304 A 
HETATM   11  O1  UNK     1      18.532  -0.576  36.704  1.00  0.00    -0.274 OA
HETATM   12  O4  UNK     1      18.919  -2.039  38.415  1.00  0.00    -0.259 OA
HETATM   13  C10 UNK     1      18.597  -0.282  35.327  1.00  0.00     0.089 A 
HETATM   14  C13 UNK     1      18.128   0.961  34.908  1.00  0.00     0.041 A 
HETATM   15  C8  UNK     1      19.114  -1.211  34.429  1.00  0.00     0.002 A 
HETATM   16  C15 UNK     1      18.178   1.281  33.553  1.00  0.00     0.039 A 
HETATM   17  C14 UNK     1      18.693   0.361  32.637  1.00  0.00     0.069 A 
HETATM   18  C12 UNK     1      19.162  -0.882  33.072  1.00  0.00     0.051 A 
HETATM   19  C9  UNK     1      19.588  -2.490  34.935  1.00  0.00     0.037 A 
BRANCH  17  20
HETATM   20  O3  UNK     1      18.741   0.677  31.313  1.00  0.00    -0.356 OA
HETATM   21  C17 UNK     1      19.891   0.248  30.585  1.00  0.00     0.210 C 
ENDBRANCH  17  20
ENDBRANCH   6   9
ENDBRANCH   1   5
BRANCH   1  22
HETATM   22  C2  UNK     1      18.041  -7.297  36.770  1.00  0.00     0.040 C 
HETATM   23  C4  UNK     1      17.491  -7.336  35.346  1.00  0.00     0.009 C 
ENDBRANCH   1  22
TORSDOF 4
ENDMDL
MODEL 9
REMARK VINA RESULT:      -7.4      5.692     10.110
REMARK  4 active torsions:
REMARK  status: ('A' for Active; 'I' for Inactive)
REMARK    1  A    between atoms: C14_19  and  O3_3 
REMARK    2  A    between atoms: C1_6  and  N1_5 
REMARK       I    between atoms: C5_10  and  N1_5 
REMARK    3  A    between atoms: C1_6  and  C2_7 
REMARK    4  A    between atoms: C5_10  and  C6_11 
ROOT
HETATM    1  C1  UNK     1      19.598  -6.847  36.770  1.00  0.00     0.092 C 
HETATM    2  C3  UNK     1      20.858  -7.362  36.057  1.00  0.00     0.053 C 
HETATM    3  C7  UNK     1      19.855  -6.805  38.226  1.00  0.00    -0.086 C 
HETATM    4  C16 UNK     1      20.068  -6.771  39.408  1.00  0.00     0.015 C 
ENDROOT
BRANCH   1   5
HETATM    5  N1  UNK     1      19.321  -5.509  36.298  1.00  0.00    -0.337 N 
HETATM    6  C5  UNK     1      20.203  -4.456  36.455  1.00  0.00     0.259 C 
HETATM    7  O2  UNK     1      21.306  -4.507  36.997  1.00  0.00    -0.267 OA
HETATM    8  H3  UNK     1      18.417  -5.341  35.864  1.00  0.00     0.164 HD
BRANCH   6   9
HETATM    9  C6  UNK     1      19.698  -3.198  35.890  1.00  0.00     0.108 A 
HETATM   10  C11 UNK     1      20.089  -2.730  34.542  1.00  0.00     0.304 A 
HETATM   11  O1  UNK     1      19.543  -1.522  34.117  1.00  0.00    -0.274 OA
HETATM   12  O4  UNK     1      20.854  -3.371  33.830  1.00  0.00    -0.259 OA
HETATM   13  C10 UNK     1      18.663  -0.779  34.927  1.00  0.00     0.089 A 
HETATM   14  C13 UNK     1      18.167   0.419  34.415  1.00  0.00     0.041 A 
HETATM   15  C8  UNK     1      18.309  -1.237  36.192  1.00  0.00     0.002 A 
HETATM   16  C15 UNK     1      17.294   1.177  35.193  1.00  0.00     0.039 A 
HETATM   17  C14 UNK     1      16.928   0.733  36.466  1.00  0.00     0.069 A 
HETATM   18  C12 UNK     1      17.433  -0.471  36.966  1.00  0.00     0.051 A 
HETATM   19  C9  UNK     1      18.863  -2.496  36.665  1.00  0.00     0.037 A 
BRANCH  17  20
HETATM   20  O3  UNK     1      16.075   1.477  37.224  1.00  0.00    -0.356 OA
HETATM   21  C17 UNK     1      14.681   1.344  36.949  1.00  0.00     0.210 C 
ENDBRANCH  17  20
ENDBRANCH   6   9
ENDBRANCH   1   5
BRANCH   1  22
HETATM   22  C2  UNK     1      18.415  -7.790  36.450  1.00  0.00     0.040 C 
HETATM   23  C4  UNK     1      17.485  -7.297  35.343  1.00  0.00     0.009 C 
ENDBRANCH   1  22
TORSDOF 4
ENDMDL
MODEL 10
REMARK VINA RESULT:      -7.4      2.395      3.396
REMARK  4 active torsions:
REMARK  status: ('A' for Active; 'I' for Inactive)
REMARK    1  A    between atoms: C14_19  and  O3_3 
REMARK    2  A    between atoms: C1_6  and  N1_5 
REMARK       I    between atoms: C5_10  and  N1_5 
REMARK    3  A    between atoms: C1_6  and  C2_7 
REMARK    4  A    between atoms: C5_10  and  C6_11 
ROOT
HETATM    1  C1  UNK     1      18.336   8.323  34.037  1.00  0.00     0.092 C 
HETATM    2  C3  UNK     1      17.711   7.887  35.371  1.00  0.00     0.053 C 
HETATM    3  C7  UNK     1      19.636   8.974  34.307  1.00  0.00    -0.086 C 
HETATM    4  C16 UNK     1      20.692   9.502  34.530  1.00  0.00     0.015 C 
ENDROOT
BRANCH   1   5
HETATM    5  N1  UNK     1      18.554   7.146  33.227  1.00  0.00    -0.337 N 
HETATM    6  C5  UNK     1      17.526   6.324  32.799  1.00  0.00     0.259 C 
HETATM    7  O2  UNK     1      16.329   6.475  33.038  1.00  0.00    -0.267 OA
HETATM    8  H3  UNK     1      19.513   6.902  32.999  1.00  0.00     0.164 HD
BRANCH   6   9
HETATM    9  C6  UNK     1      17.998   5.195  31.988  1.00  0.00     0.108 A 
HETATM   10  C11 UNK     1      18.488   5.374  30.604  1.00  0.00     0.304 A 
HETATM   11  O1  UNK     1      18.909   4.227  29.937  1.00  0.00    -0.274 OA
HETATM   12  O4  UNK     1      18.525   6.475  30.066  1.00  0.00    -0.259 OA
HETATM   13  C10 UNK     1      18.871   2.957  30.546  1.00  0.00     0.089 A 
HETATM   14  C13 UNK     1      19.314   1.867  29.799  1.00  0.00     0.041 A 
HETATM   15  C8  UNK     1      18.405   2.811  31.849  1.00  0.00     0.002 A 
HETATM   16  C15 UNK     1      19.288   0.598  30.374  1.00  0.00     0.039 A 
HETATM   17  C14 UNK     1      18.824   0.433  31.680  1.00  0.00     0.069 A 
HETATM   18  C12 UNK     1      18.383   1.536  32.418  1.00  0.00     0.051 A 
HETATM   19  C9  UNK     1      17.959   3.992  32.572  1.00  0.00     0.037 A 
BRANCH  17  20
HETATM   20  O3  UNK     1      18.800  -0.809  32.240  1.00  0.00    -0.356 OA
HETATM   21  C17 UNK     1      19.889  -1.678  31.934  1.00  0.00     0.210 C 
ENDBRANCH  17  20
ENDBRANCH   6   9
ENDBRANCH   1   5
BRANCH   1  22
HETATM   22  C2  UNK     1      17.373   9.300  33.322  1.00  0.00     0.040 C 
HETATM   23  C4  UNK     1      17.017  10.549  34.125  1.00  0.00     0.009 C 
ENDBRANCH   1  22
TORSDOF 4
ENDMDL
