MODEL 1
REMARK VINA RESULT:     -10.1      0.000      0.000
REMARK  2 active torsions:
REMARK  status: ('A' for Active; 'I' for Inactive)
REMARK       I    between atoms: C5_13  and  N1_7 
REMARK       I    between atoms: C6_14  and  N2_8 
REMARK    1  A    between atoms: C5_13  and  C7_15 
REMARK    2  A    between atoms: C6_14  and  C8_16 
ROOT
HETATM    1  O1  UNK     1      34.457  -7.223  30.900  1.00  0.00    -0.267 OA
HETATM    2  O2  UNK     1      33.096  -5.143  37.186  1.00  0.00    -0.267 OA
HETATM    3  N1  UNK     1      33.191  -7.442  32.840  1.00  0.00    -0.345 N 
HETATM    4  N2  UNK     1      32.347  -6.071  35.189  1.00  0.00    -0.345 N 
HETATM    5  C1  UNK     1      32.019  -7.929  33.580  1.00  0.00     0.146 C 
HETATM    6  C2  UNK     1      34.166  -6.722  33.663  1.00  0.00     0.146 C 
HETATM    7  C3  UNK     1      31.360  -6.807  34.388  1.00  0.00     0.146 C 
HETATM    8  C4  UNK     1      33.500  -5.585  34.428  1.00  0.00     0.146 C 
HETATM    9  C5  UNK     1      33.461  -7.649  31.491  1.00  0.00     0.260 C 
HETATM   10  C6  UNK     1      32.247  -5.763  36.544  1.00  0.00     0.260 C 
ENDROOT
BRANCH   9  11
HETATM   11  C7  UNK     1      32.490  -8.439  30.708  1.00  0.00     0.108 A 
HETATM   12  C11 UNK     1      32.881  -9.668  29.983  1.00  0.00     0.304 A 
HETATM   13  O3  UNK     1      31.876 -10.326  29.280  1.00  0.00    -0.274 OA
HETATM   14  O5  UNK     1      34.032 -10.091  29.998  1.00  0.00    -0.259 OA
HETATM   15  C15 UNK     1      30.551  -9.849  29.256  1.00  0.00     0.089 A 
HETATM   16  C13 UNK     1      30.204  -8.692  29.945  1.00  0.00    -0.001 A 
HETATM   17  C19 UNK     1      29.614 -10.577  28.525  1.00  0.00     0.038 A 
HETATM   18  C9  UNK     1      31.233  -7.981  30.689  1.00  0.00     0.037 A 
HETATM   19  C17 UNK     1      28.880  -8.250  29.898  1.00  0.00     0.014 A 
HETATM   20  C21 UNK     1      27.928  -8.968  29.168  1.00  0.00     0.001 A 
HETATM   21  C23 UNK     1      28.295 -10.129  28.484  1.00  0.00     0.003 A 
ENDBRANCH   9  11
BRANCH  10  22
HETATM   22  C8  UNK     1      31.036  -6.208  37.262  1.00  0.00     0.108 A 
HETATM   23  C10 UNK     1      30.946  -7.520  37.512  1.00  0.00     0.037 A 
HETATM   24  C14 UNK     1      29.790  -8.055  38.214  1.00  0.00    -0.001 A 
HETATM   25  C16 UNK     1      28.784  -7.181  38.618  1.00  0.00     0.089 A 
HETATM   26  C18 UNK     1      29.654  -9.416  38.497  1.00  0.00     0.014 A 
HETATM   27  O4  UNK     1      28.885  -5.801  38.352  1.00  0.00    -0.274 OA
HETATM   28  C20 UNK     1      27.651  -7.629  39.294  1.00  0.00     0.038 A 
HETATM   29  C12 UNK     1      29.980  -5.261  37.682  1.00  0.00     0.304 A 
HETATM   30  O6  UNK     1      30.059  -4.058  37.454  1.00  0.00    -0.259 OA
HETATM   31  C24 UNK     1      27.523  -8.988  39.570  1.00  0.00     0.003 A 
HETATM   32  C22 UNK     1      28.522  -9.879  39.174  1.00  0.00     0.001 A 
ENDBRANCH  10  22
TORSDOF 2
ENDMDL
MODEL 2
REMARK VINA RESULT:     -10.1     33.146     36.508
REMARK  2 active torsions:
REMARK  status: ('A' for Active; 'I' for Inactive)
REMARK       I    between atoms: C5_13  and  N1_7 
REMARK       I    between atoms: C6_14  and  N2_8 
REMARK    1  A    between atoms: C5_13  and  C7_15 
REMARK    2  A    between atoms: C6_14  and  C8_16 
ROOT
HETATM    1  O1  UNK     1      18.524  12.953   8.731  1.00  0.00    -0.267 OA
HETATM    2  O2  UNK     1      15.752   6.880   9.791  1.00  0.00    -0.267 OA
HETATM    3  N1  UNK     1      16.755  11.483   8.382  1.00  0.00    -0.345 N 
HETATM    4  N2  UNK     1      15.474   9.158   9.410  1.00  0.00    -0.345 N 
HETATM    5  C1  UNK     1      15.374  11.183   7.983  1.00  0.00     0.146 C 
HETATM    6  C2  UNK     1      17.548  10.305   8.743  1.00  0.00     0.146 C 
HETATM    7  C3  UNK     1      14.662  10.322   9.031  1.00  0.00     0.146 C 
HETATM    8  C4  UNK     1      16.843   9.483   9.815  1.00  0.00     0.146 C 
HETATM    9  C5  UNK     1      17.359  12.737   8.389  1.00  0.00     0.260 C 
HETATM   10  C6  UNK     1      15.043   7.834   9.468  1.00  0.00     0.260 C 
ENDROOT
BRANCH   9  11
HETATM   11  C7  UNK     1      16.551  13.893   7.951  1.00  0.00     0.108 A 
HETATM   12  C11 UNK     1      16.691  14.482   6.601  1.00  0.00     0.304 A 
HETATM   13  O3  UNK     1      15.874  15.569   6.306  1.00  0.00    -0.274 OA
HETATM   14  O5  UNK     1      17.485  14.037   5.779  1.00  0.00    -0.259 OA
HETATM   15  C15 UNK     1      14.959  16.087   7.242  1.00  0.00     0.089 A 
HETATM   16  C13 UNK     1      14.843  15.518   8.506  1.00  0.00    -0.001 A 
HETATM   17  C19 UNK     1      14.182  17.178   6.854  1.00  0.00     0.038 A 
HETATM   18  C9  UNK     1      15.684  14.380   8.846  1.00  0.00     0.037 A 
HETATM   19  C17 UNK     1      13.924  16.060   9.408  1.00  0.00     0.014 A 
HETATM   20  C21 UNK     1      13.139  17.155   9.034  1.00  0.00     0.001 A 
HETATM   21  C23 UNK     1      13.268  17.712   7.760  1.00  0.00     0.003 A 
ENDBRANCH   9  11
BRANCH  10  22
HETATM   22  C8  UNK     1      13.635   7.554   9.122  1.00  0.00     0.108 A 
HETATM   23  C10 UNK     1      13.405   7.152   7.866  1.00  0.00     0.037 A 
HETATM   24  C14 UNK     1      12.050   6.852   7.429  1.00  0.00    -0.001 A 
HETATM   25  C16 UNK     1      11.004   6.991   8.337  1.00  0.00     0.089 A 
HETATM   26  C18 UNK     1      11.763   6.429   6.129  1.00  0.00     0.014 A 
HETATM   27  O4  UNK     1      11.253   7.415   9.657  1.00  0.00    -0.274 OA
HETATM   28  C20 UNK     1       9.684   6.721   7.982  1.00  0.00     0.038 A 
HETATM   29  C12 UNK     1      12.539   7.709  10.103  1.00  0.00     0.304 A 
HETATM   30  O6  UNK     1      12.747   8.079  11.255  1.00  0.00    -0.259 OA
HETATM   31  C24 UNK     1       9.406   6.301   6.683  1.00  0.00     0.003 A 
HETATM   32  C22 UNK     1      10.443   6.154   5.760  1.00  0.00     0.001 A 
ENDBRANCH  10  22
TORSDOF 2
ENDMDL
MODEL 3
REMARK VINA RESULT:     -10.0     33.172     36.477
REMARK  2 active torsions:
REMARK  status: ('A' for Active; 'I' for Inactive)
REMARK       I    between atoms: C5_13  and  N1_7 
REMARK       I    between atoms: C6_14  and  N2_8 
REMARK    1  A    between atoms: C5_13  and  C7_15 
REMARK    2  A    between atoms: C6_14  and  C8_16 
ROOT
HETATM    1  O1  UNK     1      15.730   6.871   9.754  1.00  0.00    -0.267 OA
HETATM    2  O2  UNK     1      18.508  12.944   8.712  1.00  0.00    -0.267 OA
HETATM    3  N1  UNK     1      15.452   9.150   9.380  1.00  0.00    -0.345 N 
HETATM    4  N2  UNK     1      16.739  11.476   8.359  1.00  0.00    -0.345 N 
HETATM    5  C1  UNK     1      14.643  10.316   9.001  1.00  0.00     0.146 C 
HETATM    6  C2  UNK     1      16.821   9.474   9.790  1.00  0.00     0.146 C 
HETATM    7  C3  UNK     1      15.358  11.178   7.956  1.00  0.00     0.146 C 
HETATM    8  C4  UNK     1      17.529  10.297   8.721  1.00  0.00     0.146 C 
HETATM    9  C5  UNK     1      15.022   7.827   9.431  1.00  0.00     0.260 C 
HETATM   10  C6  UNK     1      17.345  12.730   8.367  1.00  0.00     0.260 C 
ENDROOT
BRANCH   9  11
HETATM   11  C7  UNK     1      13.616   7.546   9.079  1.00  0.00     0.108 A 
HETATM   12  C11 UNK     1      12.518   7.687  10.061  1.00  0.00     0.304 A 
HETATM   13  O3  UNK     1      11.234   7.393   9.609  1.00  0.00    -0.274 OA
HETATM   14  O5  UNK     1      12.723   8.045  11.216  1.00  0.00    -0.259 OA
HETATM   15  C15 UNK     1      10.988   6.982   8.286  1.00  0.00     0.089 A 
HETATM   16  C13 UNK     1      12.035   6.857   7.378  1.00  0.00    -0.001 A 
HETATM   17  C19 UNK     1       9.669   6.712   7.926  1.00  0.00     0.038 A 
HETATM   18  C9  UNK     1      13.389   7.156   7.820  1.00  0.00     0.037 A 
HETATM   19  C17 UNK     1      11.751   6.446   6.074  1.00  0.00     0.014 A 
HETATM   20  C21 UNK     1      10.433   6.169   5.698  1.00  0.00     0.001 A 
HETATM   21  C23 UNK     1       9.394   6.302   6.622  1.00  0.00     0.003 A 
ENDBRANCH   9  11
BRANCH  10  22
HETATM   22  C8  UNK     1      16.538  13.886   7.926  1.00  0.00     0.108 A 
HETATM   23  C10 UNK     1      15.660  14.365   8.815  1.00  0.00     0.037 A 
HETATM   24  C14 UNK     1      14.818  15.502   8.474  1.00  0.00    -0.001 A 
HETATM   25  C16 UNK     1      14.943  16.078   7.213  1.00  0.00     0.089 A 
HETATM   26  C18 UNK     1      13.889  16.036   9.370  1.00  0.00     0.014 A 
HETATM   27  O4  UNK     1      15.870  15.567   6.282  1.00  0.00    -0.274 OA
HETATM   28  C20 UNK     1      14.167  17.167   6.823  1.00  0.00     0.038 A 
HETATM   29  C12 UNK     1      16.688  14.481   6.581  1.00  0.00     0.304 A 
HETATM   30  O6  UNK     1      17.491  14.043   5.763  1.00  0.00    -0.259 OA
HETATM   31  C24 UNK     1      13.242  17.693   7.722  1.00  0.00     0.003 A 
HETATM   32  C22 UNK     1      13.104  17.130   8.992  1.00  0.00     0.001 A 
ENDBRANCH  10  22
TORSDOF 2
ENDMDL
MODEL 4
REMARK VINA RESULT:     -10.0      0.142      8.256
REMARK  2 active torsions:
REMARK  status: ('A' for Active; 'I' for Inactive)
REMARK       I    between atoms: C5_13  and  N1_7 
REMARK       I    between atoms: C6_14  and  N2_8 
REMARK    1  A    between atoms: C5_13  and  C7_15 
REMARK    2  A    between atoms: C6_14  and  C8_16 
ROOT
HETATM    1  O1  UNK     1      33.038  -5.307  37.329  1.00  0.00    -0.267 OA
HETATM    2  O2  UNK     1      34.436  -7.272  31.015  1.00  0.00    -0.267 OA
HETATM    3  N1  UNK     1      32.294  -6.171  35.302  1.00  0.00    -0.345 N 
HETATM    4  N2  UNK     1      33.140  -7.504  32.933  1.00  0.00    -0.345 N 
HETATM    5  C1  UNK     1      31.303  -6.868  34.471  1.00  0.00     0.146 C 
HETATM    6  C2  UNK     1      33.466  -5.691  34.566  1.00  0.00     0.146 C 
HETATM    7  C3  UNK     1      31.949  -7.984  33.646  1.00  0.00     0.146 C 
HETATM    8  C4  UNK     1      34.119  -6.823  33.783  1.00  0.00     0.146 C 
HETATM    9  C5  UNK     1      32.185  -5.895  36.662  1.00  0.00     0.260 C 
HETATM   10  C6  UNK     1      33.425  -7.690  31.582  1.00  0.00     0.260 C 
ENDROOT
BRANCH   9  11
HETATM   11  C7  UNK     1      30.957  -6.332  37.356  1.00  0.00     0.108 A 
HETATM   12  C11 UNK     1      29.891  -5.380  37.739  1.00  0.00     0.304 A 
HETATM   13  O3  UNK     1      28.781  -5.913  38.390  1.00  0.00    -0.274 OA
HETATM   14  O5  UNK     1      29.974  -4.181  37.496  1.00  0.00    -0.259 OA
HETATM   15  C15 UNK     1      28.675  -7.288  38.673  1.00  0.00     0.089 A 
HETATM   16  C13 UNK     1      29.690  -8.166  38.305  1.00  0.00    -0.001 A 
HETATM   17  C19 UNK     1      27.526  -7.727  39.328  1.00  0.00     0.038 A 
HETATM   18  C9  UNK     1      30.863  -7.639  37.623  1.00  0.00     0.037 A 
HETATM   19  C17 UNK     1      29.549  -9.523  38.603  1.00  0.00     0.014 A 
HETATM   20  C21 UNK     1      28.402  -9.979  39.261  1.00  0.00     0.001 A 
HETATM   21  C23 UNK     1      27.393  -9.083  39.621  1.00  0.00     0.003 A 
ENDBRANCH   9  11
BRANCH  10  22
HETATM   22  C8  UNK     1      32.448  -8.444  30.771  1.00  0.00     0.108 A 
HETATM   23  C10 UNK     1      31.193  -7.980  30.778  1.00  0.00     0.037 A 
HETATM   24  C14 UNK     1      30.158  -8.656  30.010  1.00  0.00    -0.001 A 
HETATM   25  C16 UNK     1      30.497  -9.787  29.273  1.00  0.00     0.089 A 
HETATM   26  C18 UNK     1      28.835  -8.208  29.987  1.00  0.00     0.014 A 
HETATM   27  O4  UNK     1      31.821 -10.269  29.270  1.00  0.00    -0.274 OA
HETATM   28  C20 UNK     1      29.553 -10.480  28.517  1.00  0.00     0.038 A 
HETATM   29  C12 UNK     1      32.831  -9.643  29.995  1.00  0.00     0.304 A 
HETATM   30  O6  UNK     1      33.981 -10.072  29.988  1.00  0.00    -0.259 OA
HETATM   31  C24 UNK     1      28.236 -10.027  28.501  1.00  0.00     0.003 A 
HETATM   32  C22 UNK     1      27.878  -8.893  29.233  1.00  0.00     0.001 A 
ENDBRANCH  10  22
TORSDOF 2
ENDMDL
MODEL 5
REMARK VINA RESULT:     -10.0      1.750      2.326
REMARK  2 active torsions:
REMARK  status: ('A' for Active; 'I' for Inactive)
REMARK       I    between atoms: C5_13  and  N1_7 
REMARK       I    between atoms: C6_14  and  N2_8 
REMARK    1  A    between atoms: C5_13  and  C7_15 
REMARK    2  A    between atoms: C6_14  and  C8_16 
ROOT
HETATM    1  O1  UNK     1      36.278  -8.366  31.519  1.00  0.00    -0.267 OA
HETATM    2  O2  UNK     1      34.776  -5.805  37.592  1.00  0.00    -0.267 OA
HETATM    3  N1  UNK     1      34.672  -7.852  33.121  1.00  0.00    -0.345 N 
HETATM    4  N2  UNK     1      34.144  -6.215  35.391  1.00  0.00    -0.345 N 
HETATM    5  C1  UNK     1      33.283  -7.631  33.546  1.00  0.00     0.146 C 
HETATM    6  C2  UNK     1      35.656  -7.754  34.203  1.00  0.00     0.146 C 
HETATM    7  C3  UNK     1      33.138  -6.321  34.326  1.00  0.00     0.146 C 
HETATM    8  C4  UNK     1      35.522  -6.428  34.942  1.00  0.00     0.146 C 
HETATM    9  C5  UNK     1      35.101  -8.188  31.841  1.00  0.00     0.260 C 
HETATM   10  C6  UNK     1      33.907  -5.885  36.723  1.00  0.00     0.260 C 
ENDROOT
BRANCH   9  11
HETATM   11  C7  UNK     1      34.075  -8.347  30.791  1.00  0.00     0.108 A 
HETATM   12  C11 UNK     1      33.937  -7.384  29.676  1.00  0.00     0.304 A 
HETATM   13  O3  UNK     1      32.931  -7.643  28.748  1.00  0.00    -0.274 OA
HETATM   14  O5  UNK     1      34.669  -6.406  29.569  1.00  0.00    -0.259 OA
HETATM   15  C15 UNK     1      32.086  -8.763  28.861  1.00  0.00     0.089 A 
HETATM   16  C13 UNK     1      32.233  -9.657  29.917  1.00  0.00    -0.001 A 
HETATM   17  C19 UNK     1      31.109  -8.938  27.883  1.00  0.00     0.038 A 
HETATM   18  C9  UNK     1      33.275  -9.413  30.904  1.00  0.00     0.037 A 
HETATM   19  C17 UNK     1      31.375 -10.755  29.996  1.00  0.00     0.014 A 
HETATM   20  C21 UNK     1      30.389 -10.945  29.023  1.00  0.00     0.001 A 
HETATM   21  C23 UNK     1      30.257 -10.038  27.968  1.00  0.00     0.003 A 
ENDBRANCH   9  11
BRANCH  10  22
HETATM   22  C8  UNK     1      32.512  -5.607  37.123  1.00  0.00     0.108 A 
HETATM   23  C10 UNK     1      31.830  -6.636  37.640  1.00  0.00     0.037 A 
HETATM   24  C14 UNK     1      30.449  -6.461  38.064  1.00  0.00    -0.001 A 
HETATM   25  C16 UNK     1      29.855  -5.210  37.922  1.00  0.00     0.089 A 
HETATM   26  C18 UNK     1      29.699  -7.506  38.609  1.00  0.00     0.014 A 
HETATM   27  O4  UNK     1      30.579  -4.131  37.377  1.00  0.00    -0.274 OA
HETATM   28  C20 UNK     1      28.537  -4.976  38.307  1.00  0.00     0.038 A 
HETATM   29  C12 UNK     1      31.902  -4.269  36.963  1.00  0.00     0.304 A 
HETATM   30  O6  UNK     1      32.524  -3.324  36.488  1.00  0.00    -0.259 OA
HETATM   31  C24 UNK     1      27.795  -6.024  38.849  1.00  0.00     0.003 A 
HETATM   32  C22 UNK     1      28.375  -7.285  39.000  1.00  0.00     0.001 A 
ENDBRANCH  10  22
TORSDOF 2
ENDMDL
MODEL 6
REMARK VINA RESULT:     -10.0      1.740      8.360
REMARK  2 active torsions:
REMARK  status: ('A' for Active; 'I' for Inactive)
REMARK       I    between atoms: C5_13  and  N1_7 
REMARK       I    between atoms: C6_14  and  N2_8 
REMARK    1  A    between atoms: C5_13  and  C7_15 
REMARK    2  A    between atoms: C6_14  and  C8_16 
ROOT
HETATM    1  O1  UNK     1      34.779  -5.830  37.600  1.00  0.00    -0.267 OA
HETATM    2  O2  UNK     1      36.279  -8.356  31.512  1.00  0.00    -0.267 OA
HETATM    3  N1  UNK     1      34.149  -6.218  35.395  1.00  0.00    -0.345 N 
HETATM    4  N2  UNK     1      34.674  -7.842  33.115  1.00  0.00    -0.345 N 
HETATM    5  C1  UNK     1      33.145  -6.312  34.327  1.00  0.00     0.146 C 
HETATM    6  C2  UNK     1      35.527  -6.434  34.946  1.00  0.00     0.146 C 
HETATM    7  C3  UNK     1      33.285  -7.617  33.538  1.00  0.00     0.146 C 
HETATM    8  C4  UNK     1      35.656  -7.755  34.199  1.00  0.00     0.146 C 
HETATM    9  C5  UNK     1      33.910  -5.900  36.728  1.00  0.00     0.260 C 
HETATM   10  C6  UNK     1      35.104  -8.175  31.833  1.00  0.00     0.260 C 
ENDROOT
BRANCH   9  11
HETATM   11  C7  UNK     1      32.517  -5.620  37.130  1.00  0.00     0.108 A 
HETATM   12  C11 UNK     1      31.900  -4.287  36.945  1.00  0.00     0.304 A 
HETATM   13  O3  UNK     1      30.580  -4.147  37.364  1.00  0.00    -0.274 OA
HETATM   14  O5  UNK     1      32.515  -3.351  36.448  1.00  0.00    -0.259 OA
HETATM   15  C15 UNK     1      29.863  -5.216  37.936  1.00  0.00     0.089 A 
HETATM   16  C13 UNK     1      30.462  -6.461  38.100  1.00  0.00    -0.001 A 
HETATM   17  C19 UNK     1      28.546  -4.979  38.323  1.00  0.00     0.038 A 
HETATM   18  C9  UNK     1      31.842  -6.639  37.673  1.00  0.00     0.037 A 
HETATM   19  C17 UNK     1      29.720  -7.496  38.672  1.00  0.00     0.014 A 
HETATM   20  C21 UNK     1      28.397  -7.274  39.067  1.00  0.00     0.001 A 
HETATM   21  C23 UNK     1      27.812  -6.018  38.893  1.00  0.00     0.003 A 
ENDBRANCH   9  11
BRANCH  10  22
HETATM   22  C8  UNK     1      34.077  -8.324  30.781  1.00  0.00     0.108 A 
HETATM   23  C10 UNK     1      33.241  -9.360  30.917  1.00  0.00     0.037 A 
HETATM   24  C14 UNK     1      32.196  -9.592  29.931  1.00  0.00    -0.001 A 
HETATM   25  C16 UNK     1      32.084  -8.721  28.852  1.00  0.00     0.089 A 
HETATM   26  C18 UNK     1      31.300 -10.659  30.032  1.00  0.00     0.014 A 
HETATM   27  O4  UNK     1      32.968  -7.632  28.716  1.00  0.00    -0.274 OA
HETATM   28  C20 UNK     1      31.106  -8.887  27.873  1.00  0.00     0.038 A 
HETATM   29  C12 UNK     1      33.977  -7.385  29.643  1.00  0.00     0.304 A 
HETATM   30  O6  UNK     1      34.743  -6.436  29.515  1.00  0.00    -0.259 OA
HETATM   31  C24 UNK     1      30.218  -9.955  27.981  1.00  0.00     0.003 A 
HETATM   32  C22 UNK     1      30.314 -10.838  29.057  1.00  0.00     0.001 A 
ENDBRANCH  10  22
TORSDOF 2
ENDMDL
MODEL 7
REMARK VINA RESULT:      -9.9     14.670     17.001
REMARK  2 active torsions:
REMARK  status: ('A' for Active; 'I' for Inactive)
REMARK       I    between atoms: C5_13  and  N1_7 
REMARK       I    between atoms: C6_14  and  N2_8 
REMARK    1  A    between atoms: C5_13  and  C7_15 
REMARK    2  A    between atoms: C6_14  and  C8_16 
ROOT
HETATM    1  O1  UNK     1      18.627   4.412  28.855  1.00  0.00    -0.267 OA
HETATM    2  O2  UNK     1      19.385  -2.046  30.703  1.00  0.00    -0.267 OA
HETATM    3  N1  UNK     1      18.558   2.799  30.530  1.00  0.00    -0.345 N 
HETATM    4  N2  UNK     1      19.498   0.211  31.255  1.00  0.00    -0.345 N 
HETATM    5  C1  UNK     1      18.532   2.389  31.940  1.00  0.00     0.146 C 
HETATM    6  C2  UNK     1      18.466   1.688  29.578  1.00  0.00     0.146 C 
HETATM    7  C3  UNK     1      19.577   1.308  32.229  1.00  0.00     0.146 C 
HETATM    8  C4  UNK     1      19.538   0.642  29.856  1.00  0.00     0.146 C 
HETATM    9  C5  UNK     1      18.606   4.104  30.049  1.00  0.00     0.260 C 
HETATM   10  C6  UNK     1      19.451  -1.150  31.546  1.00  0.00     0.260 C 
ENDROOT
BRANCH   9  11
HETATM   11  C7  UNK     1      18.626   5.201  31.037  1.00  0.00     0.108 A 
HETATM   12  C11 UNK     1      19.872   5.921  31.384  1.00  0.00     0.304 A 
HETATM   13  O3  UNK     1      19.764   6.936  32.330  1.00  0.00    -0.274 OA
HETATM   14  O5  UNK     1      20.948   5.641  30.867  1.00  0.00    -0.259 OA
HETATM   15  C15 UNK     1      18.533   7.266  32.930  1.00  0.00     0.089 A 
HETATM   16  C13 UNK     1      17.373   6.577  32.588  1.00  0.00    -0.001 A 
HETATM   17  C19 UNK     1      18.524   8.298  33.865  1.00  0.00     0.038 A 
HETATM   18  C9  UNK     1      17.454   5.509  31.603  1.00  0.00     0.037 A 
HETATM   19  C17 UNK     1      16.172   6.932  33.205  1.00  0.00     0.014 A 
HETATM   20  C21 UNK     1      16.147   7.965  34.146  1.00  0.00     0.001 A 
HETATM   21  C23 UNK     1      17.320   8.647  34.475  1.00  0.00     0.003 A 
ENDBRANCH   9  11
BRANCH  10  22
HETATM   22  C8  UNK     1      19.485  -1.551  32.967  1.00  0.00     0.108 A 
HETATM   23  C10 UNK     1      18.576  -0.977  33.764  1.00  0.00     0.037 A 
HETATM   24  C14 UNK     1      18.531  -1.307  35.181  1.00  0.00    -0.001 A 
HETATM   25  C16 UNK     1      19.445  -2.225  35.688  1.00  0.00     0.089 A 
HETATM   26  C18 UNK     1      17.599  -0.732  36.049  1.00  0.00     0.014 A 
HETATM   27  O4  UNK     1      20.400  -2.826  34.843  1.00  0.00    -0.274 OA
HETATM   28  C20 UNK     1      19.456  -2.583  37.034  1.00  0.00     0.038 A 
HETATM   29  C12 UNK     1      20.466  -2.530  33.484  1.00  0.00     0.304 A 
HETATM   30  O6  UNK     1      21.302  -3.057  32.756  1.00  0.00    -0.259 OA
HETATM   31  C24 UNK     1      18.524  -2.005  37.894  1.00  0.00     0.003 A 
HETATM   32  C22 UNK     1      17.598  -1.083  37.403  1.00  0.00     0.001 A 
ENDBRANCH  10  22
TORSDOF 2
ENDMDL
MODEL 8
REMARK VINA RESULT:      -9.9     14.669     17.037
REMARK  2 active torsions:
REMARK  status: ('A' for Active; 'I' for Inactive)
REMARK       I    between atoms: C5_13  and  N1_7 
REMARK       I    between atoms: C6_14  and  N2_8 
REMARK    1  A    between atoms: C5_13  and  C7_15 
REMARK    2  A    between atoms: C6_14  and  C8_16 
ROOT
HETATM    1  O1  UNK     1      19.392  -2.051  30.663  1.00  0.00    -0.267 OA
HETATM    2  O2  UNK     1      18.590   4.412  28.852  1.00  0.00    -0.267 OA
HETATM    3  N1  UNK     1      19.502   0.203  31.227  1.00  0.00    -0.345 N 
HETATM    4  N2  UNK     1      18.544   2.789  30.518  1.00  0.00    -0.345 N 
HETATM    5  C1  UNK     1      19.581   1.297  32.205  1.00  0.00     0.146 C 
HETATM    6  C2  UNK     1      19.532   0.642  29.829  1.00  0.00     0.146 C 
HETATM    7  C3  UNK     1      18.528   2.374  31.927  1.00  0.00     0.146 C 
HETATM    8  C4  UNK     1      18.452   1.683  29.562  1.00  0.00     0.146 C 
HETATM    9  C5  UNK     1      19.459  -1.158  31.511  1.00  0.00     0.260 C 
HETATM   10  C6  UNK     1      18.578   4.098  30.043  1.00  0.00     0.260 C 
ENDROOT
BRANCH   9  11
HETATM   11  C7  UNK     1      19.502  -1.567  32.930  1.00  0.00     0.108 A 
HETATM   12  C11 UNK     1      20.472  -2.567  33.429  1.00  0.00     0.304 A 
HETATM   13  O3  UNK     1      20.414  -2.869  34.787  1.00  0.00    -0.274 OA
HETATM   14  O5  UNK     1      21.289  -3.104  32.689  1.00  0.00    -0.259 OA
HETATM   15  C15 UNK     1      19.480  -2.258  35.646  1.00  0.00     0.089 A 
HETATM   16  C13 UNK     1      18.577  -1.320  35.155  1.00  0.00    -0.001 A 
HETATM   17  C19 UNK     1      19.500  -2.625  36.990  1.00  0.00     0.038 A 
HETATM   18  C9  UNK     1      18.612  -0.983  33.740  1.00  0.00     0.037 A 
HETATM   19  C17 UNK     1      17.666  -0.735  36.038  1.00  0.00     0.014 A 
HETATM   20  C21 UNK     1      17.672  -1.094  37.389  1.00  0.00     0.001 A 
HETATM   21  C23 UNK     1      18.587  -2.036  37.864  1.00  0.00     0.003 A 
ENDBRANCH   9  11
BRANCH  10  22
HETATM   22  C8  UNK     1      18.597   5.190  31.038  1.00  0.00     0.108 A 
HETATM   23  C10 UNK     1      17.420   5.502  31.594  1.00  0.00     0.037 A 
HETATM   24  C14 UNK     1      17.336   6.564  32.585  1.00  0.00    -0.001 A 
HETATM   25  C16 UNK     1      18.497   7.246  32.940  1.00  0.00     0.089 A 
HETATM   26  C18 UNK     1      16.130   6.924  33.191  1.00  0.00     0.014 A 
HETATM   27  O4  UNK     1      19.732   6.912  32.351  1.00  0.00    -0.274 OA
HETATM   28  C20 UNK     1      18.485   8.274  33.881  1.00  0.00     0.038 A 
HETATM   29  C12 UNK     1      19.843   5.900  31.401  1.00  0.00     0.304 A 
HETATM   30  O6  UNK     1      20.923   5.617  30.892  1.00  0.00    -0.259 OA
HETATM   31  C24 UNK     1      17.278   8.626  34.480  1.00  0.00     0.003 A 
HETATM   32  C22 UNK     1      16.104   7.953  34.137  1.00  0.00     0.001 A 
ENDBRANCH  10  22
TORSDOF 2
ENDMDL
MODEL 9
REMARK VINA RESULT:      -9.8      1.306      1.595
REMARK  2 active torsions:
REMARK  status: ('A' for Active; 'I' for Inactive)
REMARK       I    between atoms: C5_13  and  N1_7 
REMARK       I    between atoms: C6_14  and  N2_8 
REMARK    1  A    between atoms: C5_13  and  C7_15 
REMARK    2  A    between atoms: C6_14  and  C8_16 
ROOT
HETATM    1  O1  UNK     1      35.457  -6.546  32.776  1.00  0.00    -0.267 OA
HETATM    2  O2  UNK     1      32.481  -5.102  38.671  1.00  0.00    -0.267 OA
HETATM    3  N1  UNK     1      33.743  -6.955  34.294  1.00  0.00    -0.345 N 
HETATM    4  N2  UNK     1      32.292  -5.825  36.468  1.00  0.00    -0.345 N 
HETATM    5  C1  UNK     1      32.433  -7.513  34.657  1.00  0.00     0.146 C 
HETATM    6  C2  UNK     1      34.457  -6.322  35.406  1.00  0.00     0.146 C 
HETATM    7  C3  UNK     1      31.562  -6.477  35.372  1.00  0.00     0.146 C 
HETATM    8  C4  UNK     1      33.589  -5.267  36.080  1.00  0.00     0.146 C 
HETATM    9  C5  UNK     1      34.354  -7.027  33.046  1.00  0.00     0.260 C 
HETATM   10  C6  UNK     1      31.841  -5.654  37.775  1.00  0.00     0.260 C 
ENDROOT
BRANCH   9  11
HETATM   11  C7  UNK     1      33.636  -7.734  31.967  1.00  0.00     0.108 A 
HETATM   12  C11 UNK     1      34.082  -9.051  31.459  1.00  0.00     0.304 A 
HETATM   13  O3  UNK     1      33.322  -9.617  30.439  1.00  0.00    -0.274 OA
HETATM   14  O5  UNK     1      35.070  -9.619  31.910  1.00  0.00    -0.259 OA
HETATM   15  C15 UNK     1      32.185  -8.972  29.913  1.00  0.00     0.089 A 
HETATM   16  C13 UNK     1      31.783  -7.735  30.406  1.00  0.00    -0.001 A 
HETATM   17  C19 UNK     1      31.488  -9.618  28.895  1.00  0.00     0.038 A 
HETATM   18  C9  UNK     1      32.557  -7.117  31.472  1.00  0.00     0.037 A 
HETATM   19  C17 UNK     1      30.651  -7.127  29.859  1.00  0.00     0.014 A 
HETATM   20  C21 UNK     1      29.941  -7.762  28.835  1.00  0.00     0.001 A 
HETATM   21  C23 UNK     1      30.359  -9.005  28.355  1.00  0.00     0.003 A 
ENDBRANCH   9  11
BRANCH  10  22
HETATM   22  C8  UNK     1      30.497  -6.167  38.111  1.00  0.00     0.108 A 
HETATM   23  C10 UNK     1      30.399  -7.489  38.292  1.00  0.00     0.037 A 
HETATM   24  C14 UNK     1      29.116  -8.090  38.626  1.00  0.00    -0.001 A 
HETATM   25  C16 UNK     1      28.001  -7.267  38.751  1.00  0.00     0.089 A 
HETATM   26  C18 UNK     1      28.967  -9.464  38.824  1.00  0.00     0.014 A 
HETATM   27  O4  UNK     1      28.112  -5.876  38.559  1.00  0.00    -0.274 OA
HETATM   28  C20 UNK     1      26.744  -7.779  39.068  1.00  0.00     0.038 A 
HETATM   29  C12 UNK     1      29.325  -5.273  38.239  1.00  0.00     0.304 A 
HETATM   30  O6  UNK     1      29.412  -4.061  38.072  1.00  0.00    -0.259 OA
HETATM   31  C24 UNK     1      26.603  -9.151  39.263  1.00  0.00     0.003 A 
HETATM   32  C22 UNK     1      27.712  -9.992  39.143  1.00  0.00     0.001 A 
ENDBRANCH  10  22
TORSDOF 2
ENDMDL
MODEL 10
REMARK VINA RESULT:      -9.7     32.560     36.095
REMARK  2 active torsions:
REMARK  status: ('A' for Active; 'I' for Inactive)
REMARK       I    between atoms: C5_13  and  N1_7 
REMARK       I    between atoms: C6_14  and  N2_8 
REMARK    1  A    between atoms: C5_13  and  C7_15 
REMARK    2  A    between atoms: C6_14  and  C8_16 
ROOT
HETATM    1  O1  UNK     1      17.985  11.672  10.428  1.00  0.00    -0.267 OA
HETATM    2  O2  UNK     1      14.288   6.015  10.578  1.00  0.00    -0.267 OA
HETATM    3  N1  UNK     1      16.403  10.300   9.415  1.00  0.00    -0.345 N 
HETATM    4  N2  UNK     1      14.508   8.234   9.915  1.00  0.00    -0.345 N 
HETATM    5  C1  UNK     1      15.334  10.048   8.440  1.00  0.00     0.146 C 
HETATM    6  C2  UNK     1      16.784   9.127  10.208  1.00  0.00     0.146 C 
HETATM    7  C3  UNK     1      14.117   9.392   9.100  1.00  0.00     0.146 C 
HETATM    8  C4  UNK     1      15.568   8.512  10.888  1.00  0.00     0.146 C 
HETATM    9  C5  UNK     1      17.090  11.496   9.597  1.00  0.00     0.260 C 
HETATM   10  C6  UNK     1      13.935   6.965   9.878  1.00  0.00     0.260 C 
ENDROOT
BRANCH   9  11
HETATM   11  C7  UNK     1      16.728  12.636   8.732  1.00  0.00     0.108 A 
HETATM   12  C11 UNK     1      17.396  12.880   7.434  1.00  0.00     0.304 A 
HETATM   13  O3  UNK     1      16.967  13.988   6.709  1.00  0.00    -0.274 OA
HETATM   14  O5  UNK     1      18.282  12.145   7.013  1.00  0.00    -0.259 OA
HETATM   15  C15 UNK     1      15.950  14.839   7.183  1.00  0.00     0.089 A 
HETATM   16  C13 UNK     1      15.335  14.591   8.407  1.00  0.00    -0.001 A 
HETATM   17  C19 UNK     1      15.587  15.922   6.386  1.00  0.00     0.038 A 
HETATM   18  C9  UNK     1      15.761  13.441   9.189  1.00  0.00     0.037 A 
HETATM   19  C17 UNK     1      14.330  15.457   8.843  1.00  0.00     0.014 A 
HETATM   20  C21 UNK     1      13.956  16.550   8.055  1.00  0.00     0.001 A 
HETATM   21  C23 UNK     1      14.583  16.782   6.829  1.00  0.00     0.003 A 
ENDBRANCH   9  11
BRANCH  10  22
HETATM   22  C8  UNK     1      12.820   6.742   8.935  1.00  0.00     0.108 A 
HETATM   23  C10 UNK     1      11.606   7.111   9.359  1.00  0.00     0.037 A 
HETATM   24  C14 UNK     1      10.444   6.931   8.502  1.00  0.00    -0.001 A 
HETATM   25  C16 UNK     1      10.619   6.371   7.240  1.00  0.00     0.089 A 
HETATM   26  C18 UNK     1       9.158   7.300   8.903  1.00  0.00     0.014 A 
HETATM   27  O4  UNK     1      11.901   5.986   6.799  1.00  0.00    -0.274 OA
HETATM   28  C20 UNK     1       9.549   6.171   6.370  1.00  0.00     0.038 A 
HETATM   29  C12 UNK     1      13.031   6.146   7.598  1.00  0.00     0.304 A 
HETATM   30  O6  UNK     1      14.143   5.806   7.206  1.00  0.00    -0.259 OA
HETATM   31  C24 UNK     1       8.269   6.542   6.779  1.00  0.00     0.003 A 
HETATM   32  C22 UNK     1       8.074   7.106   8.041  1.00  0.00     0.001 A 
ENDBRANCH  10  22
TORSDOF 2
ENDMDL
