MODEL 1
REMARK VINA RESULT:      -9.7      0.000      0.000
REMARK  2 active torsions:
REMARK  status: ('A' for Active; 'I' for Inactive)
REMARK    1  A    between atoms: C1_7  and  C8_14 
REMARK    2  A    between atoms: C6_12  and  C9_15 
ROOT
HETATM    1  O1  UNK     1      33.308 -10.012  34.143  1.00  0.00    -0.293 OA
HETATM    2  N1  UNK     1      29.066  -9.902  31.856  1.00  0.00    -0.357 N 
HETATM    3  N2  UNK     1      30.897  -7.532  32.100  1.00  0.00    -0.375 N 
HETATM    4  C1  UNK     1      31.702 -12.523  32.131  1.00  0.00     0.033 C 
HETATM    5  C2  UNK     1      30.276 -11.967  32.149  1.00  0.00     0.067 C 
HETATM    6  C3  UNK     1      31.228  -9.804  32.984  1.00  0.00     0.037 C 
HETATM    7  C4  UNK     1      30.228 -10.459  32.354  1.00  0.00     0.022 C 
HETATM    8  C5  UNK     1      32.426 -12.084  33.396  1.00  0.00     0.093 C 
HETATM    9  C6  UNK     1      31.229  -8.324  33.274  1.00  0.00     0.160 C 
HETATM   10  C7  UNK     1      32.402 -10.580  33.533  1.00  0.00     0.160 C 
HETATM   11  C10 UNK     1      28.767  -8.593  31.431  1.00  0.00     0.059 A 
HETATM   12  C11 UNK     1      29.654  -7.504  31.486  1.00  0.00     0.055 A 
HETATM   13  C16 UNK     1      27.490  -8.396  30.853  1.00  0.00     0.032 A 
HETATM   14  C17 UNK     1      29.247  -6.275  30.920  1.00  0.00     0.031 A 
HETATM   15  C22 UNK     1      27.104  -7.169  30.318  1.00  0.00     0.002 A 
HETATM   16  C23 UNK     1      27.990  -6.106  30.343  1.00  0.00     0.002 A 
HETATM   17  H7  UNK     1      28.333 -10.579  31.659  1.00  0.00     0.166 HD
HETATM   18  H8  UNK     1      31.505  -6.740  31.916  1.00  0.00     0.160 HD
ENDROOT
BRANCH   9  19
HETATM   19  C9  UNK     1      30.356  -7.952  34.436  1.00  0.00     0.042 A 
HETATM   20  C14 UNK     1      30.731  -6.772  35.255  1.00  0.00     0.195 A 
HETATM   21  O3  UNK     1      31.724  -6.100  35.012  1.00  0.00    -0.287 OA
HETATM   22  C18 UNK     1      29.839  -6.452  36.385  1.00  0.00     0.049 A 
HETATM   23  C25 UNK     1      30.107  -5.360  37.217  1.00  0.00     0.025 A 
HETATM   24  C21 UNK     1      28.721  -7.254  36.616  1.00  0.00     0.089 A 
HETATM   25  C27 UNK     1      29.247  -5.077  38.279  1.00  0.00    -0.061 A 
HETATM   26  C29 UNK     1      29.524  -3.914  39.170  1.00  0.00     0.048 C 
HETATM   27  C28 UNK     1      28.129  -5.879  38.510  1.00  0.00     0.009 A 
HETATM   28  C26 UNK     1      27.864  -6.969  37.679  1.00  0.00     0.039 A 
HETATM   29  O2  UNK     1      28.411  -8.336  35.832  1.00  0.00    -0.321 OA
HETATM   30  C15 UNK     1      29.250  -8.624  34.784  1.00  0.00     0.156 A 
ENDBRANCH   9  19
BRANCH   4  31
HETATM   31  C8  UNK     1      31.725 -14.029  31.949  1.00  0.00    -0.032 A 
HETATM   32  C12 UNK     1      32.490 -14.635  30.952  1.00  0.00     0.040 A 
HETATM   33 Cl1  UNK     1      33.452 -13.699  29.867  1.00  0.00    -0.084 Cl
HETATM   34  C19 UNK     1      32.486 -16.023  30.816  1.00  0.00     0.024 A 
HETATM   35  C24 UNK     1      31.718 -16.806  31.678  1.00  0.00     0.002 A 
HETATM   36  C20 UNK     1      30.954 -16.201  32.676  1.00  0.00     0.001 A 
HETATM   37  C13 UNK     1      30.957 -14.813  32.812  1.00  0.00     0.009 A 
ENDBRANCH   4  31
TORSDOF 2
ENDMDL
MODEL 2
REMARK VINA RESULT:      -9.4      1.613      2.028
REMARK  2 active torsions:
REMARK  status: ('A' for Active; 'I' for Inactive)
REMARK    1  A    between atoms: C1_7  and  C8_14 
REMARK    2  A    between atoms: C6_12  and  C9_15 
ROOT
HETATM    1  O1  UNK     1      34.124 -11.436  33.073  1.00  0.00    -0.293 OA
HETATM    2  N1  UNK     1      29.558 -10.599  31.771  1.00  0.00    -0.357 N 
HETATM    3  N2  UNK     1      31.855  -8.789  31.078  1.00  0.00    -0.375 N 
HETATM    4  C1  UNK     1      31.548 -13.737  32.070  1.00  0.00     0.033 C 
HETATM    5  C2  UNK     1      30.330 -12.830  32.263  1.00  0.00     0.067 C 
HETATM    6  C3  UNK     1      31.909 -10.886  32.364  1.00  0.00     0.037 C 
HETATM    7  C4  UNK     1      30.663 -11.351  32.125  1.00  0.00     0.022 C 
HETATM    8  C5  UNK     1      32.654 -13.298  33.020  1.00  0.00     0.093 C 
HETATM    9  C6  UNK     1      32.303  -9.432  32.303  1.00  0.00     0.160 C 
HETATM   10  C7  UNK     1      32.990 -11.840  32.814  1.00  0.00     0.160 C 
HETATM   11  C10 UNK     1      29.447  -9.348  31.133  1.00  0.00     0.059 A 
HETATM   12  C11 UNK     1      30.531  -8.538  30.750  1.00  0.00     0.055 A 
HETATM   13  C16 UNK     1      28.137  -8.922  30.810  1.00  0.00     0.032 A 
HETATM   14  C17 UNK     1      30.264  -7.359  30.020  1.00  0.00     0.031 A 
HETATM   15  C22 UNK     1      27.898  -7.745  30.104  1.00  0.00     0.002 A 
HETATM   16  C23 UNK     1      28.966  -6.964  29.699  1.00  0.00     0.002 A 
HETATM   17  H7  UNK     1      28.672 -11.082  31.893  1.00  0.00     0.166 HD
HETATM   18  H8  UNK     1      32.549  -8.229  30.594  1.00  0.00     0.160 HD
ENDROOT
BRANCH   9  19
HETATM   19  C9  UNK     1      31.865  -8.653  33.508  1.00  0.00     0.042 A 
HETATM   20  C14 UNK     1      32.310  -7.243  33.642  1.00  0.00     0.195 A 
HETATM   21  O3  UNK     1      33.020  -6.703  32.804  1.00  0.00    -0.287 OA
HETATM   22  C18 UNK     1      31.851  -6.524  34.845  1.00  0.00     0.049 A 
HETATM   23  C25 UNK     1      32.217  -5.193  35.063  1.00  0.00     0.025 A 
HETATM   24  C21 UNK     1      31.044  -7.191  35.768  1.00  0.00     0.089 A 
HETATM   25  C27 UNK     1      31.770  -4.535  36.208  1.00  0.00    -0.061 A 
HETATM   26  C29 UNK     1      32.154  -3.114  36.448  1.00  0.00     0.048 C 
HETATM   27  C28 UNK     1      30.962  -5.201  37.131  1.00  0.00     0.009 A 
HETATM   28  C26 UNK     1      30.598  -6.530  36.912  1.00  0.00     0.039 A 
HETATM   29  O2  UNK     1      30.654  -8.497  35.604  1.00  0.00    -0.321 OA
HETATM   30  C15 UNK     1      31.090  -9.154  34.480  1.00  0.00     0.156 A 
ENDBRANCH   9  19
BRANCH   4  31
HETATM   31  C8  UNK     1      31.199 -15.205  32.235  1.00  0.00    -0.032 A 
HETATM   32  C12 UNK     1      31.412 -16.127  31.210  1.00  0.00     0.040 A 
HETATM   33 Cl1  UNK     1      32.084 -15.646  29.696  1.00  0.00    -0.084 Cl
HETATM   34  C19 UNK     1      31.078 -17.469  31.399  1.00  0.00     0.024 A 
HETATM   35  C24 UNK     1      30.533 -17.888  32.613  1.00  0.00     0.002 A 
HETATM   36  C20 UNK     1      30.320 -16.966  33.637  1.00  0.00     0.001 A 
HETATM   37  C13 UNK     1      30.653 -15.624  33.449  1.00  0.00     0.009 A 
ENDBRANCH   4  31
TORSDOF 2
ENDMDL
MODEL 3
REMARK VINA RESULT:      -9.4     31.724     34.352
REMARK  2 active torsions:
REMARK  status: ('A' for Active; 'I' for Inactive)
REMARK    1  A    between atoms: C1_7  and  C8_14 
REMARK    2  A    between atoms: C6_12  and  C9_15 
ROOT
HETATM    1  O1  UNK     1      19.516  12.922  13.131  1.00  0.00    -0.293 OA
HETATM    2  N1  UNK     1      20.293  12.784   8.376  1.00  0.00    -0.357 N 
HETATM    3  N2  UNK     1      17.909  14.102   9.645  1.00  0.00    -0.375 N 
HETATM    4  C1  UNK     1      22.595  13.147  11.285  1.00  0.00     0.033 C 
HETATM    5  C2  UNK     1      22.111  12.583   9.946  1.00  0.00     0.067 C 
HETATM    6  C3  UNK     1      19.763  12.927  10.754  1.00  0.00     0.037 C 
HETATM    7  C4  UNK     1      20.620  12.790   9.718  1.00  0.00     0.022 C 
HETATM    8  C5  UNK     1      21.748  12.565  12.408  1.00  0.00     0.093 C 
HETATM    9  C6  UNK     1      18.270  13.079  10.612  1.00  0.00     0.160 C 
HETATM   10  C7  UNK     1      20.281  12.837  12.170  1.00  0.00     0.160 C 
HETATM   11  C10 UNK     1      19.201  13.339   7.680  1.00  0.00     0.059 A 
HETATM   12  C11 UNK     1      18.122  14.015   8.278  1.00  0.00     0.055 A 
HETATM   13  C16 UNK     1      19.243  13.249   6.268  1.00  0.00     0.032 A 
HETATM   14  C17 UNK     1      17.155  14.612   7.439  1.00  0.00     0.031 A 
HETATM   15  C22 UNK     1      18.268  13.831   5.462  1.00  0.00     0.002 A 
HETATM   16  C23 UNK     1      17.223  14.524   6.049  1.00  0.00     0.002 A 
HETATM   17  H7  UNK     1      21.021  12.411   7.773  1.00  0.00     0.166 HD
HETATM   18  H8  UNK     1      17.198  14.762   9.945  1.00  0.00     0.160 HD
ENDROOT
BRANCH   9  19
HETATM   19  C9  UNK     1      17.574  11.785  10.308  1.00  0.00     0.042 A 
HETATM   20  C14 UNK     1      16.090  11.771  10.262  1.00  0.00     0.195 A 
HETATM   21  O3  UNK     1      15.424  12.777  10.464  1.00  0.00    -0.287 OA
HETATM   22  C18 UNK     1      15.458  10.474   9.959  1.00  0.00     0.049 A 
HETATM   23  C25 UNK     1      14.067  10.357   9.894  1.00  0.00     0.025 A 
HETATM   24  C21 UNK     1      16.268   9.359   9.738  1.00  0.00     0.089 A 
HETATM   25  C27 UNK     1      13.492   9.119   9.605  1.00  0.00    -0.061 A 
HETATM   26  C29 UNK     1      12.008   8.986   9.532  1.00  0.00     0.048 C 
HETATM   27  C28 UNK     1      14.302   8.004   9.384  1.00  0.00     0.009 A 
HETATM   28  C26 UNK     1      15.691   8.122   9.450  1.00  0.00     0.039 A 
HETATM   29  O2  UNK     1      17.638   9.416   9.790  1.00  0.00    -0.321 OA
HETATM   30  C15 UNK     1      18.213  10.630  10.073  1.00  0.00     0.156 A 
ENDBRANCH   9  19
BRANCH   4  31
HETATM   31  C8  UNK     1      24.078  12.910  11.502  1.00  0.00    -0.032 A 
HETATM   32  C12 UNK     1      24.777  13.543  12.530  1.00  0.00     0.040 A 
HETATM   33 Cl1  UNK     1      23.991  14.634  13.611  1.00  0.00    -0.084 Cl
HETATM   34  C19 UNK     1      26.141  13.300  12.698  1.00  0.00     0.024 A 
HETATM   35  C24 UNK     1      26.804  12.423  11.839  1.00  0.00     0.002 A 
HETATM   36  C20 UNK     1      26.105  11.790  10.812  1.00  0.00     0.001 A 
HETATM   37  C13 UNK     1      24.741  12.033  10.643  1.00  0.00     0.009 A 
ENDBRANCH   4  31
TORSDOF 2
ENDMDL
MODEL 4
REMARK VINA RESULT:      -9.4     32.899     34.623
REMARK  2 active torsions:
REMARK  status: ('A' for Active; 'I' for Inactive)
REMARK    1  A    between atoms: C1_7  and  C8_14 
REMARK    2  A    between atoms: C6_12  and  C9_15 
ROOT
HETATM    1  O1  UNK     1      17.587   8.019  10.262  1.00  0.00    -0.293 OA
HETATM    2  N1  UNK     1      15.838  11.871   7.951  1.00  0.00    -0.357 N 
HETATM    3  N2  UNK     1      18.716  11.015   7.837  1.00  0.00    -0.375 N 
HETATM    4  C1  UNK     1      14.406   8.502   8.654  1.00  0.00     0.033 C 
HETATM    5  C2  UNK     1      14.410  10.031   8.574  1.00  0.00     0.067 C 
HETATM    6  C3  UNK     1      16.866   9.959   9.067  1.00  0.00     0.037 C 
HETATM    7  C4  UNK     1      15.813  10.621   8.540  1.00  0.00     0.022 C 
HETATM    8  C5  UNK     1      15.252   8.062   9.840  1.00  0.00     0.093 C 
HETATM    9  C6  UNK     1      18.273  10.500   9.122  1.00  0.00     0.160 C 
HETATM   10  C7  UNK     1      16.650   8.625   9.740  1.00  0.00     0.160 C 
HETATM   11  C10 UNK     1      16.878  12.586   7.324  1.00  0.00     0.059 A 
HETATM   12  C11 UNK     1      18.209  12.146   7.216  1.00  0.00     0.055 A 
HETATM   13  C16 UNK     1      16.518  13.811   6.713  1.00  0.00     0.032 A 
HETATM   14  C17 UNK     1      19.115  12.924   6.461  1.00  0.00     0.031 A 
HETATM   15  C22 UNK     1      17.435  14.570   5.989  1.00  0.00     0.002 A 
HETATM   16  C23 UNK     1      18.737  14.121   5.855  1.00  0.00     0.002 A 
HETATM   17  H7  UNK     1      14.923  12.304   7.857  1.00  0.00     0.166 HD
HETATM   18  H8  UNK     1      19.638  10.715   7.536  1.00  0.00     0.160 HD
ENDROOT
BRANCH   9  19
HETATM   19  C9  UNK     1      18.469  11.520  10.205  1.00  0.00     0.042 A 
HETATM   20  C14 UNK     1      19.845  12.003  10.483  1.00  0.00     0.195 A 
HETATM   21  O3  UNK     1      20.816  11.596   9.860  1.00  0.00    -0.287 OA
HETATM   22  C18 UNK     1      19.980  13.005  11.557  1.00  0.00     0.049 A 
HETATM   23  C25 UNK     1      21.235  13.521  11.896  1.00  0.00     0.025 A 
HETATM   24  C21 UNK     1      18.838  13.432  12.236  1.00  0.00     0.089 A 
HETATM   25  C27 UNK     1      21.337  14.468  12.915  1.00  0.00    -0.061 A 
HETATM   26  C29 UNK     1      22.671  15.025  13.281  1.00  0.00     0.048 C 
HETATM   27  C28 UNK     1      20.195  14.896  13.593  1.00  0.00     0.009 A 
HETATM   28  C26 UNK     1      18.944  14.378  13.254  1.00  0.00     0.039 A 
HETATM   29  O2  UNK     1      17.584  12.959  11.945  1.00  0.00    -0.321 OA
HETATM   30  C15 UNK     1      17.472  12.026  10.943  1.00  0.00     0.156 A 
ENDBRANCH   9  19
BRANCH   4  31
HETATM   31  C8  UNK     1      12.999   7.937   8.710  1.00  0.00    -0.032 A 
HETATM   32  C12 UNK     1      12.739   6.592   8.445  1.00  0.00     0.040 A 
HETATM   33 Cl1  UNK     1      14.009   5.498   8.035  1.00  0.00    -0.084 Cl
HETATM   34  C19 UNK     1      11.432   6.109   8.507  1.00  0.00     0.024 A 
HETATM   35  C24 UNK     1      10.385   6.970   8.836  1.00  0.00     0.002 A 
HETATM   36  C20 UNK     1      10.645   8.314   9.101  1.00  0.00     0.001 A 
HETATM   37  C13 UNK     1      11.952   8.798   9.039  1.00  0.00     0.009 A 
ENDBRANCH   4  31
TORSDOF 2
ENDMDL
MODEL 5
REMARK VINA RESULT:      -9.3      3.980      6.551
REMARK  2 active torsions:
REMARK  status: ('A' for Active; 'I' for Inactive)
REMARK    1  A    between atoms: C1_7  and  C8_14 
REMARK    2  A    between atoms: C6_12  and  C9_15 
ROOT
HETATM    1  O1  UNK     1      33.338 -12.180  30.593  1.00  0.00    -0.293 OA
HETATM    2  N1  UNK     1      34.150  -9.172  34.271  1.00  0.00    -0.357 N 
HETATM    3  N2  UNK     1      31.710 -10.910  34.038  1.00  0.00    -0.375 N 
HETATM    4  C1  UNK     1      36.418 -11.326  32.242  1.00  0.00     0.033 C 
HETATM    5  C2  UNK     1      35.964 -10.042  32.942  1.00  0.00     0.067 C 
HETATM    6  C3  UNK     1      33.600 -10.729  32.474  1.00  0.00     0.037 C 
HETATM    7  C4  UNK     1      34.468 -10.013  33.222  1.00  0.00     0.022 C 
HETATM    8  C5  UNK     1      35.586 -11.529  30.984  1.00  0.00     0.093 C 
HETATM    9  C6  UNK     1      32.103 -10.711  32.652  1.00  0.00     0.160 C 
HETATM   10  C7  UNK     1      34.112 -11.547  31.312  1.00  0.00     0.160 C 
HETATM   11  C10 UNK     1      33.043  -9.144  35.141  1.00  0.00     0.059 A 
HETATM   12  C11 UNK     1      31.935 -10.007  35.066  1.00  0.00     0.055 A 
HETATM   13  C16 UNK     1      33.098  -8.205  36.199  1.00  0.00     0.032 A 
HETATM   14  C17 UNK     1      30.951  -9.928  36.077  1.00  0.00     0.031 A 
HETATM   15  C22 UNK     1      32.106  -8.135  37.174  1.00  0.00     0.002 A 
HETATM   16  C23 UNK     1      31.032  -9.006  37.119  1.00  0.00     0.002 A 
HETATM   17  H7  UNK     1      34.897  -8.532  34.530  1.00  0.00     0.166 HD
HETATM   18  H8  UNK     1      30.973 -11.590  34.194  1.00  0.00     0.160 HD
ENDROOT
BRANCH   9  19
HETATM   19  C9  UNK     1      31.459  -9.481  32.083  1.00  0.00     0.042 A 
HETATM   20  C14 UNK     1      29.980  -9.446  31.962  1.00  0.00     0.195 A 
HETATM   21  O3  UNK     1      29.277 -10.385  32.309  1.00  0.00    -0.287 OA
HETATM   22  C18 UNK     1      29.399  -8.214  31.397  1.00  0.00     0.049 A 
HETATM   23  C25 UNK     1      28.016  -8.084  31.241  1.00  0.00     0.025 A 
HETATM   24  C21 UNK     1      30.250  -7.175  31.017  1.00  0.00     0.089 A 
HETATM   25  C27 UNK     1      27.491  -6.909  30.705  1.00  0.00    -0.061 A 
HETATM   26  C29 UNK     1      26.016  -6.761  30.536  1.00  0.00     0.048 C 
HETATM   27  C28 UNK     1      28.341  -5.869  30.325  1.00  0.00     0.009 A 
HETATM   28  C26 UNK     1      29.722  -6.001  30.481  1.00  0.00     0.039 A 
HETATM   29  O2  UNK     1      31.613  -7.248  31.148  1.00  0.00    -0.321 OA
HETATM   30  C15 UNK     1      32.140  -8.402  31.675  1.00  0.00     0.156 A 
ENDBRANCH   9  19
BRANCH   4  31
HETATM   31  C8  UNK     1      37.907 -11.323  31.953  1.00  0.00    -0.032 A 
HETATM   32  C12 UNK     1      38.839 -11.734  32.906  1.00  0.00     0.040 A 
HETATM   33 Cl1  UNK     1      38.345 -12.265  34.472  1.00  0.00    -0.084 Cl
HETATM   34  C19 UNK     1      40.200 -11.717  32.603  1.00  0.00     0.024 A 
HETATM   35  C24 UNK     1      40.630 -11.293  31.346  1.00  0.00     0.002 A 
HETATM   36  C20 UNK     1      39.698 -10.883  30.392  1.00  0.00     0.001 A 
HETATM   37  C13 UNK     1      38.337 -10.899  30.695  1.00  0.00     0.009 A 
ENDBRANCH   4  31
TORSDOF 2
ENDMDL
MODEL 6
REMARK VINA RESULT:      -9.2     32.567     35.723
REMARK  2 active torsions:
REMARK  status: ('A' for Active; 'I' for Inactive)
REMARK    1  A    between atoms: C1_7  and  C8_14 
REMARK    2  A    between atoms: C6_12  and  C9_15 
ROOT
HETATM    1  O1  UNK     1      14.688  12.266   8.115  1.00  0.00    -0.293 OA
HETATM    2  N1  UNK     1      18.947  10.814   9.845  1.00  0.00    -0.357 N 
HETATM    3  N2  UNK     1      17.938  13.638  10.037  1.00  0.00    -0.375 N 
HETATM    4  C1  UNK     1      15.608   9.164   9.686  1.00  0.00     0.033 C 
HETATM    5  C2  UNK     1      17.129   9.262   9.534  1.00  0.00     0.067 C 
HETATM    6  C3  UNK     1      16.828  11.695   9.013  1.00  0.00     0.037 C 
HETATM    7  C4  UNK     1      17.627  10.698   9.453  1.00  0.00     0.022 C 
HETATM    8  C5  UNK     1      14.942   9.950   8.566  1.00  0.00     0.093 C 
HETATM    9  C6  UNK     1      17.264  13.130   8.853  1.00  0.00     0.160 C 
HETATM   10  C7  UNK     1      15.424  11.381   8.555  1.00  0.00     0.160 C 
HETATM   11  C10 UNK     1      19.681  11.911  10.338  1.00  0.00     0.059 A 
HETATM   12  C11 UNK     1      19.179  13.215  10.488  1.00  0.00     0.055 A 
HETATM   13  C16 UNK     1      21.004  11.642  10.762  1.00  0.00     0.032 A 
HETATM   14  C17 UNK     1      20.003  14.187  11.100  1.00  0.00     0.031 A 
HETATM   15  C22 UNK     1      21.804  12.622  11.346  1.00  0.00     0.002 A 
HETATM   16  C23 UNK     1      21.299  13.898  11.524  1.00  0.00     0.002 A 
HETATM   17  H7  UNK     1      19.446   9.929   9.888  1.00  0.00     0.166 HD
HETATM   18  H8  UNK     1      17.629  14.548  10.364  1.00  0.00     0.160 HD
ENDROOT
BRANCH   9  19
HETATM   19  C9  UNK     1      18.095  13.357   7.624  1.00  0.00     0.042 A 
HETATM   20  C14 UNK     1      18.610  14.724   7.360  1.00  0.00     0.195 A 
HETATM   21  O3  UNK     1      18.376  15.664   8.108  1.00  0.00    -0.287 OA
HETATM   22  C18 UNK     1      19.420  14.892   6.139  1.00  0.00     0.049 A 
HETATM   23  C25 UNK     1      19.949  16.141   5.801  1.00  0.00     0.025 A 
HETATM   24  C21 UNK     1      19.653  13.786   5.321  1.00  0.00     0.089 A 
HETATM   25  C27 UNK     1      20.713  16.274   4.642  1.00  0.00    -0.061 A 
HETATM   26  C29 UNK     1      21.283  17.603   4.274  1.00  0.00     0.048 C 
HETATM   27  C28 UNK     1      20.947  15.168   3.824  1.00  0.00     0.009 A 
HETATM   28  C26 UNK     1      20.418  13.922   4.163  1.00  0.00     0.039 A 
HETATM   29  O2  UNK     1      19.159  12.538   5.605  1.00  0.00    -0.321 OA
HETATM   30  C15 UNK     1      18.405  12.396   6.744  1.00  0.00     0.156 A 
ENDBRANCH   9  19
BRANCH   4  31
HETATM   31  C8  UNK     1      15.131   7.725   9.741  1.00  0.00    -0.032 A 
HETATM   32  C12 UNK     1      13.774   7.405   9.789  1.00  0.00     0.040 A 
HETATM   33 Cl1  UNK     1      12.563   8.634   9.791  1.00  0.00    -0.084 Cl
HETATM   34  C19 UNK     1      13.374   6.069   9.839  1.00  0.00     0.024 A 
HETATM   35  C24 UNK     1      14.330   5.054   9.838  1.00  0.00     0.002 A 
HETATM   36  C20 UNK     1      15.687   5.374   9.790  1.00  0.00     0.001 A 
HETATM   37  C13 UNK     1      16.088   6.709   9.741  1.00  0.00     0.009 A 
ENDBRANCH   4  31
TORSDOF 2
ENDMDL
MODEL 7
REMARK VINA RESULT:      -9.2      2.888      8.649
REMARK  2 active torsions:
REMARK  status: ('A' for Active; 'I' for Inactive)
REMARK    1  A    between atoms: C1_7  and  C8_14 
REMARK    2  A    between atoms: C6_12  and  C9_15 
ROOT
HETATM    1  O1  UNK     1      28.440  -8.268  32.971  1.00  0.00    -0.293 OA
HETATM    2  N1  UNK     1      33.077  -8.539  34.260  1.00  0.00    -0.357 N 
HETATM    3  N2  UNK     1      32.112  -8.769  31.423  1.00  0.00    -0.375 N 
HETATM    4  C1  UNK     1      30.237  -6.482  35.524  1.00  0.00     0.033 C 
HETATM    5  C2  UNK     1      31.461  -7.394  35.635  1.00  0.00     0.067 C 
HETATM    6  C3  UNK     1      30.774  -8.430  33.459  1.00  0.00     0.037 C 
HETATM    7  C4  UNK     1      31.751  -8.160  34.352  1.00  0.00     0.022 C 
HETATM    8  C5  UNK     1      29.044  -7.302  35.052  1.00  0.00     0.093 C 
HETATM    9  C6  UNK     1      30.970  -9.229  32.195  1.00  0.00     0.160 C 
HETATM   10  C7  UNK     1      29.355  -8.002  33.750  1.00  0.00     0.160 C 
HETATM   11  C10 UNK     1      33.882  -8.852  33.147  1.00  0.00     0.059 A 
HETATM   12  C11 UNK     1      33.437  -8.890  31.814  1.00  0.00     0.055 A 
HETATM   13  C16 UNK     1      35.254  -9.084  33.409  1.00  0.00     0.032 A 
HETATM   14  C17 UNK     1      34.389  -9.113  30.793  1.00  0.00     0.031 A 
HETATM   15  C22 UNK     1      36.170  -9.320  32.387  1.00  0.00     0.002 A 
HETATM   16  C23 UNK     1      35.738  -9.325  31.072  1.00  0.00     0.002 A 
HETATM   17  H7  UNK     1      33.589  -8.474  35.136  1.00  0.00     0.166 HD
HETATM   18  H8  UNK     1      31.950  -8.637  30.430  1.00  0.00     0.160 HD
ENDROOT
BRANCH   9  19
HETATM   19  C9  UNK     1      31.049 -10.707  32.441  1.00  0.00     0.042 A 
HETATM   20  C14 UNK     1      31.095 -11.619  31.270  1.00  0.00     0.195 A 
HETATM   21  O3  UNK     1      31.069 -11.203  30.120  1.00  0.00    -0.287 OA
HETATM   22  C18 UNK     1      31.173 -13.061  31.568  1.00  0.00     0.049 A 
HETATM   23  C25 UNK     1      31.219 -14.001  30.534  1.00  0.00     0.025 A 
HETATM   24  C21 UNK     1      31.198 -13.479  32.899  1.00  0.00     0.089 A 
HETATM   25  C27 UNK     1      31.293 -15.359  30.841  1.00  0.00    -0.061 A 
HETATM   26  C29 UNK     1      31.345 -16.369  29.744  1.00  0.00     0.048 C 
HETATM   27  C28 UNK     1      31.319 -15.778  32.173  1.00  0.00     0.009 A 
HETATM   28  C26 UNK     1      31.272 -14.838  33.203  1.00  0.00     0.039 A 
HETATM   29  O2  UNK     1      31.155 -12.601  33.952  1.00  0.00    -0.321 OA
HETATM   30  C15 UNK     1      31.082 -11.261  33.660  1.00  0.00     0.156 A 
ENDBRANCH   9  19
BRANCH   4  31
HETATM   31  C8  UNK     1      29.952  -5.747  36.820  1.00  0.00    -0.032 A 
HETATM   32  C12 UNK     1      30.657  -4.598  37.180  1.00  0.00     0.040 A 
HETATM   33 Cl1  UNK     1      31.897  -3.953  36.168  1.00  0.00    -0.084 Cl
HETATM   34  C19 UNK     1      30.367  -3.949  38.380  1.00  0.00     0.024 A 
HETATM   35  C24 UNK     1      29.370  -4.447  39.220  1.00  0.00     0.002 A 
HETATM   36  C20 UNK     1      28.665  -5.595  38.859  1.00  0.00     0.001 A 
HETATM   37  C13 UNK     1      28.955  -6.245  37.659  1.00  0.00     0.009 A 
ENDBRANCH   4  31
TORSDOF 2
ENDMDL
MODEL 8
REMARK VINA RESULT:      -9.1     19.868     23.537
REMARK  2 active torsions:
REMARK  status: ('A' for Active; 'I' for Inactive)
REMARK    1  A    between atoms: C1_7  and  C8_14 
REMARK    2  A    between atoms: C6_12  and  C9_15 
ROOT
HETATM    1  O1  UNK     1      20.033  -3.787  11.132  1.00  0.00    -0.293 OA
HETATM    2  N1  UNK     1      17.788  -6.959  13.984  1.00  0.00    -0.357 N 
HETATM    3  N2  UNK     1      17.887  -4.004  14.519  1.00  0.00    -0.375 N 
HETATM    4  C1  UNK     1      18.175  -6.747  10.282  1.00  0.00     0.033 C 
HETATM    5  C2  UNK     1      18.179  -7.431  11.652  1.00  0.00     0.067 C 
HETATM    6  C3  UNK     1      18.887  -5.241  12.643  1.00  0.00     0.037 C 
HETATM    7  C4  UNK     1      18.303  -6.448  12.808  1.00  0.00     0.022 C 
HETATM    8  C5  UNK     1      19.407  -5.861  10.163  1.00  0.00     0.093 C 
HETATM    9  C6  UNK     1      19.097  -4.237  13.748  1.00  0.00     0.160 C 
HETATM   10  C7  UNK     1      19.464  -4.866  11.298  1.00  0.00     0.160 C 
HETATM   11  C10 UNK     1      17.297  -6.322  15.141  1.00  0.00     0.059 A 
HETATM   12  C11 UNK     1      17.285  -4.933  15.354  1.00  0.00     0.055 A 
HETATM   13  C16 UNK     1      16.723  -7.163  16.125  1.00  0.00     0.032 A 
HETATM   14  C17 UNK     1      16.658  -4.437  16.519  1.00  0.00     0.031 A 
HETATM   15  C22 UNK     1      16.127  -6.651  17.275  1.00  0.00     0.002 A 
HETATM   16  C23 UNK     1      16.086  -5.281  17.469  1.00  0.00     0.002 A 
HETATM   17  H7  UNK     1      17.636  -7.964  13.968  1.00  0.00     0.166 HD
HETATM   18  H8  UNK     1      17.654  -3.031  14.692  1.00  0.00     0.160 HD
ENDROOT
BRANCH   9  19
HETATM   19  C9  UNK     1      20.247  -4.584  14.646  1.00  0.00     0.042 A 
HETATM   20  C14 UNK     1      20.739  -3.556  15.598  1.00  0.00     0.195 A 
HETATM   21  O3  UNK     1      20.239  -2.442  15.669  1.00  0.00    -0.287 OA
HETATM   22  C18 UNK     1      21.871  -3.951  16.457  1.00  0.00     0.049 A 
HETATM   23  C25 UNK     1      22.408  -3.053  17.385  1.00  0.00     0.025 A 
HETATM   24  C21 UNK     1      22.404  -5.234  16.332  1.00  0.00     0.089 A 
HETATM   25  C27 UNK     1      23.478  -3.450  18.187  1.00  0.00    -0.061 A 
HETATM   26  C29 UNK     1      24.056  -2.499  19.181  1.00  0.00     0.048 C 
HETATM   27  C28 UNK     1      24.011  -4.734  18.063  1.00  0.00     0.009 A 
HETATM   28  C26 UNK     1      23.474  -5.628  17.135  1.00  0.00     0.039 A 
HETATM   29  O2  UNK     1      21.916  -6.155  15.439  1.00  0.00    -0.321 OA
HETATM   30  C15 UNK     1      20.863  -5.774  14.645  1.00  0.00     0.156 A 
ENDBRANCH   9  19
BRANCH   4  31
HETATM   31  C8  UNK     1      18.074  -7.746   9.145  1.00  0.00    -0.032 A 
HETATM   32  C12 UNK     1      16.840  -8.210   8.686  1.00  0.00     0.040 A 
HETATM   33 Cl1  UNK     1      15.361  -7.672   9.392  1.00  0.00    -0.084 Cl
HETATM   34  C19 UNK     1      16.788  -9.129   7.638  1.00  0.00     0.024 A 
HETATM   35  C24 UNK     1      17.967  -9.582   7.047  1.00  0.00     0.002 A 
HETATM   36  C20 UNK     1      19.200  -9.118   7.505  1.00  0.00     0.001 A 
HETATM   37  C13 UNK     1      19.253  -8.200   8.554  1.00  0.00     0.009 A 
ENDBRANCH   4  31
TORSDOF 2
ENDMDL
MODEL 9
REMARK VINA RESULT:      -9.0      3.503      8.438
REMARK  2 active torsions:
REMARK  status: ('A' for Active; 'I' for Inactive)
REMARK    1  A    between atoms: C1_7  and  C8_14 
REMARK    2  A    between atoms: C6_12  and  C9_15 
ROOT
HETATM    1  O1  UNK     1      31.707 -10.696  35.983  1.00  0.00    -0.293 OA
HETATM    2  N1  UNK     1      31.488  -7.311  32.558  1.00  0.00    -0.357 N 
HETATM    3  N2  UNK     1      31.193 -10.253  32.024  1.00  0.00    -0.375 N 
HETATM    4  C1  UNK     1      30.305  -7.386  36.092  1.00  0.00     0.033 C 
HETATM    5  C2  UNK     1      30.996  -6.794  34.861  1.00  0.00     0.067 C 
HETATM    6  C3  UNK     1      31.583  -9.133  34.179  1.00  0.00     0.037 C 
HETATM    7  C4  UNK     1      31.372  -7.846  33.827  1.00  0.00     0.022 C 
HETATM    8  C5  UNK     1      31.178  -8.489  36.674  1.00  0.00     0.093 C 
HETATM    9  C6  UNK     1      32.012 -10.220  33.225  1.00  0.00     0.160 C 
HETATM   10  C7  UNK     1      31.483  -9.538  35.631  1.00  0.00     0.160 C 
HETATM   11  C10 UNK     1      31.385  -7.902  31.284  1.00  0.00     0.059 A 
HETATM   12  C11 UNK     1      31.179  -9.272  31.044  1.00  0.00     0.055 A 
HETATM   13  C16 UNK     1      31.438  -7.022  30.176  1.00  0.00     0.032 A 
HETATM   14  C17 UNK     1      30.987  -9.700  29.711  1.00  0.00     0.031 A 
HETATM   15  C22 UNK     1      31.264  -7.471  28.869  1.00  0.00     0.002 A 
HETATM   16  C23 UNK     1      31.028  -8.815  28.635  1.00  0.00     0.002 A 
HETATM   17  H7  UNK     1      31.549  -6.296  32.540  1.00  0.00     0.166 HD
HETATM   18  H8  UNK     1      30.858 -11.170  31.744  1.00  0.00     0.160 HD
ENDROOT
BRANCH   9  19
HETATM   19  C9  UNK     1      33.470 -10.156  32.879  1.00  0.00     0.042 A 
HETATM   20  C14 UNK     1      34.015 -11.149  31.919  1.00  0.00     0.195 A 
HETATM   21  O3  UNK     1      33.315 -12.012  31.408  1.00  0.00    -0.287 OA
HETATM   22  C18 UNK     1      35.454 -11.041  31.614  1.00  0.00     0.049 A 
HETATM   23  C25 UNK     1      36.062 -11.931  30.724  1.00  0.00     0.025 A 
HETATM   24  C21 UNK     1      36.205 -10.038  32.228  1.00  0.00     0.089 A 
HETATM   25  C27 UNK     1      37.425 -11.808  30.451  1.00  0.00    -0.061 A 
HETATM   26  C29 UNK     1      38.081 -12.752  29.501  1.00  0.00     0.048 C 
HETATM   27  C28 UNK     1      38.176 -10.804  31.064  1.00  0.00     0.009 A 
HETATM   28  C26 UNK     1      37.567  -9.918  31.953  1.00  0.00     0.039 A 
HETATM   29  O2  UNK     1      35.660  -9.139  33.109  1.00  0.00    -0.321 OA
HETATM   30  C15 UNK     1      34.319  -9.251  33.384  1.00  0.00     0.156 A 
ENDBRANCH   9  19
BRANCH   4  31
HETATM   31  C8  UNK     1      29.960  -6.324  37.119  1.00  0.00    -0.032 A 
HETATM   32  C12 UNK     1      29.075  -6.580  38.168  1.00  0.00     0.040 A 
HETATM   33 Cl1  UNK     1      28.323  -8.122  38.350  1.00  0.00    -0.084 Cl
HETATM   34  C19 UNK     1      28.783  -5.578  39.093  1.00  0.00     0.024 A 
HETATM   35  C24 UNK     1      29.376  -4.321  38.971  1.00  0.00     0.002 A 
HETATM   36  C20 UNK     1      30.260  -4.066  37.924  1.00  0.00     0.001 A 
HETATM   37  C13 UNK     1      30.553  -5.067  36.998  1.00  0.00     0.009 A 
ENDBRANCH   4  31
TORSDOF 2
ENDMDL
MODEL 10
REMARK VINA RESULT:      -9.0      3.956      4.977
REMARK  2 active torsions:
REMARK  status: ('A' for Active; 'I' for Inactive)
REMARK    1  A    between atoms: C1_7  and  C8_14 
REMARK    2  A    between atoms: C6_12  and  C9_15 
ROOT
HETATM    1  O1  UNK     1      36.432  -6.942  32.623  1.00  0.00    -0.293 OA
HETATM    2  N1  UNK     1      33.452 -10.701  33.096  1.00  0.00    -0.357 N 
HETATM    3  N2  UNK     1      32.597  -8.005  32.080  1.00  0.00    -0.375 N 
HETATM    4  C1  UNK     1      37.025 -10.445  32.067  1.00  0.00     0.033 C 
HETATM    5  C2  UNK     1      35.828 -11.014  32.833  1.00  0.00     0.067 C 
HETATM    6  C3  UNK     1      34.837  -8.712  32.811  1.00  0.00     0.037 C 
HETATM    7  C4  UNK     1      34.654 -10.047  32.904  1.00  0.00     0.022 C 
HETATM    8  C5  UNK     1      37.412  -9.102  32.670  1.00  0.00     0.093 C 
HETATM    9  C6  UNK     1      33.735  -7.689  32.928  1.00  0.00     0.160 C 
HETATM   10  C7  UNK     1      36.235  -8.156  32.673  1.00  0.00     0.160 C 
HETATM   11  C10 UNK     1      32.127 -10.321  32.804  1.00  0.00     0.059 A 
HETATM   12  C11 UNK     1      31.743  -9.081  32.265  1.00  0.00     0.055 A 
HETATM   13  C16 UNK     1      31.130 -11.301  33.025  1.00  0.00     0.032 A 
HETATM   14  C17 UNK     1      30.385  -8.888  31.924  1.00  0.00     0.031 A 
HETATM   15  C22 UNK     1      29.794 -11.080  32.698  1.00  0.00     0.002 A 
HETATM   16  C23 UNK     1      29.421  -9.871  32.136  1.00  0.00     0.002 A 
HETATM   17  H7  UNK     1      33.549 -11.667  33.399  1.00  0.00     0.166 HD
HETATM   18  H8  UNK     1      32.236  -7.238  31.523  1.00  0.00     0.160 HD
ENDROOT
BRANCH   9  19
HETATM   19  C9  UNK     1      33.300  -7.454  34.344  1.00  0.00     0.042 A 
HETATM   20  C14 UNK     1      32.328  -6.364  34.616  1.00  0.00     0.195 A 
HETATM   21  O3  UNK     1      31.877  -5.658  33.724  1.00  0.00    -0.287 OA
HETATM   22  C18 UNK     1      31.934  -6.177  36.024  1.00  0.00     0.049 A 
HETATM   23  C25 UNK     1      31.026  -5.176  36.382  1.00  0.00     0.025 A 
HETATM   24  C21 UNK     1      32.482  -7.011  36.999  1.00  0.00     0.089 A 
HETATM   25  C27 UNK     1      30.668  -5.019  37.722  1.00  0.00    -0.061 A 
HETATM   26  C29 UNK     1      29.698  -3.956  38.113  1.00  0.00     0.048 C 
HETATM   27  C28 UNK     1      31.215  -5.854  38.698  1.00  0.00     0.009 A 
HETATM   28  C26 UNK     1      32.122  -6.851  38.338  1.00  0.00     0.039 A 
HETATM   29  O2  UNK     1      33.377  -8.008  36.704  1.00  0.00    -0.321 OA
HETATM   30  C15 UNK     1      33.735  -8.171  35.389  1.00  0.00     0.156 A 
ENDBRANCH   9  19
BRANCH   4  31
HETATM   31  C8  UNK     1      38.191 -11.415  32.028  1.00  0.00    -0.032 A 
HETATM   32  C12 UNK     1      38.957 -11.593  30.875  1.00  0.00     0.040 A 
HETATM   33 Cl1  UNK     1      38.615 -10.719  29.427  1.00  0.00    -0.084 Cl
HETATM   34  C19 UNK     1      40.022 -12.495  30.878  1.00  0.00     0.024 A 
HETATM   35  C24 UNK     1      40.323 -13.216  32.034  1.00  0.00     0.002 A 
HETATM   36  C20 UNK     1      39.558 -13.037  33.186  1.00  0.00     0.001 A 
HETATM   37  C13 UNK     1      38.492 -12.136  33.183  1.00  0.00     0.009 A 
ENDBRANCH   4  31
TORSDOF 2
ENDMDL
