MODEL 1
REMARK VINA RESULT:      -6.7      0.000      0.000
REMARK  1 active torsions:
REMARK  status: ('A' for Active; 'I' for Inactive)
REMARK    1  A    between atoms: C5_8  and  O2_2 
ROOT
HETATM    1  O1  UNK     1      18.692   1.534  31.681  1.00  0.00    -0.275 OA
HETATM    2  O3  UNK     1      17.675   3.578  31.862  1.00  0.00    -0.260 OA
HETATM    3  C1  UNK     1      19.214   0.663  29.470  1.00  0.00    -0.002 A 
HETATM    4  C2  UNK     1      19.226   0.523  30.854  1.00  0.00     0.092 A 
HETATM    5  C3  UNK     1      19.758  -0.605  31.473  1.00  0.00     0.075 A 
HETATM    6  C4  UNK     1      19.753  -0.359  28.684  1.00  0.00     0.017 A 
HETATM    7  C5  UNK     1      20.293  -1.620  30.683  1.00  0.00     0.070 A 
HETATM    8  C6  UNK     1      20.291  -1.497  29.292  1.00  0.00     0.038 A 
HETATM    9  C7  UNK     1      18.643   1.867  28.890  1.00  0.00     0.020 A 
HETATM   10  C8  UNK     1      18.140   2.819  29.680  1.00  0.00     0.083 A 
HETATM   11  C9  UNK     1      18.140   2.694  31.150  1.00  0.00     0.288 A 
ENDROOT
BRANCH   7  12
HETATM   12  O2  UNK     1      20.819  -2.733  31.266  1.00  0.00    -0.356 OA
HETATM   13  C10 UNK     1      20.977  -2.710  32.683  1.00  0.00     0.210 C 
ENDBRANCH   7  12
TORSDOF 1
ENDMDL
MODEL 2
REMARK VINA RESULT:      -6.6      1.071      4.677
REMARK  1 active torsions:
REMARK  status: ('A' for Active; 'I' for Inactive)
REMARK    1  A    between atoms: C5_8  and  O2_2 
ROOT
HETATM    1  O1  UNK     1      19.929  -0.593  31.832  1.00  0.00    -0.275 OA
HETATM    2  O3  UNK     1      20.976  -2.630  31.873  1.00  0.00    -0.260 OA
HETATM    3  C1  UNK     1      19.450   0.448  29.685  1.00  0.00    -0.002 A 
HETATM    4  C2  UNK     1      19.399   0.473  31.076  1.00  0.00     0.092 A 
HETATM    5  C3  UNK     1      18.832   1.539  31.770  1.00  0.00     0.075 A 
HETATM    6  C4  UNK     1      18.914   1.523  28.972  1.00  0.00     0.017 A 
HETATM    7  C5  UNK     1      18.301   2.607  31.051  1.00  0.00     0.070 A 
HETATM    8  C6  UNK     1      18.341   2.599  29.655  1.00  0.00     0.038 A 
HETATM    9  C7  UNK     1      20.057  -0.695  29.025  1.00  0.00     0.020 A 
HETATM   10  C8  UNK     1      20.555  -1.701  29.748  1.00  0.00     0.083 A 
HETATM   11  C9  UNK     1      20.514  -1.698  31.223  1.00  0.00     0.288 A 
ENDROOT
BRANCH   7  12
HETATM   12  O2  UNK     1      17.740   3.660  31.708  1.00  0.00    -0.356 OA
HETATM   13  C10 UNK     1      18.415   4.913  31.619  1.00  0.00     0.210 C 
ENDBRANCH   7  12
TORSDOF 1
ENDMDL
MODEL 3
REMARK VINA RESULT:      -6.4      1.336      4.597
REMARK  1 active torsions:
REMARK  status: ('A' for Active; 'I' for Inactive)
REMARK    1  A    between atoms: C5_8  and  O2_2 
ROOT
HETATM    1  O1  UNK     1      19.966  -1.054  32.496  1.00  0.00    -0.275 OA
HETATM    2  O3  UNK     1      20.698  -2.760  33.838  1.00  0.00    -0.260 OA
HETATM    3  C1  UNK     1      20.144  -1.289  30.081  1.00  0.00    -0.002 A 
HETATM    4  C2  UNK     1      19.773  -0.543  31.196  1.00  0.00     0.092 A 
HETATM    5  C3  UNK     1      19.205   0.723  31.076  1.00  0.00     0.075 A 
HETATM    6  C4  UNK     1      19.936  -0.749  28.809  1.00  0.00     0.017 A 
HETATM    7  C5  UNK     1      19.002   1.254  29.805  1.00  0.00     0.070 A 
HETATM    8  C6  UNK     1      19.366   0.520  28.674  1.00  0.00     0.038 A 
HETATM    9  C7  UNK     1      20.732  -2.602  30.278  1.00  0.00     0.020 A 
HETATM   10  C8  UNK     1      20.911  -3.079  31.513  1.00  0.00     0.083 A 
HETATM   11  C9  UNK     1      20.527  -2.308  32.711  1.00  0.00     0.288 A 
ENDROOT
BRANCH   7  12
HETATM   12  O2  UNK     1      18.447   2.490  29.663  1.00  0.00    -0.356 OA
HETATM   13  C10 UNK     1      18.670   3.426  30.716  1.00  0.00     0.210 C 
ENDBRANCH   7  12
TORSDOF 1
ENDMDL
MODEL 4
REMARK VINA RESULT:      -6.4     22.955     24.511
REMARK  1 active torsions:
REMARK  status: ('A' for Active; 'I' for Inactive)
REMARK    1  A    between atoms: C5_8  and  O2_2 
ROOT
HETATM    1  O1  UNK     1       9.616   5.479   8.663  1.00  0.00    -0.275 OA
HETATM    2  O3  UNK     1       7.461   5.514   7.889  1.00  0.00    -0.260 OA
HETATM    3  C1  UNK     1      11.416   6.193   7.189  1.00  0.00    -0.002 A 
HETATM    4  C2  UNK     1      10.986   5.713   8.423  1.00  0.00     0.092 A 
HETATM    5  C3  UNK     1      11.879   5.449   9.458  1.00  0.00     0.075 A 
HETATM    6  C4  UNK     1      12.780   6.414   6.990  1.00  0.00     0.017 A 
HETATM    7  C5  UNK     1      13.238   5.671   9.251  1.00  0.00     0.070 A 
HETATM    8  C6  UNK     1      13.688   6.153   8.020  1.00  0.00     0.038 A 
HETATM    9  C7  UNK     1      10.430   6.448   6.153  1.00  0.00     0.020 A 
HETATM   10  C8  UNK     1       9.135   6.224   6.389  1.00  0.00     0.083 A 
HETATM   11  C9  UNK     1       8.654   5.715   7.688  1.00  0.00     0.288 A 
ENDROOT
BRANCH   7  12
HETATM   12  O2  UNK     1      14.130   5.419  10.249  1.00  0.00    -0.356 OA
HETATM   13  C10 UNK     1      15.281   4.647   9.910  1.00  0.00     0.210 C 
ENDBRANCH   7  12
TORSDOF 1
ENDMDL
MODEL 5
REMARK VINA RESULT:      -6.3      1.965      3.185
REMARK  1 active torsions:
REMARK  status: ('A' for Active; 'I' for Inactive)
REMARK    1  A    between atoms: C5_8  and  O2_2 
ROOT
HETATM    1  O1  UNK     1      18.741   0.585  30.603  1.00  0.00    -0.275 OA
HETATM    2  O3  UNK     1      18.598   1.573  28.541  1.00  0.00    -0.260 OA
HETATM    3  C1  UNK     1      20.191  -1.348  30.891  1.00  0.00    -0.002 A 
HETATM    4  C2  UNK     1      19.292  -0.426  31.418  1.00  0.00     0.092 A 
HETATM    5  C3  UNK     1      18.903  -0.462  32.755  1.00  0.00     0.075 A 
HETATM    6  C4  UNK     1      20.716  -2.333  31.730  1.00  0.00     0.017 A 
HETATM    7  C5  UNK     1      19.430  -1.449  33.585  1.00  0.00     0.070 A 
HETATM    8  C6  UNK     1      20.335  -2.382  33.074  1.00  0.00     0.038 A 
HETATM    9  C7  UNK     1      20.553  -1.252  29.487  1.00  0.00     0.020 A 
HETATM   10  C8  UNK     1      20.027  -0.292  28.722  1.00  0.00     0.083 A 
HETATM   11  C9  UNK     1      19.072   0.697  29.257  1.00  0.00     0.288 A 
ENDROOT
BRANCH   7  12
HETATM   12  O2  UNK     1      19.065  -1.504  34.895  1.00  0.00    -0.356 OA
HETATM   13  C10 UNK     1      19.857  -2.322  35.755  1.00  0.00     0.210 C 
ENDBRANCH   7  12
TORSDOF 1
ENDMDL
MODEL 6
REMARK VINA RESULT:      -6.2     12.816     14.424
REMARK  1 active torsions:
REMARK  status: ('A' for Active; 'I' for Inactive)
REMARK    1  A    between atoms: C5_8  and  O2_2 
ROOT
HETATM    1  O1  UNK     1      19.302   0.701  15.127  1.00  0.00    -0.275 OA
HETATM    2  O3  UNK     1      19.221  -0.759  13.364  1.00  0.00    -0.260 OA
HETATM    3  C1  UNK     1      18.902  -0.137  17.376  1.00  0.00    -0.002 A 
HETATM    4  C2  UNK     1      19.192   0.918  16.516  1.00  0.00     0.092 A 
HETATM    5  C3  UNK     1      19.383   2.215  16.985  1.00  0.00     0.075 A 
HETATM    6  C4  UNK     1      18.803   0.117  18.746  1.00  0.00     0.017 A 
HETATM    7  C5  UNK     1      19.281   2.461  18.352  1.00  0.00     0.070 A 
HETATM    8  C6  UNK     1      18.992   1.414  19.231  1.00  0.00     0.038 A 
HETATM    9  C7  UNK     1      18.715  -1.466  16.819  1.00  0.00     0.020 A 
HETATM   10  C8  UNK     1      18.821  -1.663  15.503  1.00  0.00     0.083 A 
HETATM   11  C9  UNK     1      19.127  -0.561  14.570  1.00  0.00     0.288 A 
ENDROOT
BRANCH   7  12
HETATM   12  O2  UNK     1      19.464   3.721  18.834  1.00  0.00    -0.356 OA
HETATM   13  C10 UNK     1      20.684   4.376  18.493  1.00  0.00     0.210 C 
ENDBRANCH   7  12
TORSDOF 1
ENDMDL
MODEL 7
REMARK VINA RESULT:      -6.2      4.174      7.273
REMARK  1 active torsions:
REMARK  status: ('A' for Active; 'I' for Inactive)
REMARK    1  A    between atoms: C5_8  and  O2_2 
ROOT
HETATM    1  O1  UNK     1      17.409   4.091  32.067  1.00  0.00    -0.275 OA
HETATM    2  O3  UNK     1      17.368   2.379  30.546  1.00  0.00    -0.260 OA
HETATM    3  C1  UNK     1      19.200   5.734  31.952  1.00  0.00    -0.002 A 
HETATM    4  C2  UNK     1      18.042   5.253  32.556  1.00  0.00     0.092 A 
HETATM    5  C3  UNK     1      17.466   5.891  33.652  1.00  0.00     0.075 A 
HETATM    6  C4  UNK     1      19.797   6.888  32.464  1.00  0.00     0.017 A 
HETATM    7  C5  UNK     1      18.068   7.041  34.157  1.00  0.00     0.070 A 
HETATM    8  C6  UNK     1      19.231   7.539  33.564  1.00  0.00     0.038 A 
HETATM    9  C7  UNK     1      19.747   5.019  30.812  1.00  0.00     0.020 A 
HETATM   10  C8  UNK     1      19.141   3.920  30.355  1.00  0.00     0.083 A 
HETATM   11  C9  UNK     1      17.913   3.390  30.977  1.00  0.00     0.288 A 
ENDROOT
BRANCH   7  12
HETATM   12  O2  UNK     1      17.524   7.681  35.228  1.00  0.00    -0.356 OA
HETATM   13  C10 UNK     1      16.401   8.524  34.977  1.00  0.00     0.210 C 
ENDBRANCH   7  12
TORSDOF 1
ENDMDL
MODEL 8
REMARK VINA RESULT:      -6.2     23.023     24.777
REMARK  1 active torsions:
REMARK  status: ('A' for Active; 'I' for Inactive)
REMARK    1  A    between atoms: C5_8  and  O2_2 
ROOT
HETATM    1  O1  UNK     1      12.028   6.191   9.730  1.00  0.00    -0.275 OA
HETATM    2  O3  UNK     1      14.172   6.482  10.479  1.00  0.00    -0.260 OA
HETATM    3  C1  UNK     1      11.557   6.454   7.357  1.00  0.00    -0.002 A 
HETATM    4  C2  UNK     1      11.120   6.180   8.650  1.00  0.00     0.092 A 
HETATM    5  C3  UNK     1       9.788   5.888   8.928  1.00  0.00     0.075 A 
HETATM    6  C4  UNK     1      10.629   6.432   6.314  1.00  0.00     0.017 A 
HETATM    7  C5  UNK     1       8.868   5.870   7.882  1.00  0.00     0.070 A 
HETATM    8  C6  UNK     1       9.287   6.141   6.578  1.00  0.00     0.038 A 
HETATM    9  C7  UNK     1      12.962   6.750   7.139  1.00  0.00     0.020 A 
HETATM   10  C8  UNK     1      13.815   6.758   8.166  1.00  0.00     0.083 A 
HETATM   11  C9  UNK     1      13.377   6.472   9.546  1.00  0.00     0.288 A 
ENDROOT
BRANCH   7  12
HETATM   12  O2  UNK     1       7.559   5.588   8.129  1.00  0.00    -0.356 OA
HETATM   13  C10 UNK     1       7.268   4.847   9.313  1.00  0.00     0.210 C 
ENDBRANCH   7  12
TORSDOF 1
ENDMDL
MODEL 9
REMARK VINA RESULT:      -6.1     11.061     13.369
REMARK  1 active torsions:
REMARK  status: ('A' for Active; 'I' for Inactive)
REMARK    1  A    between atoms: C5_8  and  O2_2 
ROOT
HETATM    1  O1  UNK     1      30.268  -8.365  28.804  1.00  0.00    -0.275 OA
HETATM    2  O3  UNK     1      30.884  -9.982  27.303  1.00  0.00    -0.260 OA
HETATM    3  C1  UNK     1      28.025  -8.417  29.745  1.00  0.00    -0.002 A 
HETATM    4  C2  UNK     1      29.279  -7.822  29.651  1.00  0.00     0.092 A 
HETATM    5  C3  UNK     1      29.606  -6.680  30.378  1.00  0.00     0.075 A 
HETATM    6  C4  UNK     1      27.072  -7.850  30.595  1.00  0.00     0.017 A 
HETATM    7  C5  UNK     1      28.651  -6.120  31.222  1.00  0.00     0.070 A 
HETATM    8  C6  UNK     1      27.386  -6.704  31.331  1.00  0.00     0.038 A 
HETATM    9  C7  UNK     1      27.751  -9.607  28.958  1.00  0.00     0.020 A 
HETATM   10  C8  UNK     1      28.693 -10.115  28.160  1.00  0.00     0.083 A 
HETATM   11  C9  UNK     1      30.030  -9.503  28.041  1.00  0.00     0.288 A 
ENDROOT
BRANCH   7  12
HETATM   12  O2  UNK     1      28.947  -5.004  31.943  1.00  0.00    -0.356 OA
HETATM   13  C10 UNK     1      29.953  -4.140  31.417  1.00  0.00     0.210 C 
ENDBRANCH   7  12
TORSDOF 1
ENDMDL
MODEL 10
REMARK VINA RESULT:      -6.1      6.169      7.901
REMARK  1 active torsions:
REMARK  status: ('A' for Active; 'I' for Inactive)
REMARK    1  A    between atoms: C5_8  and  O2_2 
ROOT
HETATM    1  O1  UNK     1      15.679   6.686  31.877  1.00  0.00    -0.275 OA
HETATM    2  O3  UNK     1      13.410   6.975  31.998  1.00  0.00    -0.260 OA
HETATM    3  C1  UNK     1      17.066   7.406  33.743  1.00  0.00    -0.002 A 
HETATM    4  C2  UNK     1      16.946   6.834  32.479  1.00  0.00     0.092 A 
HETATM    5  C3  UNK     1      18.057   6.390  31.767  1.00  0.00     0.075 A 
HETATM    6  C4  UNK     1      18.337   7.534  34.307  1.00  0.00     0.017 A 
HETATM    7  C5  UNK     1      19.321   6.522  32.336  1.00  0.00     0.070 A 
HETATM    8  C6  UNK     1      19.461   7.093  33.603  1.00  0.00     0.038 A 
HETATM    9  C7  UNK     1      15.864   7.848  34.430  1.00  0.00     0.020 A 
HETATM   10  C8  UNK     1      14.669   7.703  33.853  1.00  0.00     0.083 A 
HETATM   11  C9  UNK     1      14.515   7.101  32.515  1.00  0.00     0.288 A 
ENDROOT
BRANCH   7  12
HETATM   12  O2  UNK     1      20.423   6.095  31.658  1.00  0.00    -0.356 OA
HETATM   13  C10 UNK     1      20.263   5.822  30.268  1.00  0.00     0.210 C 
ENDBRANCH   7  12
TORSDOF 1
ENDMDL
