MODEL 1
REMARK VINA RESULT:     -11.1      0.000      0.000
REMARK  10 active torsions:
REMARK  status: ('A' for Active; 'I' for Inactive)
REMARK    1  A    between atoms: C5_15  and  N1_7 
REMARK    2  A    between atoms: C6_16  and  N2_8 
REMARK       I    between atoms: C11_21  and  N3_9 
REMARK    3  A    between atoms: C9_19  and  N3_9 
REMARK    4  A    between atoms: C10_20  and  N4_10 
REMARK       I    between atoms: C12_22  and  N4_10 
REMARK    5  A    between atoms: C5_15  and  C7_17 
REMARK    6  A    between atoms: C6_16  and  C8_18 
REMARK    7  A    between atoms: C7_17  and  C9_19 
REMARK    8  A    between atoms: C10_20  and  C8_18 
REMARK    9  A    between atoms: C11_21  and  C13_23 
REMARK   10  A    between atoms: C12_22  and  C14_24 
ROOT
HETATM    1  N1  UNK     1      19.754  -4.613  36.831  1.00  0.00     0.091 N 
HETATM    2  N2  UNK     1      21.431  -6.954  37.083  1.00  0.00     0.091 N 
HETATM    3  C1  UNK     1      20.892  -4.639  37.757  1.00  0.00     0.302 C 
HETATM    4  C2  UNK     1      20.002  -5.499  35.688  1.00  0.00     0.302 C 
HETATM    5  C3  UNK     1      21.181  -6.070  38.228  1.00  0.00     0.302 C 
HETATM    6  C4  UNK     1      20.292  -6.929  36.157  1.00  0.00     0.302 C 
ENDROOT
BRANCH   1   7
HETATM    7  C5  UNK     1      19.482  -3.250  36.381  1.00  0.00     0.274 C 
BRANCH   7   8
HETATM    8  C7  UNK     1      18.968  -2.400  37.544  1.00  0.00     0.050 C 
BRANCH   8   9
HETATM    9  C9  UNK     1      18.390  -1.067  37.080  1.00  0.00     0.124 C 
BRANCH   9  10
HETATM   10  N3  UNK     1      18.703  -0.777  35.707  1.00  0.00    -0.357 N 
HETATM   11  C11 UNK     1      17.767  -0.301  34.804  1.00  0.00     0.257 C 
HETATM   12  O1  UNK     1      16.585  -0.068  35.033  1.00  0.00    -0.267 OA
HETATM   13  H21 UNK     1      19.647  -0.988  35.398  1.00  0.00     0.162 HD
BRANCH  11  14
HETATM   14  C13 UNK     1      18.329  -0.079  33.459  1.00  0.00     0.108 A 
HETATM   15  C15 UNK     1      18.898  -1.139  32.872  1.00  0.00     0.037 A 
HETATM   16  C19 UNK     1      19.480  -1.018  31.545  1.00  0.00    -0.001 A 
HETATM   17  C21 UNK     1      19.435   0.214  30.900  1.00  0.00     0.089 A 
HETATM   18  C23 UNK     1      20.084  -2.097  30.895  1.00  0.00     0.014 A 
HETATM   19  O3  UNK     1      18.834   1.325  31.522  1.00  0.00    -0.274 OA
HETATM   20  C25 UNK     1      19.974   0.396  29.629  1.00  0.00     0.038 A 
HETATM   21  C17 UNK     1      18.269   1.242  32.791  1.00  0.00     0.304 A 
HETATM   22  O5  UNK     1      17.749   2.214  33.326  1.00  0.00    -0.259 OA
HETATM   23  C29 UNK     1      20.575  -0.685  28.987  1.00  0.00     0.003 A 
HETATM   24  C27 UNK     1      20.629  -1.929  29.619  1.00  0.00     0.001 A 
ENDBRANCH  11  14
ENDBRANCH   9  10
ENDBRANCH   8   9
ENDBRANCH   7   8
ENDBRANCH   1   7
BRANCH   2  25
HETATM   25  C6  UNK     1      21.705  -8.319  37.532  1.00  0.00     0.274 C 
BRANCH  25  26
HETATM   26  C8  UNK     1      23.211  -8.584  37.529  1.00  0.00     0.050 C 
BRANCH  26  27
HETATM   27  C10 UNK     1      23.861  -8.260  38.871  1.00  0.00     0.124 C 
BRANCH  27  28
HETATM   28  N4  UNK     1      25.077  -7.507  38.728  1.00  0.00    -0.357 N 
HETATM   29  C12 UNK     1      26.317  -7.995  39.106  1.00  0.00     0.257 C 
HETATM   30  O2  UNK     1      26.548  -9.093  39.600  1.00  0.00    -0.267 OA
HETATM   31  H22 UNK     1      24.992  -6.566  38.357  1.00  0.00     0.162 HD
BRANCH  29  32
HETATM   32  C14 UNK     1      27.411  -7.039  38.856  1.00  0.00     0.108 A 
HETATM   33  C16 UNK     1      28.639  -7.561  38.748  1.00  0.00     0.037 A 
HETATM   34  C20 UNK     1      29.783  -6.697  38.501  1.00  0.00    -0.001 A 
HETATM   35  C24 UNK     1      31.083  -7.197  38.382  1.00  0.00     0.014 A 
HETATM   36  C22 UNK     1      29.578  -5.327  38.380  1.00  0.00     0.089 A 
HETATM   37  C28 UNK     1      32.149  -6.325  38.145  1.00  0.00     0.001 A 
HETATM   38  C30 UNK     1      31.923  -4.952  38.026  1.00  0.00     0.003 A 
HETATM   39  C26 UNK     1      30.631  -4.445  38.144  1.00  0.00     0.038 A 
HETATM   40  O4  UNK     1      28.283  -4.784  38.494  1.00  0.00    -0.274 OA
HETATM   41  C18 UNK     1      27.170  -5.584  38.730  1.00  0.00     0.304 A 
HETATM   42  O6  UNK     1      26.046  -5.103  38.829  1.00  0.00    -0.259 OA
ENDBRANCH  29  32
ENDBRANCH  27  28
ENDBRANCH  26  27
ENDBRANCH  25  26
ENDBRANCH   2  25
TORSDOF 10
ENDMDL
MODEL 2
REMARK VINA RESULT:     -11.0      5.610      8.958
REMARK  10 active torsions:
REMARK  status: ('A' for Active; 'I' for Inactive)
REMARK    1  A    between atoms: C5_15  and  N1_7 
REMARK    2  A    between atoms: C6_16  and  N2_8 
REMARK       I    between atoms: C11_21  and  N3_9 
REMARK    3  A    between atoms: C9_19  and  N3_9 
REMARK    4  A    between atoms: C10_20  and  N4_10 
REMARK       I    between atoms: C12_22  and  N4_10 
REMARK    5  A    between atoms: C5_15  and  C7_17 
REMARK    6  A    between atoms: C6_16  and  C8_18 
REMARK    7  A    between atoms: C7_17  and  C9_19 
REMARK    8  A    between atoms: C10_20  and  C8_18 
REMARK    9  A    between atoms: C11_21  and  C13_23 
REMARK   10  A    between atoms: C12_22  and  C14_24 
ROOT
HETATM    1  N1  UNK     1      19.302  -0.176  30.325  1.00  0.00     0.091 N 
HETATM    2  N2  UNK     1      20.283  -1.579  32.655  1.00  0.00     0.091 N 
HETATM    3  C1  UNK     1      19.040   0.322  31.681  1.00  0.00     0.302 C 
HETATM    4  C2  UNK     1      20.564  -0.925  30.289  1.00  0.00     0.302 C 
HETATM    5  C3  UNK     1      19.020  -0.831  32.692  1.00  0.00     0.302 C 
HETATM    6  C4  UNK     1      20.545  -2.077  31.300  1.00  0.00     0.302 C 
ENDROOT
BRANCH   1   7
HETATM    7  C5  UNK     1      19.325   0.924  29.364  1.00  0.00     0.274 C 
BRANCH   7   8
HETATM    8  C7  UNK     1      18.432   2.068  29.847  1.00  0.00     0.050 C 
BRANCH   8   9
HETATM    9  C9  UNK     1      18.983   3.438  29.464  1.00  0.00     0.124 C 
BRANCH   9  10
HETATM   10  N3  UNK     1      18.638   4.458  30.417  1.00  0.00    -0.357 N 
HETATM   11  C11 UNK     1      19.232   5.708  30.433  1.00  0.00     0.257 C 
HETATM   12  O1  UNK     1      20.104   6.111  29.671  1.00  0.00    -0.267 OA
HETATM   13  H21 UNK     1      17.960   4.208  31.130  1.00  0.00     0.162 HD
BRANCH  11  14
HETATM   14  C13 UNK     1      18.708   6.579  31.502  1.00  0.00     0.108 A 
HETATM   15  C15 UNK     1      17.489   7.092  31.304  1.00  0.00     0.037 A 
HETATM   16  C19 UNK     1      16.887   7.963  32.301  1.00  0.00    -0.001 A 
HETATM   17  C21 UNK     1      17.601   8.252  33.460  1.00  0.00     0.089 A 
HETATM   18  C23 UNK     1      15.617   8.520  32.136  1.00  0.00     0.014 A 
HETATM   19  O3  UNK     1      18.885   7.709  33.663  1.00  0.00    -0.274 OA
HETATM   20  C25 UNK     1      17.083   9.078  34.454  1.00  0.00     0.038 A 
HETATM   21  C17 UNK     1      19.487   6.873  32.727  1.00  0.00     0.304 A 
HETATM   22  O5  UNK     1      20.604   6.405  32.912  1.00  0.00    -0.259 OA
HETATM   23  C29 UNK     1      15.815   9.631  34.281  1.00  0.00     0.003 A 
HETATM   24  C27 UNK     1      15.083   9.351  33.125  1.00  0.00     0.001 A 
ENDBRANCH  11  14
ENDBRANCH   9  10
ENDBRANCH   8   9
ENDBRANCH   7   8
ENDBRANCH   1   7
BRANCH   2  25
HETATM   25  C6  UNK     1      20.262  -2.678  33.618  1.00  0.00     0.274 C 
BRANCH  25  26
HETATM   26  C8  UNK     1      20.437  -2.140  35.040  1.00  0.00     0.050 C 
BRANCH  26  27
HETATM   27  C10 UNK     1      19.411  -2.721  36.010  1.00  0.00     0.124 C 
BRANCH  27  28
HETATM   28  N4  UNK     1      19.483  -4.154  36.097  1.00  0.00    -0.357 N 
HETATM   29  C12 UNK     1      20.474  -4.819  36.799  1.00  0.00     0.257 C 
HETATM   30  O2  UNK     1      21.397  -4.304  37.421  1.00  0.00    -0.267 OA
HETATM   31  H22 UNK     1      18.780  -4.679  35.586  1.00  0.00     0.162 HD
BRANCH  29  32
HETATM   32  C14 UNK     1      20.331  -6.285  36.744  1.00  0.00     0.108 A 
HETATM   33  C16 UNK     1      20.094  -6.901  37.909  1.00  0.00     0.037 A 
HETATM   34  C20 UNK     1      19.938  -8.346  37.955  1.00  0.00    -0.001 A 
HETATM   35  C24 UNK     1      19.691  -9.031  39.148  1.00  0.00     0.014 A 
HETATM   36  C22 UNK     1      20.039  -9.073  36.773  1.00  0.00     0.089 A 
HETATM   37  C28 UNK     1      19.549 -10.421  39.140  1.00  0.00     0.001 A 
HETATM   38  C30 UNK     1      19.654 -11.134  37.943  1.00  0.00     0.003 A 
HETATM   39  C26 UNK     1      19.901 -10.459  36.750  1.00  0.00     0.038 A 
HETATM   40  O4  UNK     1      20.289  -8.419  35.551  1.00  0.00    -0.274 OA
HETATM   41  C18 UNK     1      20.442  -7.038  35.474  1.00  0.00     0.304 A 
HETATM   42  O6  UNK     1      20.659  -6.477  34.406  1.00  0.00    -0.259 OA
ENDBRANCH  29  32
ENDBRANCH  27  28
ENDBRANCH  26  27
ENDBRANCH  25  26
ENDBRANCH   2  25
TORSDOF 10
ENDMDL
MODEL 3
REMARK VINA RESULT:     -10.9      2.692     11.131
REMARK  10 active torsions:
REMARK  status: ('A' for Active; 'I' for Inactive)
REMARK    1  A    between atoms: C5_15  and  N1_7 
REMARK    2  A    between atoms: C6_16  and  N2_8 
REMARK       I    between atoms: C11_21  and  N3_9 
REMARK    3  A    between atoms: C9_19  and  N3_9 
REMARK    4  A    between atoms: C10_20  and  N4_10 
REMARK       I    between atoms: C12_22  and  N4_10 
REMARK    5  A    between atoms: C5_15  and  C7_17 
REMARK    6  A    between atoms: C6_16  and  C8_18 
REMARK    7  A    between atoms: C7_17  and  C9_19 
REMARK    8  A    between atoms: C10_20  and  C8_18 
REMARK    9  A    between atoms: C11_21  and  C13_23 
REMARK   10  A    between atoms: C12_22  and  C14_24 
ROOT
HETATM    1  N1  UNK     1      23.669  -8.107  38.841  1.00  0.00     0.091 N 
HETATM    2  N2  UNK     1      20.880  -7.725  38.182  1.00  0.00     0.091 N 
HETATM    3  C1  UNK     1      23.106  -8.615  37.584  1.00  0.00     0.302 C 
HETATM    4  C2  UNK     1      22.937  -6.915  39.286  1.00  0.00     0.302 C 
HETATM    5  C3  UNK     1      21.611  -8.919  37.739  1.00  0.00     0.302 C 
HETATM    6  C4  UNK     1      21.442  -7.217  39.439  1.00  0.00     0.302 C 
ENDROOT
BRANCH   1   7
HETATM    7  C5  UNK     1      25.093  -7.814  38.692  1.00  0.00     0.274 C 
BRANCH   7   8
HETATM    8  C7  UNK     1      25.931  -8.988  39.201  1.00  0.00     0.050 C 
BRANCH   8   9
HETATM    9  C9  UNK     1      27.295  -8.546  39.722  1.00  0.00     0.124 C 
BRANCH   9  10
HETATM   10  N3  UNK     1      28.117  -7.965  38.695  1.00  0.00    -0.357 N 
HETATM   11  C11 UNK     1      28.582  -6.662  38.748  1.00  0.00     0.257 C 
HETATM   12  O1  UNK     1      28.371  -5.847  39.639  1.00  0.00    -0.267 OA
HETATM   13  H21 UNK     1      28.308  -8.541  37.882  1.00  0.00     0.162 HD
BRANCH  11  14
HETATM   14  C13 UNK     1      29.406  -6.299  37.580  1.00  0.00     0.108 A 
HETATM   15  C15 UNK     1      30.639  -5.848  37.841  1.00  0.00     0.037 A 
HETATM   16  C19 UNK     1      31.526  -5.465  36.754  1.00  0.00    -0.001 A 
HETATM   17  C21 UNK     1      31.071  -5.575  35.444  1.00  0.00     0.089 A 
HETATM   18  C23 UNK     1      32.820  -4.990  36.980  1.00  0.00     0.014 A 
HETATM   19  O3  UNK     1      29.773  -6.050  35.175  1.00  0.00    -0.274 OA
HETATM   20  C25 UNK     1      31.870  -5.225  34.358  1.00  0.00     0.038 A 
HETATM   21  C17 UNK     1      28.901  -6.425  36.193  1.00  0.00     0.304 A 
HETATM   22  O5  UNK     1      27.772  -6.837  35.950  1.00  0.00    -0.259 OA
HETATM   23  C29 UNK     1      33.159  -4.751  34.592  1.00  0.00     0.003 A 
HETATM   24  C27 UNK     1      33.633  -4.635  35.901  1.00  0.00     0.001 A 
ENDBRANCH  11  14
ENDBRANCH   9  10
ENDBRANCH   8   9
ENDBRANCH   7   8
ENDBRANCH   1   7
BRANCH   2  25
HETATM   25  C6  UNK     1      19.455  -8.016  38.330  1.00  0.00     0.274 C 
BRANCH  25  26
HETATM   26  C8  UNK     1      18.641  -7.201  37.323  1.00  0.00     0.050 C 
BRANCH  26  27
HETATM   27  C10 UNK     1      19.509  -6.627  36.205  1.00  0.00     0.124 C 
BRANCH  27  28
HETATM   28  N4  UNK     1      19.293  -5.219  36.008  1.00  0.00    -0.357 N 
HETATM   29  C12 UNK     1      20.114  -4.246  36.554  1.00  0.00     0.257 C 
HETATM   30  O2  UNK     1      21.100  -4.435  37.257  1.00  0.00    -0.267 OA
HETATM   31  H22 UNK     1      18.479  -4.952  35.465  1.00  0.00     0.162 HD
BRANCH  29  32
HETATM   32  C14 UNK     1      19.690  -2.877  36.206  1.00  0.00     0.108 A 
HETATM   33  C16 UNK     1      18.993  -2.219  37.140  1.00  0.00     0.037 A 
HETATM   34  C20 UNK     1      18.531  -0.862  36.889  1.00  0.00    -0.001 A 
HETATM   35  C24 UNK     1      17.801  -0.137  37.834  1.00  0.00     0.014 A 
HETATM   36  C22 UNK     1      18.825  -0.266  35.667  1.00  0.00     0.089 A 
HETATM   37  C28 UNK     1      17.379   1.163  37.545  1.00  0.00     0.001 A 
HETATM   38  C30 UNK     1      17.683   1.745  36.312  1.00  0.00     0.003 A 
HETATM   39  C26 UNK     1      18.411   1.029  35.364  1.00  0.00     0.038 A 
HETATM   40  O4  UNK     1      19.558  -0.965  34.688  1.00  0.00    -0.274 OA
HETATM   41  C18 UNK     1      20.014  -2.263  34.899  1.00  0.00     0.304 A 
HETATM   42  O6  UNK     1      20.652  -2.863  34.041  1.00  0.00    -0.259 OA
ENDBRANCH  29  32
ENDBRANCH  27  28
ENDBRANCH  26  27
ENDBRANCH  25  26
ENDBRANCH   2  25
TORSDOF 10
ENDMDL
MODEL 4
REMARK VINA RESULT:     -10.9      5.634     13.686
REMARK  10 active torsions:
REMARK  status: ('A' for Active; 'I' for Inactive)
REMARK    1  A    between atoms: C5_15  and  N1_7 
REMARK    2  A    between atoms: C6_16  and  N2_8 
REMARK       I    between atoms: C11_21  and  N3_9 
REMARK    3  A    between atoms: C9_19  and  N3_9 
REMARK    4  A    between atoms: C10_20  and  N4_10 
REMARK       I    between atoms: C12_22  and  N4_10 
REMARK    5  A    between atoms: C5_15  and  C7_17 
REMARK    6  A    between atoms: C6_16  and  C8_18 
REMARK    7  A    between atoms: C7_17  and  C9_19 
REMARK    8  A    between atoms: C10_20  and  C8_18 
REMARK    9  A    between atoms: C11_21  and  C13_23 
REMARK   10  A    between atoms: C12_22  and  C14_24 
ROOT
HETATM    1  N1  UNK     1      20.415  -1.666  32.069  1.00  0.00     0.091 N 
HETATM    2  N2  UNK     1      19.154  -0.160  29.947  1.00  0.00     0.091 N 
HETATM    3  C1  UNK     1      19.162  -0.934  32.293  1.00  0.00     0.302 C 
HETATM    4  C2  UNK     1      20.514  -2.093  30.668  1.00  0.00     0.302 C 
HETATM    5  C3  UNK     1      19.055   0.268  31.347  1.00  0.00     0.302 C 
HETATM    6  C4  UNK     1      20.406  -0.892  29.721  1.00  0.00     0.302 C 
ENDROOT
BRANCH   1   7
HETATM    7  C5  UNK     1      20.514  -2.813  32.968  1.00  0.00     0.274 C 
BRANCH   7   8
HETATM    8  C7  UNK     1      20.802  -2.343  34.395  1.00  0.00     0.050 C 
BRANCH   8   9
HETATM    9  C9  UNK     1      19.735  -2.802  35.385  1.00  0.00     0.124 C 
BRANCH   9  10
HETATM   10  N3  UNK     1      19.749  -4.225  35.592  1.00  0.00    -0.357 N 
HETATM   11  C11 UNK     1      20.530  -4.839  36.557  1.00  0.00     0.257 C 
HETATM   12  O1  UNK     1      21.292  -4.284  37.341  1.00  0.00    -0.267 OA
HETATM   13  H21 UNK     1      19.191  -4.785  34.957  1.00  0.00     0.162 HD
BRANCH  11  14
HETATM   14  C13 UNK     1      20.369  -6.305  36.576  1.00  0.00     0.108 A 
HETATM   15  C15 UNK     1      20.140  -6.860  37.772  1.00  0.00     0.037 A 
HETATM   16  C19 UNK     1      19.968  -8.299  37.893  1.00  0.00    -0.001 A 
HETATM   17  C21 UNK     1      20.046  -9.084  36.747  1.00  0.00     0.089 A 
HETATM   18  C23 UNK     1      19.727  -8.920  39.121  1.00  0.00     0.014 A 
HETATM   19  O3  UNK     1      20.287  -8.495  35.491  1.00  0.00    -0.274 OA
HETATM   20  C25 UNK     1      19.891 -10.468  36.794  1.00  0.00     0.038 A 
HETATM   21  C17 UNK     1      20.455  -7.121  35.343  1.00  0.00     0.304 A 
HETATM   22  O5  UNK     1      20.665  -6.616  34.246  1.00  0.00    -0.259 OA
HETATM   23  C29 UNK     1      19.652 -11.080  38.022  1.00  0.00     0.003 A 
HETATM   24  C27 UNK     1      19.569 -10.308  39.183  1.00  0.00     0.001 A 
ENDBRANCH  11  14
ENDBRANCH   9  10
ENDBRANCH   8   9
ENDBRANCH   7   8
ENDBRANCH   1   7
BRANCH   2  25
HETATM   25  C6  UNK     1      19.052   0.986  29.045  1.00  0.00     0.274 C 
BRANCH  25  26
HETATM   26  C8  UNK     1      18.351   2.151  29.746  1.00  0.00     0.050 C 
BRANCH  26  27
HETATM   27  C10 UNK     1      19.043   3.487  29.486  1.00  0.00     0.124 C 
BRANCH  27  28
HETATM   28  N4  UNK     1      18.664   4.498  30.435  1.00  0.00    -0.357 N 
HETATM   29  C12 UNK     1      19.224   5.764  30.454  1.00  0.00     0.257 C 
HETATM   30  O2  UNK     1      20.091   6.189  29.697  1.00  0.00    -0.267 OA
HETATM   31  H22 UNK     1      17.973   4.236  31.131  1.00  0.00     0.162 HD
BRANCH  29  32
HETATM   32  C14 UNK     1      18.668   6.622  31.516  1.00  0.00     0.108 A 
HETATM   33  C16 UNK     1      17.442   7.114  31.298  1.00  0.00     0.037 A 
HETATM   34  C20 UNK     1      16.810   7.971  32.289  1.00  0.00    -0.001 A 
HETATM   35  C24 UNK     1      15.532   8.506  32.104  1.00  0.00     0.014 A 
HETATM   36  C22 UNK     1      17.499   8.268  33.460  1.00  0.00     0.089 A 
HETATM   37  C28 UNK     1      14.968   9.325  33.086  1.00  0.00     0.001 A 
HETATM   38  C30 UNK     1      15.676   9.613  34.255  1.00  0.00     0.003 A 
HETATM   39  C26 UNK     1      16.950   9.083  34.447  1.00  0.00     0.038 A 
HETATM   40  O4  UNK     1      18.789   7.748  33.683  1.00  0.00    -0.274 OA
HETATM   41  C18 UNK     1      19.420   6.925  32.755  1.00  0.00     0.304 A 
HETATM   42  O6  UNK     1      20.543   6.478  32.957  1.00  0.00    -0.259 OA
ENDBRANCH  29  32
ENDBRANCH  27  28
ENDBRANCH  26  27
ENDBRANCH  25  26
ENDBRANCH   2  25
TORSDOF 10
ENDMDL
MODEL 5
REMARK VINA RESULT:     -10.8      2.666      4.584
REMARK  10 active torsions:
REMARK  status: ('A' for Active; 'I' for Inactive)
REMARK    1  A    between atoms: C5_15  and  N1_7 
REMARK    2  A    between atoms: C6_16  and  N2_8 
REMARK       I    between atoms: C11_21  and  N3_9 
REMARK    3  A    between atoms: C9_19  and  N3_9 
REMARK    4  A    between atoms: C10_20  and  N4_10 
REMARK       I    between atoms: C12_22  and  N4_10 
REMARK    5  A    between atoms: C5_15  and  C7_17 
REMARK    6  A    between atoms: C6_16  and  C8_18 
REMARK    7  A    between atoms: C7_17  and  C9_19 
REMARK    8  A    between atoms: C10_20  and  C8_18 
REMARK    9  A    between atoms: C11_21  and  C13_23 
REMARK   10  A    between atoms: C12_22  and  C14_24 
ROOT
HETATM    1  N1  UNK     1      20.862  -7.689  38.200  1.00  0.00     0.091 N 
HETATM    2  N2  UNK     1      23.642  -7.915  38.963  1.00  0.00     0.091 N 
HETATM    3  C1  UNK     1      21.662  -8.863  37.829  1.00  0.00     0.302 C 
HETATM    4  C2  UNK     1      21.359  -7.105  39.452  1.00  0.00     0.302 C 
HETATM    5  C3  UNK     1      23.146  -8.498  37.710  1.00  0.00     0.302 C 
HETATM    6  C4  UNK     1      22.843  -6.741  39.334  1.00  0.00     0.302 C 
ENDROOT
BRANCH   1   7
HETATM    7  C5  UNK     1      19.448  -8.040  38.317  1.00  0.00     0.274 C 
BRANCH   7   8
HETATM    8  C7  UNK     1      18.594  -7.071  37.498  1.00  0.00     0.050 C 
BRANCH   8   9
HETATM    9  C9  UNK     1      19.314  -6.573  36.249  1.00  0.00     0.124 C 
BRANCH   9  10
HETATM   10  N3  UNK     1      19.139  -5.162  36.036  1.00  0.00    -0.357 N 
HETATM   11  C11 UNK     1      20.022  -4.210  36.516  1.00  0.00     0.257 C 
HETATM   12  O1  UNK     1      21.039  -4.422  37.167  1.00  0.00    -0.267 OA
HETATM   13  H21 UNK     1      18.295  -4.874  35.551  1.00  0.00     0.162 HD
BRANCH  11  14
HETATM   14  C13 UNK     1      19.628  -2.833  36.167  1.00  0.00     0.108 A 
HETATM   15  C15 UNK     1      18.950  -2.156  37.101  1.00  0.00     0.037 A 
HETATM   16  C19 UNK     1      18.518  -0.790  36.849  1.00  0.00    -0.001 A 
HETATM   17  C21 UNK     1      18.821  -0.204  35.624  1.00  0.00     0.089 A 
HETATM   18  C23 UNK     1      17.808  -0.046  37.794  1.00  0.00     0.014 A 
HETATM   19  O3  UNK     1      19.535  -0.921  34.644  1.00  0.00    -0.274 OA
HETATM   20  C25 UNK     1      18.436   1.099  35.319  1.00  0.00     0.038 A 
HETATM   21  C17 UNK     1      19.962  -2.230  34.856  1.00  0.00     0.304 A 
HETATM   22  O5  UNK     1      20.583  -2.847  33.999  1.00  0.00    -0.259 OA
HETATM   23  C29 UNK     1      17.728   1.835  36.267  1.00  0.00     0.003 A 
HETATM   24  C27 UNK     1      17.416   1.263  37.503  1.00  0.00     0.001 A 
ENDBRANCH  11  14
ENDBRANCH   9  10
ENDBRANCH   8   9
ENDBRANCH   7   8
ENDBRANCH   1   7
BRANCH   2  25
HETATM   25  C6  UNK     1      25.057  -7.566  38.848  1.00  0.00     0.274 C 
BRANCH  25  26
HETATM   26  C8  UNK     1      25.920  -8.827  38.919  1.00  0.00     0.050 C 
BRANCH  26  27
HETATM   27  C10 UNK     1      27.280  -8.564  39.562  1.00  0.00     0.124 C 
BRANCH  27  28
HETATM   28  N4  UNK     1      28.236  -8.029  38.630  1.00  0.00    -0.357 N 
HETATM   29  C12 UNK     1      28.717  -6.732  38.703  1.00  0.00     0.257 C 
HETATM   30  O2  UNK     1      28.410  -5.887  39.536  1.00  0.00    -0.267 OA
HETATM   31  H22 UNK     1      28.532  -8.641  37.877  1.00  0.00     0.162 HD
BRANCH  29  32
HETATM   32  C14 UNK     1      29.690  -6.421  37.639  1.00  0.00     0.108 A 
HETATM   33  C16 UNK     1      30.939  -6.152  38.040  1.00  0.00     0.037 A 
HETATM   34  C20 UNK     1      31.969  -5.834  37.064  1.00  0.00    -0.001 A 
HETATM   35  C24 UNK     1      33.285  -5.547  37.437  1.00  0.00     0.014 A 
HETATM   36  C22 UNK     1      31.634  -5.813  35.714  1.00  0.00     0.089 A 
HETATM   37  C28 UNK     1      34.238  -5.245  36.461  1.00  0.00     0.001 A 
HETATM   38  C30 UNK     1      33.883  -5.230  35.110  1.00  0.00     0.003 A 
HETATM   39  C26 UNK     1      32.573  -5.515  34.730  1.00  0.00     0.038 A 
HETATM   40  O4  UNK     1      30.318  -6.097  35.299  1.00  0.00    -0.274 OA
HETATM   41  C18 UNK     1      29.311  -6.406  36.209  1.00  0.00     0.304 A 
HETATM   42  O6  UNK     1      28.169  -6.650  35.838  1.00  0.00    -0.259 OA
ENDBRANCH  29  32
ENDBRANCH  27  28
ENDBRANCH  26  27
ENDBRANCH  25  26
ENDBRANCH   2  25
TORSDOF 10
ENDMDL
MODEL 6
REMARK VINA RESULT:     -10.8      5.620     11.784
REMARK  10 active torsions:
REMARK  status: ('A' for Active; 'I' for Inactive)
REMARK    1  A    between atoms: C5_15  and  N1_7 
REMARK    2  A    between atoms: C6_16  and  N2_8 
REMARK       I    between atoms: C11_21  and  N3_9 
REMARK    3  A    between atoms: C9_19  and  N3_9 
REMARK    4  A    between atoms: C10_20  and  N4_10 
REMARK       I    between atoms: C12_22  and  N4_10 
REMARK    5  A    between atoms: C5_15  and  C7_17 
REMARK    6  A    between atoms: C6_16  and  C8_18 
REMARK    7  A    between atoms: C7_17  and  C9_19 
REMARK    8  A    between atoms: C10_20  and  C8_18 
REMARK    9  A    between atoms: C11_21  and  C13_23 
REMARK   10  A    between atoms: C12_22  and  C14_24 
ROOT
HETATM    1  N1  UNK     1      18.161   0.326  36.356  1.00  0.00     0.091 N 
HETATM    2  N2  UNK     1      18.270   2.867  34.981  1.00  0.00     0.091 N 
HETATM    3  C1  UNK     1      18.280   1.589  37.095  1.00  0.00     0.302 C 
HETATM    4  C2  UNK     1      17.450   0.539  35.090  1.00  0.00     0.302 C 
HETATM    5  C3  UNK     1      18.984   2.655  36.246  1.00  0.00     0.302 C 
HETATM    6  C4  UNK     1      18.151   1.605  34.241  1.00  0.00     0.302 C 
ENDROOT
BRANCH   1   7
HETATM    7  C5  UNK     1      17.487  -0.687  37.165  1.00  0.00     0.274 C 
BRANCH   7   8
HETATM    8  C7  UNK     1      17.586  -2.055  36.489  1.00  0.00     0.050 C 
BRANCH   8   9
HETATM    9  C9  UNK     1      19.030  -2.515  36.315  1.00  0.00     0.124 C 
BRANCH   9  10
HETATM   10  N3  UNK     1      19.162  -3.946  36.346  1.00  0.00    -0.357 N 
HETATM   11  C11 UNK     1      20.258  -4.591  36.893  1.00  0.00     0.257 C 
HETATM   12  O1  UNK     1      21.236  -4.059  37.407  1.00  0.00    -0.267 OA
HETATM   13  H21 UNK     1      18.428  -4.483  35.896  1.00  0.00     0.162 HD
BRANCH  11  14
HETATM   14  C13 UNK     1      20.161  -6.061  36.809  1.00  0.00     0.108 A 
HETATM   15  C15 UNK     1      19.995  -6.711  37.967  1.00  0.00     0.037 A 
HETATM   16  C19 UNK     1      19.888  -8.161  37.986  1.00  0.00    -0.001 A 
HETATM   17  C21 UNK     1      19.962  -8.856  36.783  1.00  0.00     0.089 A 
HETATM   18  C23 UNK     1      19.715  -8.880  39.170  1.00  0.00     0.014 A 
HETATM   19  O3  UNK     1      20.136  -8.167  35.567  1.00  0.00    -0.274 OA
HETATM   20  C25 UNK     1      19.868 -10.245  36.731  1.00  0.00     0.038 A 
HETATM   21  C17 UNK     1      20.241  -6.780  35.517  1.00  0.00     0.304 A 
HETATM   22  O5  UNK     1      20.394  -6.188  34.455  1.00  0.00    -0.259 OA
HETATM   23  C29 UNK     1      19.695 -10.955  37.918  1.00  0.00     0.003 A 
HETATM   24  C27 UNK     1      19.618 -10.274  39.135  1.00  0.00     0.001 A 
ENDBRANCH  11  14
ENDBRANCH   9  10
ENDBRANCH   8   9
ENDBRANCH   7   8
ENDBRANCH   1   7
BRANCH   2  25
HETATM   25  C6  UNK     1      18.942   3.883  34.171  1.00  0.00     0.274 C 
BRANCH  25  26
HETATM   26  C8  UNK     1      17.960   4.994  33.795  1.00  0.00     0.050 C 
BRANCH  26  27
HETATM   27  C10 UNK     1      17.515   4.906  32.337  1.00  0.00     0.124 C 
BRANCH  27  28
HETATM   28  N4  UNK     1      17.916   3.675  31.711  1.00  0.00    -0.357 N 
HETATM   29  C12 UNK     1      18.573   3.627  30.493  1.00  0.00     0.257 C 
HETATM   30  O2  UNK     1      18.892   4.585  29.798  1.00  0.00    -0.267 OA
HETATM   31  H22 UNK     1      17.669   2.816  32.191  1.00  0.00     0.162 HD
BRANCH  29  32
HETATM   32  C14 UNK     1      18.882   2.251  30.062  1.00  0.00     0.108 A 
HETATM   33  C16 UNK     1      19.543   1.490  30.944  1.00  0.00     0.037 A 
HETATM   34  C20 UNK     1      19.894   0.118  30.610  1.00  0.00    -0.001 A 
HETATM   35  C24 UNK     1      20.583  -0.712  31.498  1.00  0.00     0.014 A 
HETATM   36  C22 UNK     1      19.531  -0.385  29.365  1.00  0.00     0.089 A 
HETATM   37  C28 UNK     1      20.897  -2.022  31.130  1.00  0.00     0.001 A 
HETATM   38  C30 UNK     1      20.525  -2.511  29.875  1.00  0.00     0.003 A 
HETATM   39  C26 UNK     1      19.837  -1.690  28.984  1.00  0.00     0.038 A 
HETATM   40  O4  UNK     1      18.836   0.421  28.442  1.00  0.00    -0.274 OA
HETATM   41  C18 UNK     1      18.486   1.736  28.732  1.00  0.00     0.304 A 
HETATM   42  O6  UNK     1      17.882   2.430  27.922  1.00  0.00    -0.259 OA
ENDBRANCH  29  32
ENDBRANCH  27  28
ENDBRANCH  26  27
ENDBRANCH  25  26
ENDBRANCH   2  25
TORSDOF 10
ENDMDL
MODEL 7
REMARK VINA RESULT:     -10.7      9.017     11.870
REMARK  10 active torsions:
REMARK  status: ('A' for Active; 'I' for Inactive)
REMARK    1  A    between atoms: C5_15  and  N1_7 
REMARK    2  A    between atoms: C6_16  and  N2_8 
REMARK       I    between atoms: C11_21  and  N3_9 
REMARK    3  A    between atoms: C9_19  and  N3_9 
REMARK    4  A    between atoms: C10_20  and  N4_10 
REMARK       I    between atoms: C12_22  and  N4_10 
REMARK    5  A    between atoms: C5_15  and  C7_17 
REMARK    6  A    between atoms: C6_16  and  C8_18 
REMARK    7  A    between atoms: C7_17  and  C9_19 
REMARK    8  A    between atoms: C10_20  and  C8_18 
REMARK    9  A    between atoms: C11_21  and  C13_23 
REMARK   10  A    between atoms: C12_22  and  C14_24 
ROOT
HETATM    1  N1  UNK     1      33.815  -5.708  36.481  1.00  0.00     0.091 N 
HETATM    2  N2  UNK     1      31.553  -4.551  37.860  1.00  0.00     0.091 N 
HETATM    3  C1  UNK     1      33.194  -4.462  36.015  1.00  0.00     0.302 C 
HETATM    4  C2  UNK     1      33.653  -5.850  37.933  1.00  0.00     0.302 C 
HETATM    5  C3  UNK     1      31.713  -4.410  36.407  1.00  0.00     0.302 C 
HETATM    6  C4  UNK     1      32.173  -5.797  38.326  1.00  0.00     0.302 C 
ENDROOT
BRANCH   1   7
HETATM    7  C5  UNK     1      35.228  -5.754  36.109  1.00  0.00     0.274 C 
BRANCH   7   8
HETATM    8  C7  UNK     1      35.373  -6.003  34.608  1.00  0.00     0.050 C 
BRANCH   8   9
HETATM    9  C9  UNK     1      35.063  -7.447  34.225  1.00  0.00     0.124 C 
BRANCH   9  10
HETATM   10  N3  UNK     1      33.754  -7.596  33.647  1.00  0.00    -0.357 N 
HETATM   11  C11 UNK     1      33.503  -7.438  32.295  1.00  0.00     0.257 C 
HETATM   12  O1  UNK     1      34.325  -7.157  31.429  1.00  0.00    -0.267 OA
HETATM   13  H21 UNK     1      32.989  -7.778  34.289  1.00  0.00     0.162 HD
BRANCH  11  14
HETATM   14  C13 UNK     1      32.085  -7.644  31.946  1.00  0.00     0.108 A 
HETATM   15  C15 UNK     1      31.846  -8.332  30.823  1.00  0.00     0.037 A 
HETATM   16  C19 UNK     1      30.479  -8.587  30.397  1.00  0.00    -0.001 A 
HETATM   17  C21 UNK     1      29.431  -8.103  31.173  1.00  0.00     0.089 A 
HETATM   18  C23 UNK     1      30.183  -9.299  29.232  1.00  0.00     0.014 A 
HETATM   19  O3  UNK     1      29.689  -7.381  32.354  1.00  0.00    -0.274 OA
HETATM   20  C25 UNK     1      28.100  -8.312  30.820  1.00  0.00     0.038 A 
HETATM   21  C17 UNK     1      30.986  -7.121  32.789  1.00  0.00     0.304 A 
HETATM   22  O5  UNK     1      31.201  -6.491  33.817  1.00  0.00    -0.259 OA
HETATM   23  C29 UNK     1      27.812  -9.024  29.657  1.00  0.00     0.003 A 
HETATM   24  C27 UNK     1      28.852  -9.517  28.865  1.00  0.00     0.001 A 
ENDBRANCH  11  14
ENDBRANCH   9  10
ENDBRANCH   8   9
ENDBRANCH   7   8
ENDBRANCH   1   7
BRANCH   2  25
HETATM   25  C6  UNK     1      30.140  -4.503  38.233  1.00  0.00     0.274 C 
BRANCH  25  26
HETATM   26  C8  UNK     1      29.613  -5.916  38.493  1.00  0.00     0.050 C 
BRANCH  26  27
HETATM   27  C10 UNK     1      28.785  -6.451  37.327  1.00  0.00     0.124 C 
BRANCH  27  28
HETATM   28  N4  UNK     1      29.530  -7.350  36.489  1.00  0.00    -0.357 N 
HETATM   29  C12 UNK     1      29.399  -8.727  36.555  1.00  0.00     0.257 C 
HETATM   30  O2  UNK     1      28.661  -9.353  37.307  1.00  0.00    -0.267 OA
HETATM   31  H22 UNK     1      30.199  -6.932  35.850  1.00  0.00     0.162 HD
BRANCH  29  32
HETATM   32  C14 UNK     1      30.265  -9.432  35.592  1.00  0.00     0.108 A 
HETATM   33  C16 UNK     1      29.644 -10.058  34.585  1.00  0.00     0.037 A 
HETATM   34  C20 UNK     1      30.414 -10.781  33.585  1.00  0.00    -0.001 A 
HETATM   35  C24 UNK     1      29.808 -11.448  32.517  1.00  0.00     0.014 A 
HETATM   36  C22 UNK     1      31.800 -10.811  33.695  1.00  0.00     0.089 A 
HETATM   37  C28 UNK     1      30.592 -12.130  31.583  1.00  0.00     0.001 A 
HETATM   38  C30 UNK     1      31.983 -12.149  31.710  1.00  0.00     0.003 A 
HETATM   39  C26 UNK     1      32.595 -11.487  32.772  1.00  0.00     0.038 A 
HETATM   40  O4  UNK     1      32.448 -10.151  34.758  1.00  0.00    -0.274 OA
HETATM   41  C18 UNK     1      31.739  -9.451  35.729  1.00  0.00     0.304 A 
HETATM   42  O6  UNK     1      32.312  -8.880  36.650  1.00  0.00    -0.259 OA
ENDBRANCH  29  32
ENDBRANCH  27  28
ENDBRANCH  26  27
ENDBRANCH  25  26
ENDBRANCH   2  25
TORSDOF 10
ENDMDL
MODEL 8
REMARK VINA RESULT:     -10.6      2.800     11.177
REMARK  10 active torsions:
REMARK  status: ('A' for Active; 'I' for Inactive)
REMARK    1  A    between atoms: C5_15  and  N1_7 
REMARK    2  A    between atoms: C6_16  and  N2_8 
REMARK       I    between atoms: C11_21  and  N3_9 
REMARK    3  A    between atoms: C9_19  and  N3_9 
REMARK    4  A    between atoms: C10_20  and  N4_10 
REMARK       I    between atoms: C12_22  and  N4_10 
REMARK    5  A    between atoms: C5_15  and  C7_17 
REMARK    6  A    between atoms: C6_16  and  C8_18 
REMARK    7  A    between atoms: C7_17  and  C9_19 
REMARK    8  A    between atoms: C10_20  and  C8_18 
REMARK    9  A    between atoms: C11_21  and  C13_23 
REMARK   10  A    between atoms: C12_22  and  C14_24 
ROOT
HETATM    1  N1  UNK     1      22.818 -10.008  36.807  1.00  0.00     0.091 N 
HETATM    2  N2  UNK     1      20.208  -8.873  37.313  1.00  0.00     0.091 N 
HETATM    3  C1  UNK     1      21.595 -10.663  36.326  1.00  0.00     0.302 C 
HETATM    4  C2  UNK     1      22.621  -8.556  36.893  1.00  0.00     0.302 C 
HETATM    5  C3  UNK     1      20.403 -10.326  37.230  1.00  0.00     0.302 C 
HETATM    6  C4  UNK     1      21.429  -8.217  37.794  1.00  0.00     0.302 C 
ENDROOT
BRANCH   1   7
HETATM    7  C5  UNK     1      23.952 -10.328  35.943  1.00  0.00     0.274 C 
BRANCH   7   8
HETATM    8  C7  UNK     1      24.449 -11.746  36.225  1.00  0.00     0.050 C 
BRANCH   8   9
HETATM    9  C9  UNK     1      25.717 -11.760  37.074  1.00  0.00     0.124 C 
BRANCH   9  10
HETATM   10  N3  UNK     1      26.216 -10.438  37.343  1.00  0.00    -0.357 N 
HETATM   11  C11 UNK     1      26.987 -10.134  38.452  1.00  0.00     0.257 C 
HETATM   12  O1  UNK     1      27.341 -10.913  39.330  1.00  0.00    -0.267 OA
HETATM   13  H21 UNK     1      25.934  -9.704  36.702  1.00  0.00     0.162 HD
BRANCH  11  14
HETATM   14  C13 UNK     1      27.379  -8.713  38.506  1.00  0.00     0.108 A 
HETATM   15  C15 UNK     1      28.686  -8.454  38.384  1.00  0.00     0.037 A 
HETATM   16  C19 UNK     1      29.170  -7.084  38.425  1.00  0.00    -0.001 A 
HETATM   17  C21 UNK     1      28.252  -6.052  38.594  1.00  0.00     0.089 A 
HETATM   18  C23 UNK     1      30.524  -6.767  38.302  1.00  0.00     0.014 A 
HETATM   19  O3  UNK     1      26.877  -6.330  38.722  1.00  0.00    -0.274 OA
HETATM   20  C25 UNK     1      28.649  -4.717  38.643  1.00  0.00     0.038 A 
HETATM   21  C17 UNK     1      26.384  -7.631  38.686  1.00  0.00     0.304 A 
HETATM   22  O5  UNK     1      25.186  -7.865  38.798  1.00  0.00    -0.259 OA
HETATM   23  C29 UNK     1      30.003  -4.410  38.519  1.00  0.00     0.003 A 
HETATM   24  C27 UNK     1      30.938  -5.433  38.349  1.00  0.00     0.001 A 
ENDBRANCH  11  14
ENDBRANCH   9  10
ENDBRANCH   8   9
ENDBRANCH   7   8
ENDBRANCH   1   7
BRANCH   2  25
HETATM   25  C6  UNK     1      19.071  -8.552  38.175  1.00  0.00     0.274 C 
BRANCH  25  26
HETATM   26  C8  UNK     1      18.676  -7.084  38.005  1.00  0.00     0.050 C 
BRANCH  26  27
HETATM   27  C10 UNK     1      18.558  -6.681  36.537  1.00  0.00     0.124 C 
BRANCH  27  28
HETATM   28  N4  UNK     1      18.578  -5.255  36.353  1.00  0.00    -0.357 N 
HETATM   29  C12 UNK     1      19.723  -4.490  36.499  1.00  0.00     0.257 C 
HETATM   30  O2  UNK     1      20.840  -4.900  36.796  1.00  0.00    -0.267 OA
HETATM   31  H22 UNK     1      17.692  -4.809  36.136  1.00  0.00     0.162 HD
BRANCH  29  32
HETATM   32  C14 UNK     1      19.490  -3.055  36.255  1.00  0.00     0.108 A 
HETATM   33  C16 UNK     1      18.780  -2.405  37.186  1.00  0.00     0.037 A 
HETATM   34  C20 UNK     1      18.498  -0.986  37.033  1.00  0.00    -0.001 A 
HETATM   35  C24 UNK     1      17.761  -0.268  37.979  1.00  0.00     0.014 A 
HETATM   36  C22 UNK     1      18.975  -0.322  35.909  1.00  0.00     0.089 A 
HETATM   37  C28 UNK     1      17.516   1.095  37.786  1.00  0.00     0.001 A 
HETATM   38  C30 UNK     1      18.004   1.745  36.650  1.00  0.00     0.003 A 
HETATM   39  C26 UNK     1      18.739   1.035  35.703  1.00  0.00     0.038 A 
HETATM   40  O4  UNK     1      19.721  -1.012  34.933  1.00  0.00    -0.274 OA
HETATM   41  C18 UNK     1      20.008  -2.369  35.051  1.00  0.00     0.304 A 
HETATM   42  O6  UNK     1      20.657  -2.961  34.196  1.00  0.00    -0.259 OA
ENDBRANCH  29  32
ENDBRANCH  27  28
ENDBRANCH  26  27
ENDBRANCH  25  26
ENDBRANCH   2  25
TORSDOF 10
ENDMDL
MODEL 9
REMARK VINA RESULT:     -10.6      9.096     12.785
REMARK  10 active torsions:
REMARK  status: ('A' for Active; 'I' for Inactive)
REMARK    1  A    between atoms: C5_15  and  N1_7 
REMARK    2  A    between atoms: C6_16  and  N2_8 
REMARK       I    between atoms: C11_21  and  N3_9 
REMARK    3  A    between atoms: C9_19  and  N3_9 
REMARK    4  A    between atoms: C10_20  and  N4_10 
REMARK       I    between atoms: C12_22  and  N4_10 
REMARK    5  A    between atoms: C5_15  and  C7_17 
REMARK    6  A    between atoms: C6_16  and  C8_18 
REMARK    7  A    between atoms: C7_17  and  C9_19 
REMARK    8  A    between atoms: C10_20  and  C8_18 
REMARK    9  A    between atoms: C11_21  and  C13_23 
REMARK   10  A    between atoms: C12_22  and  C14_24 
ROOT
HETATM    1  N1  UNK     1      31.979  -4.875  37.958  1.00  0.00     0.091 N 
HETATM    2  N2  UNK     1      34.134  -5.933  36.348  1.00  0.00     0.091 N 
HETATM    3  C1  UNK     1      32.033  -4.644  36.509  1.00  0.00     0.302 C 
HETATM    4  C2  UNK     1      32.634  -6.143  38.300  1.00  0.00     0.302 C 
HETATM    5  C3  UNK     1      33.481  -4.664  36.006  1.00  0.00     0.302 C 
HETATM    6  C4  UNK     1      34.081  -6.164  37.796  1.00  0.00     0.302 C 
ENDROOT
BRANCH   1   7
HETATM    7  C5  UNK     1      30.598  -4.860  38.435  1.00  0.00     0.274 C 
BRANCH   7   8
HETATM    8  C7  UNK     1      29.638  -5.187  37.290  1.00  0.00     0.050 C 
BRANCH   8   9
HETATM    9  C9  UNK     1      29.115  -6.619  37.361  1.00  0.00     0.124 C 
BRANCH   9  10
HETATM   10  N3  UNK     1      29.806  -7.504  36.462  1.00  0.00    -0.357 N 
HETATM   11  C11 UNK     1      29.564  -8.866  36.410  1.00  0.00     0.257 C 
HETATM   12  O1  UNK     1      28.761  -9.491  37.094  1.00  0.00    -0.267 OA
HETATM   13  H21 UNK     1      30.535  -7.094  35.886  1.00  0.00     0.162 HD
BRANCH  11  14
HETATM   14  C13 UNK     1      30.395  -9.559  35.407  1.00  0.00     0.108 A 
HETATM   15  C15 UNK     1      29.738 -10.187  34.426  1.00  0.00     0.037 A 
HETATM   16  C19 UNK     1      30.471 -10.898  33.390  1.00  0.00    -0.001 A 
HETATM   17  C21 UNK     1      31.861 -10.913  33.440  1.00  0.00     0.089 A 
HETATM   18  C23 UNK     1      29.827 -11.567  32.347  1.00  0.00     0.014 A 
HETATM   19  O3  UNK     1      32.548 -10.250  34.476  1.00  0.00    -0.274 OA
HETATM   20  C25 UNK     1      32.623 -11.576  32.480  1.00  0.00     0.038 A 
HETATM   21  C17 UNK     1      31.874  -9.561  35.481  1.00  0.00     0.304 A 
HETATM   22  O5  UNK     1      32.479  -8.987  36.378  1.00  0.00    -0.259 OA
HETATM   23  C29 UNK     1      31.972 -12.242  31.443  1.00  0.00     0.003 A 
HETATM   24  C27 UNK     1      30.577 -12.237  31.376  1.00  0.00     0.001 A 
ENDBRANCH  11  14
ENDBRANCH   9  10
ENDBRANCH   8   9
ENDBRANCH   7   8
ENDBRANCH   1   7
BRANCH   2  25
HETATM   25  C6  UNK     1      35.516  -5.951  35.869  1.00  0.00     0.274 C 
BRANCH  25  26
HETATM   26  C8  UNK     1      35.549  -6.178  34.356  1.00  0.00     0.050 C 
BRANCH  26  27
HETATM   27  C10 UNK     1      35.163  -7.605  33.975  1.00  0.00     0.124 C 
BRANCH  27  28
HETATM   28  N4  UNK     1      33.814  -7.699  33.485  1.00  0.00    -0.357 N 
HETATM   29  C12 UNK     1      33.481  -7.523  32.152  1.00  0.00     0.257 C 
HETATM   30  O2  UNK     1      34.254  -7.270  31.235  1.00  0.00    -0.267 OA
HETATM   31  H22 UNK     1      33.088  -7.873  34.173  1.00  0.00     0.162 HD
BRANCH  29  32
HETATM   32  C14 UNK     1      32.036  -7.673  31.898  1.00  0.00     0.108 A 
HETATM   33  C16 UNK     1      31.697  -8.349  30.793  1.00  0.00     0.037 A 
HETATM   34  C20 UNK     1      30.296  -8.548  30.458  1.00  0.00    -0.001 A 
HETATM   35  C24 UNK     1      29.896  -9.248  29.316  1.00  0.00     0.014 A 
HETATM   36  C22 UNK     1      29.321  -8.026  31.300  1.00  0.00     0.089 A 
HETATM   37  C28 UNK     1      28.537  -9.412  29.037  1.00  0.00     0.001 A 
HETATM   38  C30 UNK     1      27.571  -8.880  29.895  1.00  0.00     0.003 A 
HETATM   39  C26 UNK     1      27.962  -8.182  31.035  1.00  0.00     0.038 A 
HETATM   40  O4  UNK     1      29.684  -7.315  32.461  1.00  0.00    -0.274 OA
HETATM   41  C18 UNK     1      31.016  -7.108  32.809  1.00  0.00     0.304 A 
HETATM   42  O6  UNK     1      31.322  -6.487  33.821  1.00  0.00    -0.259 OA
ENDBRANCH  29  32
ENDBRANCH  27  28
ENDBRANCH  26  27
ENDBRANCH  25  26
ENDBRANCH   2  25
TORSDOF 10
ENDMDL
MODEL 10
REMARK VINA RESULT:     -10.6      9.002     13.312
REMARK  10 active torsions:
REMARK  status: ('A' for Active; 'I' for Inactive)
REMARK    1  A    between atoms: C5_15  and  N1_7 
REMARK    2  A    between atoms: C6_16  and  N2_8 
REMARK       I    between atoms: C11_21  and  N3_9 
REMARK    3  A    between atoms: C9_19  and  N3_9 
REMARK    4  A    between atoms: C10_20  and  N4_10 
REMARK       I    between atoms: C12_22  and  N4_10 
REMARK    5  A    between atoms: C5_15  and  C7_17 
REMARK    6  A    between atoms: C6_16  and  C8_18 
REMARK    7  A    between atoms: C7_17  and  C9_19 
REMARK    8  A    between atoms: C10_20  and  C8_18 
REMARK    9  A    between atoms: C11_21  and  C13_23 
REMARK   10  A    between atoms: C12_22  and  C14_24 
ROOT
HETATM    1  N1  UNK     1      33.283  -8.043  30.659  1.00  0.00     0.091 N 
HETATM    2  N2  UNK     1      30.837  -8.371  29.154  1.00  0.00     0.091 N 
HETATM    3  C1  UNK     1      32.795  -9.374  30.279  1.00  0.00     0.302 C 
HETATM    4  C2  UNK     1      32.850  -7.039  29.680  1.00  0.00     0.302 C 
HETATM    5  C3  UNK     1      31.268  -9.375  30.135  1.00  0.00     0.302 C 
HETATM    6  C4  UNK     1      31.325  -7.040  29.534  1.00  0.00     0.302 C 
ENDROOT
BRANCH   1   7
HETATM    7  C5  UNK     1      34.738  -8.043  30.793  1.00  0.00     0.274 C 
BRANCH   7   8
HETATM    8  C7  UNK     1      35.288  -6.629  30.599  1.00  0.00     0.050 C 
BRANCH   8   9
HETATM    9  C9  UNK     1      35.914  -6.069  31.873  1.00  0.00     0.124 C 
BRANCH   9  10
HETATM   10  N3  UNK     1      35.173  -6.421  33.054  1.00  0.00    -0.357 N 
HETATM   11  C11 UNK     1      35.769  -6.930  34.195  1.00  0.00     0.257 C 
HETATM   12  O1  UNK     1      36.964  -7.147  34.359  1.00  0.00    -0.267 OA
HETATM   13  H21 UNK     1      34.163  -6.329  33.005  1.00  0.00     0.162 HD
BRANCH  11  14
HETATM   14  C13 UNK     1      34.800  -7.211  35.272  1.00  0.00     0.108 A 
HETATM   15  C15 UNK     1      33.909  -8.179  35.029  1.00  0.00     0.037 A 
HETATM   16  C19 UNK     1      32.914  -8.528  36.031  1.00  0.00    -0.001 A 
HETATM   17  C21 UNK     1      32.906  -7.839  37.239  1.00  0.00     0.089 A 
HETATM   18  C23 UNK     1      31.965  -9.531  35.821  1.00  0.00     0.014 A 
HETATM   19  O3  UNK     1      33.847  -6.821  37.489  1.00  0.00    -0.274 OA
HETATM   20  C25 UNK     1      31.980  -8.124  38.240  1.00  0.00     0.038 A 
HETATM   21  C17 UNK     1      34.811  -6.464  36.551  1.00  0.00     0.304 A 
HETATM   22  O5  UNK     1      35.626  -5.577  36.776  1.00  0.00    -0.259 OA
HETATM   23  C29 UNK     1      31.036  -9.126  38.022  1.00  0.00     0.003 A 
HETATM   24  C27 UNK     1      31.029  -9.828  36.815  1.00  0.00     0.001 A 
ENDBRANCH  11  14
ENDBRANCH   9  10
ENDBRANCH   8   9
ENDBRANCH   7   8
ENDBRANCH   1   7
BRANCH   2  25
HETATM   25  C6  UNK     1      29.381  -8.371  29.017  1.00  0.00     0.274 C 
BRANCH  25  26
HETATM   26  C8  UNK     1      28.745  -9.203  30.133  1.00  0.00     0.050 C 
BRANCH  26  27
HETATM   27  C10 UNK     1      27.691  -8.419  30.912  1.00  0.00     0.124 C 
BRANCH  27  28
HETATM   28  N4  UNK     1      28.244  -7.723  32.041  1.00  0.00    -0.357 N 
HETATM   29  C12 UNK     1      28.858  -8.370  33.101  1.00  0.00     0.257 C 
HETATM   30  O2  UNK     1      29.010  -9.580  33.226  1.00  0.00    -0.267 OA
HETATM   31  H22 UNK     1      28.140  -6.713  32.052  1.00  0.00     0.162 HD
BRANCH  29  32
HETATM   32  C14 UNK     1      29.348  -7.439  34.135  1.00  0.00     0.108 A 
HETATM   33  C16 UNK     1      30.410  -6.695  33.804  1.00  0.00     0.037 A 
HETATM   34  C20 UNK     1      30.966  -5.748  34.758  1.00  0.00    -0.001 A 
HETATM   35  C24 UNK     1      32.074  -4.951  34.457  1.00  0.00     0.014 A 
HETATM   36  C22 UNK     1      30.377  -5.632  36.013  1.00  0.00     0.089 A 
HETATM   37  C28 UNK     1      32.571  -4.057  35.409  1.00  0.00     0.001 A 
HETATM   38  C30 UNK     1      31.966  -3.953  36.663  1.00  0.00     0.003 A 
HETATM   39  C26 UNK     1      30.862  -4.745  36.971  1.00  0.00     0.038 A 
HETATM   40  O4  UNK     1      29.259  -6.418  36.354  1.00  0.00    -0.274 OA
HETATM   41  C18 UNK     1      28.705  -7.332  35.463  1.00  0.00     0.304 A 
HETATM   42  O6  UNK     1      27.732  -8.013  35.769  1.00  0.00    -0.259 OA
ENDBRANCH  29  32
ENDBRANCH  27  28
ENDBRANCH  26  27
ENDBRANCH  25  26
ENDBRANCH   2  25
TORSDOF 10
ENDMDL
