MODEL 1
REMARK VINA RESULT:      -8.3      0.000      0.000
REMARK  3 active torsions:
REMARK  status: ('A' for Active; 'I' for Inactive)
REMARK    1  A    between atoms: C1_7  and  N1_6 
REMARK       I    between atoms: C5_11  and  N1_6 
REMARK    2  A    between atoms: C1_7  and  C2_8 
REMARK    3  A    between atoms: C5_11  and  C6_12 
ROOT
HETATM    1  C1  UNK     1      16.550   7.029  32.405  1.00  0.00     0.092 C 
HETATM    2  C3  UNK     1      17.159   7.452  31.062  1.00  0.00     0.053 C 
HETATM    3  C7  UNK     1      15.084   7.188  32.354  1.00  0.00    -0.086 C 
HETATM    4  C16 UNK     1      13.891   7.319  32.309  1.00  0.00     0.015 C 
ENDROOT
BRANCH   1   5
HETATM    5  N1  UNK     1      16.882   5.638  32.615  1.00  0.00    -0.337 N 
HETATM    6  C5  UNK     1      18.178   5.156  32.576  1.00  0.00     0.259 C 
HETATM    7  O2  UNK     1      19.192   5.818  32.366  1.00  0.00    -0.267 OA
HETATM    8  H3  UNK     1      16.113   4.989  32.762  1.00  0.00     0.164 HD
BRANCH   6   9
HETATM    9  C6  UNK     1      18.257   3.712  32.822  1.00  0.00     0.108 A 
HETATM   10  C11 UNK     1      18.456   2.738  31.726  1.00  0.00     0.304 A 
HETATM   11  O1  UNK     1      18.515   1.394  32.086  1.00  0.00    -0.272 OA
HETATM   12  O3  UNK     1      18.566   3.091  30.557  1.00  0.00    -0.259 OA
HETATM   13  C10 UNK     1      18.392   0.977  33.426  1.00  0.00     0.111 A 
HETATM   14  C8  UNK     1      18.205   1.910  34.442  1.00  0.00     0.002 A 
HETATM   15  C13 UNK     1      18.464  -0.389  33.689  1.00  0.00     0.070 A 
HETATM   16  C12 UNK     1      18.086   1.458  35.758  1.00  0.00     0.038 A 
HETATM   17  C9  UNK     1      18.138   3.321  34.097  1.00  0.00     0.037 A 
HETATM   18  C14 UNK     1      18.156   0.089  36.037  1.00  0.00     0.036 A 
HETATM   19 Cl2  UNK     1      18.011  -0.462  37.661  1.00  0.00    -0.084 Cl
HETATM   20  C15 UNK     1      18.346  -0.832  35.004  1.00  0.00     0.050 A 
HETATM   21 Cl1  UNK     1      18.697  -1.544  32.430  1.00  0.00    -0.081 Cl
ENDBRANCH   6   9
ENDBRANCH   1   5
BRANCH   1  22
HETATM   22  C2  UNK     1      17.167   7.869  33.544  1.00  0.00     0.040 C 
HETATM   23  C4  UNK     1      16.691   7.497  34.947  1.00  0.00     0.009 C 
ENDBRANCH   1  22
TORSDOF 3
ENDMDL
MODEL 2
REMARK VINA RESULT:      -8.1      5.321      9.881
REMARK  3 active torsions:
REMARK  status: ('A' for Active; 'I' for Inactive)
REMARK    1  A    between atoms: C1_7  and  N1_6 
REMARK       I    between atoms: C5_11  and  N1_6 
REMARK    2  A    between atoms: C1_7  and  C2_8 
REMARK    3  A    between atoms: C5_11  and  C6_12 
ROOT
HETATM    1  C1  UNK     1      19.625  -6.841  36.810  1.00  0.00     0.092 C 
HETATM    2  C3  UNK     1      20.882  -7.335  36.083  1.00  0.00     0.053 C 
HETATM    3  C7  UNK     1      19.869  -6.832  38.265  1.00  0.00    -0.086 C 
HETATM    4  C16 UNK     1      20.070  -6.827  39.449  1.00  0.00     0.015 C 
ENDROOT
BRANCH   1   5
HETATM    5  N1  UNK     1      19.357  -5.496  36.353  1.00  0.00    -0.337 N 
HETATM    6  C5  UNK     1      20.211  -4.434  36.590  1.00  0.00     0.259 C 
HETATM    7  O2  UNK     1      21.278  -4.483  37.200  1.00  0.00    -0.267 OA
HETATM    8  H3  UNK     1      18.480  -5.331  35.867  1.00  0.00     0.164 HD
BRANCH   6   9
HETATM    9  C6  UNK     1      19.722  -3.172  36.025  1.00  0.00     0.108 A 
HETATM   10  C11 UNK     1      20.015  -2.769  34.631  1.00  0.00     0.304 A 
HETATM   11  O1  UNK     1      19.495  -1.548  34.211  1.00  0.00    -0.272 OA
HETATM   12  O3  UNK     1      20.680  -3.473  33.879  1.00  0.00    -0.259 OA
HETATM   13  C10 UNK     1      18.727  -0.733  35.066  1.00  0.00     0.111 A 
HETATM   14  C8  UNK     1      18.464  -1.130  36.373  1.00  0.00     0.002 A 
HETATM   15  C13 UNK     1      18.249   0.473  34.555  1.00  0.00     0.070 A 
HETATM   16  C12 UNK     1      17.700  -0.294  37.190  1.00  0.00     0.038 A 
HETATM   17  C9  UNK     1      18.994  -2.401  36.842  1.00  0.00     0.037 A 
HETATM   18  C14 UNK     1      17.214   0.918  36.692  1.00  0.00     0.036 A 
HETATM   19 Cl2  UNK     1      16.271   1.944  37.703  1.00  0.00    -0.084 Cl
HETATM   20  C15 UNK     1      17.487   1.300  35.376  1.00  0.00     0.050 A 
HETATM   21 Cl1  UNK     1      18.574   0.964  32.935  1.00  0.00    -0.081 Cl
ENDBRANCH   6   9
ENDBRANCH   1   5
BRANCH   1  22
HETATM   22  C2  UNK     1      18.425  -7.741  36.447  1.00  0.00     0.040 C 
HETATM   23  C4  UNK     1      17.588  -7.252  35.267  1.00  0.00     0.009 C 
ENDBRANCH   1  22
TORSDOF 3
ENDMDL
MODEL 3
REMARK VINA RESULT:      -8.0      0.904      2.065
REMARK  3 active torsions:
REMARK  status: ('A' for Active; 'I' for Inactive)
REMARK    1  A    between atoms: C1_7  and  N1_6 
REMARK       I    between atoms: C5_11  and  N1_6 
REMARK    2  A    between atoms: C1_7  and  C2_8 
REMARK    3  A    between atoms: C5_11  and  C6_12 
ROOT
HETATM    1  C1  UNK     1      17.463   7.468  33.960  1.00  0.00     0.092 C 
HETATM    2  C3  UNK     1      16.511   7.835  35.105  1.00  0.00     0.053 C 
HETATM    3  C7  UNK     1      18.783   8.083  34.201  1.00  0.00    -0.086 C 
HETATM    4  C16 UNK     1      19.855   8.586  34.400  1.00  0.00     0.015 C 
ENDROOT
BRANCH   1   5
HETATM    5  N1  UNK     1      17.593   6.029  33.944  1.00  0.00    -0.337 N 
HETATM    6  C5  UNK     1      18.389   5.352  33.037  1.00  0.00     0.259 C 
HETATM    7  O2  UNK     1      19.072   5.861  32.150  1.00  0.00    -0.267 OA
HETATM    8  H3  UNK     1      17.040   5.501  34.614  1.00  0.00     0.164 HD
BRANCH   6   9
HETATM    9  C6  UNK     1      18.357   3.898  33.224  1.00  0.00     0.108 A 
HETATM   10  C11 UNK     1      18.395   2.957  32.082  1.00  0.00     0.304 A 
HETATM   11  O1  UNK     1      18.360   1.599  32.389  1.00  0.00    -0.272 OA
HETATM   12  O3  UNK     1      18.456   3.348  30.922  1.00  0.00    -0.259 OA
HETATM   13  C10 UNK     1      18.292   1.139  33.719  1.00  0.00     0.111 A 
HETATM   14  C8  UNK     1      18.257   2.040  34.778  1.00  0.00     0.002 A 
HETATM   15  C13 UNK     1      18.261  -0.239  33.926  1.00  0.00     0.070 A 
HETATM   16  C12 UNK     1      18.189   1.545  36.082  1.00  0.00     0.038 A 
HETATM   17  C9  UNK     1      18.292   3.466  34.490  1.00  0.00     0.037 A 
HETATM   18  C14 UNK     1      18.157   0.166  36.306  1.00  0.00     0.036 A 
HETATM   19 Cl2  UNK     1      18.075  -0.439  37.916  1.00  0.00    -0.084 Cl
HETATM   20  C15 UNK     1      18.194  -0.724  35.230  1.00  0.00     0.050 A 
HETATM   21 Cl1  UNK     1      18.306  -1.356  32.614  1.00  0.00    -0.081 Cl
ENDBRANCH   6   9
ENDBRANCH   1   5
BRANCH   1  22
HETATM   22  C2  UNK     1      16.864   7.933  32.615  1.00  0.00     0.040 C 
HETATM   23  C4  UNK     1      15.447   7.437  32.338  1.00  0.00     0.009 C 
ENDBRANCH   1  22
TORSDOF 3
ENDMDL
MODEL 4
REMARK VINA RESULT:      -7.9      3.423      6.600
REMARK  3 active torsions:
REMARK  status: ('A' for Active; 'I' for Inactive)
REMARK    1  A    between atoms: C1_7  and  N1_6 
REMARK       I    between atoms: C5_11  and  N1_6 
REMARK    2  A    between atoms: C1_7  and  C2_8 
REMARK    3  A    between atoms: C5_11  and  C6_12 
ROOT
HETATM    1  C1  UNK     1      17.275  -0.283  35.733  1.00  0.00     0.092 C 
HETATM    2  C3  UNK     1      16.214  -1.117  35.006  1.00  0.00     0.053 C 
HETATM    3  C7  UNK     1      18.508  -1.079  35.888  1.00  0.00    -0.086 C 
HETATM    4  C16 UNK     1      19.509  -1.731  36.013  1.00  0.00     0.015 C 
ENDROOT
BRANCH   1   5
HETATM    5  N1  UNK     1      17.547   0.881  34.921  1.00  0.00    -0.337 N 
HETATM    6  C5  UNK     1      18.102   0.806  33.656  1.00  0.00     0.259 C 
HETATM    7  O2  UNK     1      18.429  -0.222  33.067  1.00  0.00    -0.267 OA
HETATM    8  H3  UNK     1      17.350   1.793  35.325  1.00  0.00     0.164 HD
BRANCH   6   9
HETATM    9  C6  UNK     1      18.279   2.122  33.032  1.00  0.00     0.108 A 
HETATM   10  C11 UNK     1      18.448   2.282  31.570  1.00  0.00     0.304 A 
HETATM   11  O1  UNK     1      18.607   3.582  31.098  1.00  0.00    -0.272 OA
HETATM   12  O3  UNK     1      18.448   1.321  30.808  1.00  0.00    -0.259 OA
HETATM   13  C10 UNK     1      18.607   4.693  31.964  1.00  0.00     0.111 A 
HETATM   14  C8  UNK     1      18.447   4.520  33.335  1.00  0.00     0.002 A 
HETATM   15  C13 UNK     1      18.773   5.956  31.397  1.00  0.00     0.070 A 
HETATM   16  C12 UNK     1      18.453   5.647  34.161  1.00  0.00     0.038 A 
HETATM   17  C9  UNK     1      18.279   3.174  33.859  1.00  0.00     0.037 A 
HETATM   18  C14 UNK     1      18.618   6.920  33.608  1.00  0.00     0.036 A 
HETATM   19 Cl2  UNK     1      18.623   8.304  34.631  1.00  0.00    -0.084 Cl
HETATM   20  C15 UNK     1      18.777   7.074  32.228  1.00  0.00     0.050 A 
HETATM   21 Cl1  UNK     1      18.971   6.169  29.698  1.00  0.00    -0.081 Cl
ENDBRANCH   6   9
ENDBRANCH   1   5
BRANCH   1  22
HETATM   22  C2  UNK     1      16.729   0.178  37.101  1.00  0.00     0.040 C 
HETATM   23  C4  UNK     1      17.530   1.291  37.772  1.00  0.00     0.009 C 
ENDBRANCH   1  22
TORSDOF 3
ENDMDL
MODEL 5
REMARK VINA RESULT:      -7.7      1.805      2.798
REMARK  3 active torsions:
REMARK  status: ('A' for Active; 'I' for Inactive)
REMARK    1  A    between atoms: C1_7  and  N1_6 
REMARK       I    between atoms: C5_11  and  N1_6 
REMARK    2  A    between atoms: C1_7  and  C2_8 
REMARK    3  A    between atoms: C5_11  and  C6_12 
ROOT
HETATM    1  C1  UNK     1      18.340   5.696  32.080  1.00  0.00     0.092 C 
HETATM    2  C3  UNK     1      16.862   6.024  32.328  1.00  0.00     0.053 C 
HETATM    3  C7  UNK     1      19.187   6.621  32.857  1.00  0.00    -0.086 C 
HETATM    4  C16 UNK     1      19.874   7.377  33.490  1.00  0.00     0.015 C 
ENDROOT
BRANCH   1   5
HETATM    5  N1  UNK     1      18.566   4.340  32.525  1.00  0.00    -0.337 N 
HETATM    6  C5  UNK     1      17.962   3.242  31.939  1.00  0.00     0.259 C 
HETATM    7  O2  UNK     1      17.177   3.265  30.993  1.00  0.00    -0.267 OA
HETATM    8  H3  UNK     1      19.173   4.205  33.330  1.00  0.00     0.164 HD
BRANCH   6   9
HETATM    9  C6  UNK     1      18.352   1.974  32.565  1.00  0.00     0.108 A 
HETATM   10  C11 UNK     1      19.071   0.917  31.819  1.00  0.00     0.304 A 
HETATM   11  O1  UNK     1      19.388  -0.241  32.524  1.00  0.00    -0.272 OA
HETATM   12  O3  UNK     1      19.377   1.050  30.639  1.00  0.00    -0.259 OA
HETATM   13  C10 UNK     1      19.042  -0.404  33.880  1.00  0.00     0.111 A 
HETATM   14  C8  UNK     1      18.367   0.602  34.563  1.00  0.00     0.002 A 
HETATM   15  C13 UNK     1      19.402  -1.599  34.501  1.00  0.00     0.070 A 
HETATM   16  C12 UNK     1      18.042   0.403  35.907  1.00  0.00     0.038 A 
HETATM   17  C9  UNK     1      18.022   1.824  33.854  1.00  0.00     0.037 A 
HETATM   18  C14 UNK     1      18.395  -0.790  36.543  1.00  0.00     0.036 A 
HETATM   19 Cl2  UNK     1      17.993  -1.029  38.200  1.00  0.00    -0.084 Cl
HETATM   20  C15 UNK     1      19.075  -1.789  35.841  1.00  0.00     0.050 A 
HETATM   21 Cl1  UNK     1      20.241  -2.845  33.654  1.00  0.00    -0.081 Cl
ENDBRANCH   6   9
ENDBRANCH   1   5
BRANCH   1  22
HETATM   22  C2  UNK     1      18.648   5.787  30.570  1.00  0.00     0.040 C 
HETATM   23  C4  UNK     1      20.133   5.835  30.219  1.00  0.00     0.009 C 
ENDBRANCH   1  22
TORSDOF 3
ENDMDL
MODEL 6
REMARK VINA RESULT:      -7.6     23.292     25.693
REMARK  3 active torsions:
REMARK  status: ('A' for Active; 'I' for Inactive)
REMARK    1  A    between atoms: C1_7  and  N1_6 
REMARK       I    between atoms: C5_11  and  N1_6 
REMARK    2  A    between atoms: C1_7  and  C2_8 
REMARK    3  A    between atoms: C5_11  and  C6_12 
ROOT
HETATM    1  C1  UNK     1      16.149   7.969  10.164  1.00  0.00     0.092 C 
HETATM    2  C3  UNK     1      17.109   6.805   9.888  1.00  0.00     0.053 C 
HETATM    3  C7  UNK     1      16.711   9.214   9.606  1.00  0.00    -0.086 C 
HETATM    4  C16 UNK     1      17.171  10.226   9.152  1.00  0.00     0.015 C 
ENDROOT
BRANCH   1   5
HETATM    5  N1  UNK     1      14.896   7.665   9.511  1.00  0.00    -0.337 N 
HETATM    6  C5  UNK     1      14.230   6.464   9.676  1.00  0.00     0.259 C 
HETATM    7  O2  UNK     1      14.595   5.522  10.375  1.00  0.00    -0.267 OA
HETATM    8  H3  UNK     1      14.517   8.362   8.875  1.00  0.00     0.164 HD
BRANCH   6   9
HETATM    9  C6  UNK     1      12.980   6.396   8.912  1.00  0.00     0.108 A 
HETATM   10  C11 UNK     1      12.911   6.772   7.482  1.00  0.00     0.304 A 
HETATM   11  O1  UNK     1      11.667   6.664   6.866  1.00  0.00    -0.272 OA
HETATM   12  O3  UNK     1      13.897   7.159   6.865  1.00  0.00    -0.259 OA
HETATM   13  C10 UNK     1      10.527   6.219   7.564  1.00  0.00     0.111 A 
HETATM   14  C8  UNK     1      10.614   5.870   8.908  1.00  0.00     0.002 A 
HETATM   15  C13 UNK     1       9.326   6.143   6.862  1.00  0.00     0.070 A 
HETATM   16  C12 UNK     1       9.462   5.433   9.566  1.00  0.00     0.038 A 
HETATM   17  C9  UNK     1      11.900   5.973   9.580  1.00  0.00     0.037 A 
HETATM   18  C14 UNK     1       8.249   5.353   8.875  1.00  0.00     0.036 A 
HETATM   19 Cl2  UNK     1       6.833   4.812   9.691  1.00  0.00    -0.084 Cl
HETATM   20  C15 UNK     1       8.182   5.706   7.526  1.00  0.00     0.050 A 
HETATM   21 Cl1  UNK     1       9.220   6.575   5.196  1.00  0.00    -0.081 Cl
ENDBRANCH   6   9
ENDBRANCH   1   5
BRANCH   1  22
HETATM   22  C2  UNK     1      15.905   8.094  11.683  1.00  0.00     0.040 C 
HETATM   23  C4  UNK     1      14.839   9.112  12.081  1.00  0.00     0.009 C 
ENDBRANCH   1  22
TORSDOF 3
ENDMDL
MODEL 7
REMARK VINA RESULT:      -7.6     12.457     14.929
REMARK  3 active torsions:
REMARK  status: ('A' for Active; 'I' for Inactive)
REMARK    1  A    between atoms: C1_7  and  N1_6 
REMARK       I    between atoms: C5_11  and  N1_6 
REMARK    2  A    between atoms: C1_7  and  C2_8 
REMARK    3  A    between atoms: C5_11  and  C6_12 
ROOT
HETATM    1  C1  UNK     1      20.714  -8.341  37.770  1.00  0.00     0.092 C 
HETATM    2  C3  UNK     1      19.926  -7.697  38.918  1.00  0.00     0.053 C 
HETATM    3  C7  UNK     1      20.166  -7.883  36.479  1.00  0.00    -0.086 C 
HETATM    4  C16 UNK     1      19.716  -7.510  35.429  1.00  0.00     0.015 C 
ENDROOT
BRANCH   1   5
HETATM    5  N1  UNK     1      22.089  -7.914  37.893  1.00  0.00    -0.337 N 
HETATM    6  C5  UNK     1      22.828  -8.072  39.051  1.00  0.00     0.259 C 
HETATM    7  O2  UNK     1      22.435  -8.577  40.100  1.00  0.00    -0.267 OA
HETATM    8  H3  UNK     1      22.508  -7.446  37.094  1.00  0.00     0.164 HD
BRANCH   6   9
HETATM    9  C6  UNK     1      24.199  -7.562  38.927  1.00  0.00     0.108 A 
HETATM   10  C11 UNK     1      24.497  -6.114  38.877  1.00  0.00     0.304 A 
HETATM   11  O1  UNK     1      25.837  -5.755  38.758  1.00  0.00    -0.272 OA
HETATM   12  O3  UNK     1      23.613  -5.267  38.937  1.00  0.00    -0.259 OA
HETATM   13  C10 UNK     1      26.862  -6.720  38.690  1.00  0.00     0.111 A 
HETATM   14  C8  UNK     1      26.559  -8.077  38.740  1.00  0.00     0.002 A 
HETATM   15  C13 UNK     1      28.174  -6.264  38.573  1.00  0.00     0.070 A 
HETATM   16  C12 UNK     1      27.603  -9.003  38.669  1.00  0.00     0.038 A 
HETATM   17  C9  UNK     1      25.168  -8.483  38.862  1.00  0.00     0.037 A 
HETATM   18  C14 UNK     1      28.924  -8.560  38.550  1.00  0.00     0.036 A 
HETATM   19 Cl2  UNK     1      30.206  -9.706  38.465  1.00  0.00    -0.084 Cl
HETATM   20  C15 UNK     1      29.209  -7.194  38.504  1.00  0.00     0.050 A 
HETATM   21 Cl1  UNK     1      28.548  -4.582  38.513  1.00  0.00    -0.081 Cl
ENDBRANCH   6   9
ENDBRANCH   1   5
BRANCH   1  22
HETATM   22  C2  UNK     1      20.653  -9.878  37.894  1.00  0.00     0.040 C 
HETATM   23  C4  UNK     1      19.458 -10.412  38.681  1.00  0.00     0.009 C 
ENDBRANCH   1  22
TORSDOF 3
ENDMDL
MODEL 8
REMARK VINA RESULT:      -7.5      5.374      8.868
REMARK  3 active torsions:
REMARK  status: ('A' for Active; 'I' for Inactive)
REMARK    1  A    between atoms: C1_7  and  N1_6 
REMARK       I    between atoms: C5_11  and  N1_6 
REMARK    2  A    between atoms: C1_7  and  C2_8 
REMARK    3  A    between atoms: C5_11  and  C6_12 
ROOT
HETATM    1  C1  UNK     1      18.741   6.386  32.404  1.00  0.00     0.092 C 
HETATM    2  C3  UNK     1      20.174   6.715  32.841  1.00  0.00     0.053 C 
HETATM    3  C7  UNK     1      18.396   5.018  32.837  1.00  0.00    -0.086 C 
HETATM    4  C16 UNK     1      18.119   3.904  33.190  1.00  0.00     0.015 C 
ENDROOT
BRANCH   1   5
HETATM    5  N1  UNK     1      17.860   7.335  33.044  1.00  0.00    -0.337 N 
HETATM    6  C5  UNK     1      16.491   7.344  32.851  1.00  0.00     0.259 C 
HETATM    7  O2  UNK     1      15.854   6.574  32.135  1.00  0.00    -0.267 OA
HETATM    8  H3  UNK     1      18.286   8.047  33.633  1.00  0.00     0.164 HD
BRANCH   6   9
HETATM    9  C6  UNK     1      15.814   8.401  33.611  1.00  0.00     0.108 A 
HETATM   10  C11 UNK     1      16.155   8.695  35.021  1.00  0.00     0.304 A 
HETATM   11  O1  UNK     1      15.443   9.722  35.635  1.00  0.00    -0.272 OA
HETATM   12  O3  UNK     1      17.021   8.071  35.623  1.00  0.00    -0.259 OA
HETATM   13  C10 UNK     1      14.447  10.448  34.952  1.00  0.00     0.111 A 
HETATM   14  C8  UNK     1      14.143  10.155  33.627  1.00  0.00     0.002 A 
HETATM   15  C13 UNK     1      13.789  11.459  35.650  1.00  0.00     0.070 A 
HETATM   16  C12 UNK     1      13.149  10.897  32.984  1.00  0.00     0.038 A 
HETATM   17  C9  UNK     1      14.869   9.087  32.958  1.00  0.00     0.037 A 
HETATM   18  C14 UNK     1      12.479  11.913  33.671  1.00  0.00     0.036 A 
HETATM   19 Cl2  UNK     1      11.256  12.825  32.873  1.00  0.00    -0.084 Cl
HETATM   20  C15 UNK     1      12.799  12.194  35.001  1.00  0.00     0.050 A 
HETATM   21 Cl1  UNK     1      14.167  11.823  37.292  1.00  0.00    -0.081 Cl
ENDBRANCH   6   9
ENDBRANCH   1   5
BRANCH   1  22
HETATM   22  C2  UNK     1      18.616   6.538  30.873  1.00  0.00     0.040 C 
HETATM   23  C4  UNK     1      19.720   5.858  30.067  1.00  0.00     0.009 C 
ENDBRANCH   1  22
TORSDOF 3
ENDMDL
MODEL 9
REMARK VINA RESULT:      -7.5      5.374      8.540
REMARK  3 active torsions:
REMARK  status: ('A' for Active; 'I' for Inactive)
REMARK    1  A    between atoms: C1_7  and  N1_6 
REMARK       I    between atoms: C5_11  and  N1_6 
REMARK    2  A    between atoms: C1_7  and  C2_8 
REMARK    3  A    between atoms: C5_11  and  C6_12 
ROOT
HETATM    1  C1  UNK     1      18.868   5.846  31.363  1.00  0.00     0.092 C 
HETATM    2  C3  UNK     1      19.169   5.951  29.863  1.00  0.00     0.053 C 
HETATM    3  C7  UNK     1      20.100   6.107  32.133  1.00  0.00    -0.086 C 
HETATM    4  C16 UNK     1      21.104   6.318  32.756  1.00  0.00     0.015 C 
ENDROOT
BRANCH   1   5
HETATM    5  N1  UNK     1      17.876   6.848  31.680  1.00  0.00    -0.337 N 
HETATM    6  C5  UNK     1      17.314   6.984  32.936  1.00  0.00     0.259 C 
HETATM    7  O2  UNK     1      17.570   6.298  33.924  1.00  0.00    -0.267 OA
HETATM    8  H3  UNK     1      17.559   7.450  30.924  1.00  0.00     0.164 HD
BRANCH   6   9
HETATM    9  C6  UNK     1      16.334   8.074  33.008  1.00  0.00     0.108 A 
HETATM   10  C11 UNK     1      14.981   7.953  32.422  1.00  0.00     0.304 A 
HETATM   11  O1  UNK     1      14.141   9.056  32.555  1.00  0.00    -0.272 OA
HETATM   12  O3  UNK     1      14.611   6.935  31.848  1.00  0.00    -0.259 OA
HETATM   13  C10 UNK     1      14.555  10.231  33.215  1.00  0.00     0.111 A 
HETATM   14  C8  UNK     1      15.832  10.323  33.759  1.00  0.00     0.002 A 
HETATM   15  C13 UNK     1      13.643  11.282  33.299  1.00  0.00     0.070 A 
HETATM   16  C12 UNK     1      16.206  11.504  34.405  1.00  0.00     0.038 A 
HETATM   17  C9  UNK     1      16.733   9.187  33.635  1.00  0.00     0.037 A 
HETATM   18  C14 UNK     1      15.303  12.567  34.496  1.00  0.00     0.036 A 
HETATM   19 Cl2  UNK     1      15.768  14.020  35.295  1.00  0.00    -0.084 Cl
HETATM   20  C15 UNK     1      14.024  12.455  33.945  1.00  0.00     0.050 A 
HETATM   21 Cl1  UNK     1      12.061  11.166  32.626  1.00  0.00    -0.081 Cl
ENDBRANCH   6   9
ENDBRANCH   1   5
BRANCH   1  22
HETATM   22  C2  UNK     1      18.291   4.451  31.682  1.00  0.00     0.040 C 
HETATM   23  C4  UNK     1      18.671   3.355  30.688  1.00  0.00     0.009 C 
ENDBRANCH   1  22
TORSDOF 3
ENDMDL
MODEL 10
REMARK VINA RESULT:      -7.5      5.609     10.027
REMARK  3 active torsions:
REMARK  status: ('A' for Active; 'I' for Inactive)
REMARK    1  A    between atoms: C1_7  and  N1_6 
REMARK       I    between atoms: C5_11  and  N1_6 
REMARK    2  A    between atoms: C1_7  and  C2_8 
REMARK    3  A    between atoms: C5_11  and  C6_12 
ROOT
HETATM    1  C1  UNK     1      19.484  -6.314  36.911  1.00  0.00     0.092 C 
HETATM    2  C3  UNK     1      18.093  -6.908  37.164  1.00  0.00     0.053 C 
HETATM    3  C7  UNK     1      20.275  -7.246  36.084  1.00  0.00    -0.086 C 
HETATM    4  C16 UNK     1      20.917  -8.007  35.413  1.00  0.00     0.015 C 
ENDROOT
BRANCH   1   5
HETATM    5  N1  UNK     1      19.304  -5.068  36.203  1.00  0.00    -0.337 N 
HETATM    6  C5  UNK     1      20.231  -4.041  36.232  1.00  0.00     0.259 C 
HETATM    7  O2  UNK     1      21.299  -4.045  36.842  1.00  0.00    -0.267 OA
HETATM    8  H3  UNK     1      18.435  -4.939  35.692  1.00  0.00     0.164 HD
BRANCH   6   9
HETATM    9  C6  UNK     1      19.824  -2.881  35.432  1.00  0.00     0.108 A 
HETATM   10  C11 UNK     1      19.049  -1.761  36.011  1.00  0.00     0.304 A 
HETATM   11  O1  UNK     1      18.722  -0.716  35.150  1.00  0.00    -0.272 OA
HETATM   12  O3  UNK     1      18.709  -1.747  37.189  1.00  0.00    -0.259 OA
HETATM   13  C10 UNK     1      19.108  -0.721  33.795  1.00  0.00     0.111 A 
HETATM   14  C8  UNK     1      19.836  -1.784  33.272  1.00  0.00     0.002 A 
HETATM   15  C13 UNK     1      18.735   0.370  33.012  1.00  0.00     0.070 A 
HETATM   16  C12 UNK     1      20.200  -1.752  31.923  1.00  0.00     0.038 A 
HETATM   17  C9  UNK     1      20.193  -2.891  34.146  1.00  0.00     0.037 A 
HETATM   18  C14 UNK     1      19.832  -0.665  31.125  1.00  0.00     0.036 A 
HETATM   19 Cl2  UNK     1      20.285  -0.630  29.464  1.00  0.00    -0.084 Cl
HETATM   20  C15 UNK     1      19.102   0.394  31.669  1.00  0.00     0.050 A 
HETATM   21 Cl1  UNK     1      17.833   1.688  33.662  1.00  0.00    -0.081 Cl
ENDBRANCH   6   9
ENDBRANCH   1   5
BRANCH   1  22
HETATM   22  C2  UNK     1      20.181  -6.029  38.259  1.00  0.00     0.040 C 
HETATM   23  C4  UNK     1      19.952  -7.086  39.337  1.00  0.00     0.009 C 
ENDBRANCH   1  22
TORSDOF 3
ENDMDL
