MODEL 1
REMARK VINA RESULT:      -8.3      0.000      0.000
REMARK  2 active torsions:
REMARK  status: ('A' for Active; 'I' for Inactive)
REMARK    1  A    between atoms: C18_23  and  O4_4 
REMARK       I    between atoms: C6_11  and  N1_5 
REMARK    2  A    between atoms: C6_11  and  C9_14 
ROOT
HETATM    1  O2  UNK     1      18.571  -1.486  35.557  1.00  0.00    -0.274 OA
HETATM    2  O3  UNK     1      18.521  -2.308  37.688  1.00  0.00    -0.259 OA
HETATM    3  C9  UNK     1      20.019  -3.355  36.181  1.00  0.00     0.108 A 
HETATM    4  C12 UNK     1      20.526  -3.411  34.943  1.00  0.00     0.037 A 
HETATM    5  C13 UNK     1      20.068  -2.483  33.921  1.00  0.00     0.002 A 
HETATM    6  C14 UNK     1      18.988  -2.361  36.556  1.00  0.00     0.304 A 
HETATM    7  C15 UNK     1      19.100  -1.541  34.253  1.00  0.00     0.089 A 
HETATM    8  C16 UNK     1      20.568  -2.505  32.617  1.00  0.00     0.051 A 
HETATM    9  C17 UNK     1      18.620  -0.623  33.320  1.00  0.00     0.041 A 
HETATM   10  C18 UNK     1      20.095  -1.591  31.670  1.00  0.00     0.069 A 
HETATM   11  C19 UNK     1      19.124  -0.652  32.022  1.00  0.00     0.039 A 
ENDROOT
BRANCH   3  12
HETATM   12  C6  UNK     1      20.547  -4.340  37.147  1.00  0.00     0.264 C 
HETATM   13  O1  UNK     1      21.396  -3.943  37.946  1.00  0.00    -0.267 OA
HETATM   14  N1  UNK     1      20.050  -5.631  37.055  1.00  0.00    -0.308 N 
HETATM   15  C1  UNK     1      19.023  -6.156  36.103  1.00  0.00     0.093 C 
HETATM   16  C4  UNK     1      20.447  -6.708  37.888  1.00  0.00     0.044 A 
HETATM   17  C2  UNK     1      19.129  -7.694  36.158  1.00  0.00     0.066 C 
HETATM   18  C5  UNK     1      17.616  -5.700  36.509  1.00  0.00     0.033 C 
HETATM   19  C3  UNK     1      19.895  -7.904  37.423  1.00  0.00    -0.029 A 
HETATM   20  C7  UNK     1      20.136  -9.110  38.064  1.00  0.00     0.009 A 
HETATM   21  C10 UNK     1      20.942  -9.107  39.202  1.00  0.00     0.001 A 
HETATM   22  C11 UNK     1      21.501  -7.911  39.670  1.00  0.00     0.002 A 
HETATM   23  C8  UNK     1      21.261  -6.700  39.012  1.00  0.00     0.030 A 
ENDBRANCH   3  12
BRANCH  10  24
HETATM   24  O4  UNK     1      20.585  -1.618  30.399  1.00  0.00    -0.356 OA
HETATM   25  C20 UNK     1      20.512  -0.405  29.652  1.00  0.00     0.210 C 
ENDBRANCH  10  24
TORSDOF 2
ENDMDL
MODEL 2
REMARK VINA RESULT:      -8.2      8.411     13.030
REMARK  2 active torsions:
REMARK  status: ('A' for Active; 'I' for Inactive)
REMARK    1  A    between atoms: C18_23  and  O4_4 
REMARK       I    between atoms: C6_11  and  N1_5 
REMARK    2  A    between atoms: C6_11  and  C9_14 
ROOT
HETATM    1  O2  UNK     1      18.375   4.435  31.170  1.00  0.00    -0.274 OA
HETATM    2  O3  UNK     1      18.295   6.630  30.538  1.00  0.00    -0.259 OA
HETATM    3  C9  UNK     1      18.161   6.188  32.862  1.00  0.00     0.108 A 
HETATM    4  C12 UNK     1      18.144   5.277  33.842  1.00  0.00     0.037 A 
HETATM    5  C13 UNK     1      18.243   3.860  33.529  1.00  0.00     0.002 A 
HETATM    6  C14 UNK     1      18.280   5.798  31.439  1.00  0.00     0.304 A 
HETATM    7  C15 UNK     1      18.357   3.472  32.198  1.00  0.00     0.089 A 
HETATM    8  C16 UNK     1      18.228   2.875  34.519  1.00  0.00     0.051 A 
HETATM    9  C17 UNK     1      18.456   2.132  31.830  1.00  0.00     0.041 A 
HETATM   10  C18 UNK     1      18.327   1.526  34.166  1.00  0.00     0.069 A 
HETATM   11  C19 UNK     1      18.441   1.156  32.824  1.00  0.00     0.039 A 
ENDROOT
BRANCH   3  12
HETATM   12  C6  UNK     1      18.054   7.601  33.282  1.00  0.00     0.264 C 
HETATM   13  O1  UNK     1      19.104   8.231  33.406  1.00  0.00    -0.267 OA
HETATM   14  N1  UNK     1      16.776   8.086  33.515  1.00  0.00    -0.308 N 
HETATM   15  C1  UNK     1      15.476   7.359  33.377  1.00  0.00     0.093 C 
HETATM   16  C4  UNK     1      16.481   9.408  33.933  1.00  0.00     0.044 A 
HETATM   17  C2  UNK     1      14.425   8.207  34.123  1.00  0.00     0.066 C 
HETATM   18  C5  UNK     1      15.090   7.202  31.901  1.00  0.00     0.033 C 
HETATM   19  C3  UNK     1      15.124   9.522  34.247  1.00  0.00    -0.029 A 
HETATM   20  C7  UNK     1      14.581  10.719  34.687  1.00  0.00     0.009 A 
HETATM   21  C10 UNK     1      15.420  11.826  34.804  1.00  0.00     0.001 A 
HETATM   22  C11 UNK     1      16.783  11.717  34.494  1.00  0.00     0.002 A 
HETATM   23  C8  UNK     1      17.325  10.502  34.059  1.00  0.00     0.030 A 
ENDBRANCH   3  12
BRANCH  10  24
HETATM   24  O4  UNK     1      18.311   0.570  35.135  1.00  0.00    -0.356 OA
HETATM   25  C20 UNK     1      18.194   1.017  36.485  1.00  0.00     0.210 C 
ENDBRANCH  10  24
TORSDOF 2
ENDMDL
MODEL 3
REMARK VINA RESULT:      -8.0     10.731     12.952
REMARK  2 active torsions:
REMARK  status: ('A' for Active; 'I' for Inactive)
REMARK    1  A    between atoms: C18_23  and  O4_4 
REMARK       I    between atoms: C6_11  and  N1_5 
REMARK    2  A    between atoms: C6_11  and  C9_14 
ROOT
HETATM    1  O2  UNK     1      31.704  -4.129  36.251  1.00  0.00    -0.274 OA
HETATM    2  O3  UNK     1      32.969  -4.242  34.352  1.00  0.00    -0.259 OA
HETATM    3  C9  UNK     1      31.584  -6.107  34.819  1.00  0.00     0.108 A 
HETATM    4  C12 UNK     1      30.691  -6.678  35.636  1.00  0.00     0.037 A 
HETATM    5  C13 UNK     1      30.247  -5.984  36.835  1.00  0.00     0.002 A 
HETATM    6  C14 UNK     1      32.149  -4.767  35.097  1.00  0.00     0.304 A 
HETATM    7  C15 UNK     1      30.764  -4.724  37.115  1.00  0.00     0.089 A 
HETATM    8  C16 UNK     1      29.317  -6.542  37.717  1.00  0.00     0.051 A 
HETATM    9  C17 UNK     1      30.380  -4.008  38.247  1.00  0.00     0.041 A 
HETATM   10  C18 UNK     1      28.922  -5.835  38.856  1.00  0.00     0.069 A 
HETATM   11  C19 UNK     1      29.452  -4.571  39.120  1.00  0.00     0.039 A 
ENDROOT
BRANCH   3  12
HETATM   12  C6  UNK     1      31.973  -6.890  33.628  1.00  0.00     0.264 C 
HETATM   13  O1  UNK     1      32.861  -7.731  33.773  1.00  0.00    -0.267 OA
HETATM   14  N1  UNK     1      31.311  -6.594  32.446  1.00  0.00    -0.308 N 
HETATM   15  C1  UNK     1      30.230  -5.585  32.224  1.00  0.00     0.093 C 
HETATM   16  C4  UNK     1      31.558  -7.232  31.204  1.00  0.00     0.044 A 
HETATM   17  C2  UNK     1      30.133  -5.384  30.697  1.00  0.00     0.066 C 
HETATM   18  C5  UNK     1      28.892  -6.081  32.786  1.00  0.00     0.033 C 
HETATM   19  C3  UNK     1      30.856  -6.585  30.183  1.00  0.00    -0.029 A 
HETATM   20  C7  UNK     1      30.933  -7.015  28.867  1.00  0.00     0.009 A 
HETATM   21  C10 UNK     1      31.724  -8.126  28.577  1.00  0.00     0.001 A 
HETATM   22  C11 UNK     1      32.433  -8.776  29.596  1.00  0.00     0.002 A 
HETATM   23  C8  UNK     1      32.358  -8.330  30.920  1.00  0.00     0.030 A 
ENDBRANCH   3  12
BRANCH  10  24
HETATM   24  O4  UNK     1      28.016  -6.383  39.713  1.00  0.00    -0.356 OA
HETATM   25  C20 UNK     1      27.713  -7.766  39.537  1.00  0.00     0.210 C 
ENDBRANCH  10  24
TORSDOF 2
ENDMDL
MODEL 4
REMARK VINA RESULT:      -7.9      6.841     11.734
REMARK  2 active torsions:
REMARK  status: ('A' for Active; 'I' for Inactive)
REMARK    1  A    between atoms: C18_23  and  O4_4 
REMARK       I    between atoms: C6_11  and  N1_5 
REMARK    2  A    between atoms: C6_11  and  C9_14 
ROOT
HETATM    1  O2  UNK     1      19.094   2.689  30.373  1.00  0.00    -0.274 OA
HETATM    2  O3  UNK     1      18.755   4.861  29.749  1.00  0.00    -0.259 OA
HETATM    3  C9  UNK     1      18.024   4.253  31.919  1.00  0.00     0.108 A 
HETATM    4  C12 UNK     1      17.903   3.296  32.846  1.00  0.00     0.037 A 
HETATM    5  C13 UNK     1      18.382   1.949  32.576  1.00  0.00     0.002 A 
HETATM    6  C14 UNK     1      18.643   3.987  30.600  1.00  0.00     0.304 A 
HETATM    7  C15 UNK     1      18.967   1.677  31.344  1.00  0.00     0.089 A 
HETATM    8  C16 UNK     1      18.275   0.918  33.513  1.00  0.00     0.051 A 
HETATM    9  C17 UNK     1      19.447   0.409  31.023  1.00  0.00     0.041 A 
HETATM   10  C18 UNK     1      18.752  -0.359  33.206  1.00  0.00     0.069 A 
HETATM   11  C19 UNK     1      19.337  -0.613  31.964  1.00  0.00     0.039 A 
ENDROOT
BRANCH   3  12
HETATM   12  C6  UNK     1      17.507   5.588  32.287  1.00  0.00     0.264 C 
HETATM   13  O1  UNK     1      16.331   5.829  32.014  1.00  0.00    -0.267 OA
HETATM   14  N1  UNK     1      18.401   6.456  32.893  1.00  0.00    -0.308 N 
HETATM   15  C1  UNK     1      19.834   6.207  33.243  1.00  0.00     0.093 C 
HETATM   16  C4  UNK     1      18.088   7.777  33.304  1.00  0.00     0.044 A 
HETATM   17  C2  UNK     1      20.459   7.590  33.519  1.00  0.00     0.066 C 
HETATM   18  C5  UNK     1      19.948   5.309  34.481  1.00  0.00     0.033 C 
HETATM   19  C3  UNK     1      19.247   8.441  33.714  1.00  0.00    -0.029 A 
HETATM   20  C7  UNK     1      19.210   9.753  34.160  1.00  0.00     0.009 A 
HETATM   21  C10 UNK     1      17.978  10.405  34.204  1.00  0.00     0.001 A 
HETATM   22  C11 UNK     1      16.813   9.744  33.792  1.00  0.00     0.002 A 
HETATM   23  C8  UNK     1      16.860   8.423  33.333  1.00  0.00     0.030 A 
ENDBRANCH   3  12
BRANCH  10  24
HETATM   24  O4  UNK     1      18.644  -1.361  34.123  1.00  0.00    -0.356 OA
HETATM   25  C20 UNK     1      18.600  -0.979  35.497  1.00  0.00     0.210 C 
ENDBRANCH  10  24
TORSDOF 2
ENDMDL
MODEL 5
REMARK VINA RESULT:      -7.8     16.139     20.361
REMARK  2 active torsions:
REMARK  status: ('A' for Active; 'I' for Inactive)
REMARK    1  A    between atoms: C18_23  and  O4_4 
REMARK       I    between atoms: C6_11  and  N1_5 
REMARK    2  A    between atoms: C6_11  and  C9_14 
ROOT
HETATM    1  O2  UNK     1      19.332   0.976  15.514  1.00  0.00    -0.274 OA
HETATM    2  O3  UNK     1      19.293  -0.279  13.605  1.00  0.00    -0.259 OA
HETATM    3  C9  UNK     1      18.781  -1.403  15.627  1.00  0.00     0.108 A 
HETATM    4  C12 UNK     1      18.628  -1.332  16.955  1.00  0.00     0.037 A 
HETATM    5  C13 UNK     1      18.826  -0.070  17.649  1.00  0.00     0.002 A 
HETATM    6  C14 UNK     1      19.151  -0.218  14.821  1.00  0.00     0.304 A 
HETATM    7  C15 UNK     1      19.174   1.057  16.911  1.00  0.00     0.089 A 
HETATM    8  C16 UNK     1      18.679   0.050  19.033  1.00  0.00     0.051 A 
HETATM    9  C17 UNK     1      19.377   2.296  17.515  1.00  0.00     0.041 A 
HETATM   10  C18 UNK     1      18.880   1.287  19.653  1.00  0.00     0.069 A 
HETATM   11  C19 UNK     1      19.228   2.407  18.895  1.00  0.00     0.039 A 
ENDROOT
BRANCH   3  12
HETATM   12  C6  UNK     1      18.559  -2.730  15.014  1.00  0.00     0.264 C 
HETATM   13  O1  UNK     1      17.426  -2.973  14.597  1.00  0.00    -0.267 OA
HETATM   14  N1  UNK     1      19.646  -3.590  14.980  1.00  0.00    -0.308 N 
HETATM   15  C1  UNK     1      21.035  -3.337  15.473  1.00  0.00     0.093 C 
HETATM   16  C4  UNK     1      19.618  -4.902  14.443  1.00  0.00     0.044 A 
HETATM   17  C2  UNK     1      21.720  -4.717  15.561  1.00  0.00     0.066 C 
HETATM   18  C5  UNK     1      21.799  -2.418  14.513  1.00  0.00     0.033 C 
HETATM   19  C3  UNK     1      20.818  -5.561  14.722  1.00  0.00    -0.029 A 
HETATM   20  C7  UNK     1      21.041  -6.865  14.306  1.00  0.00     0.009 A 
HETATM   21  C10 UNK     1      20.037  -7.513  13.587  1.00  0.00     0.001 A 
HETATM   22  C11 UNK     1      18.831  -6.857  13.307  1.00  0.00     0.002 A 
HETATM   23  C8  UNK     1      18.610  -5.545  13.739  1.00  0.00     0.030 A 
ENDBRANCH   3  12
BRANCH  10  24
HETATM   24  O4  UNK     1      18.736   1.399  21.003  1.00  0.00    -0.356 OA
HETATM   25  C20 UNK     1      19.741   2.130  21.703  1.00  0.00     0.210 C 
ENDBRANCH  10  24
TORSDOF 2
ENDMDL
MODEL 6
REMARK VINA RESULT:      -7.8     10.832     14.470
REMARK  2 active torsions:
REMARK  status: ('A' for Active; 'I' for Inactive)
REMARK    1  A    between atoms: C18_23  and  O4_4 
REMARK       I    between atoms: C6_11  and  N1_5 
REMARK    2  A    between atoms: C6_11  and  C9_14 
ROOT
HETATM    1  O2  UNK     1      13.848   9.291  34.661  1.00  0.00    -0.274 OA
HETATM    2  O3  UNK     1      13.895   7.471  33.280  1.00  0.00    -0.259 OA
HETATM    3  C9  UNK     1      15.723   8.970  33.125  1.00  0.00     0.108 A 
HETATM    4  C12 UNK     1      16.304  10.096  33.556  1.00  0.00     0.037 A 
HETATM    5  C13 UNK     1      15.669  10.900  34.589  1.00  0.00     0.002 A 
HETATM    6  C14 UNK     1      14.430   8.502  33.673  1.00  0.00     0.304 A 
HETATM    7  C15 UNK     1      14.454  10.477  35.118  1.00  0.00     0.089 A 
HETATM    8  C16 UNK     1      16.238  12.082  35.068  1.00  0.00     0.051 A 
HETATM    9  C17 UNK     1      13.794  11.201  36.110  1.00  0.00     0.041 A 
HETATM   10  C18 UNK     1      15.588  12.819  36.063  1.00  0.00     0.069 A 
HETATM   11  C19 UNK     1      14.369  12.378  36.582  1.00  0.00     0.039 A 
ENDROOT
BRANCH   3  12
HETATM   12  C6  UNK     1      16.446   8.224  32.073  1.00  0.00     0.264 C 
HETATM   13  O1  UNK     1      16.316   8.620  30.915  1.00  0.00    -0.267 OA
HETATM   14  N1  UNK     1      17.192   7.131  32.487  1.00  0.00    -0.308 N 
HETATM   15  C1  UNK     1      17.377   6.616  33.879  1.00  0.00     0.093 C 
HETATM   16  C4  UNK     1      17.940   6.293  31.621  1.00  0.00     0.044 A 
HETATM   17  C2  UNK     1      17.950   5.191  33.740  1.00  0.00     0.066 C 
HETATM   18  C5  UNK     1      18.341   7.508  34.671  1.00  0.00     0.033 C 
HETATM   19  C3  UNK     1      18.429   5.189  32.324  1.00  0.00    -0.029 A 
HETATM   20  C7  UNK     1      19.191   4.214  31.701  1.00  0.00     0.009 A 
HETATM   21  C10 UNK     1      19.474   4.359  30.343  1.00  0.00     0.001 A 
HETATM   22  C11 UNK     1      18.984   5.463  29.632  1.00  0.00     0.002 A 
HETATM   23  C8  UNK     1      18.207   6.439  30.267  1.00  0.00     0.030 A 
ENDBRANCH   3  12
BRANCH  10  24
HETATM   24  O4  UNK     1      16.146  13.972  36.526  1.00  0.00    -0.356 OA
HETATM   25  C20 UNK     1      15.791  14.379  37.846  1.00  0.00     0.210 C 
ENDBRANCH  10  24
TORSDOF 2
ENDMDL
MODEL 7
REMARK VINA RESULT:      -7.8     10.989     12.142
REMARK  2 active torsions:
REMARK  status: ('A' for Active; 'I' for Inactive)
REMARK    1  A    between atoms: C18_23  and  O4_4 
REMARK       I    between atoms: C6_11  and  N1_5 
REMARK    2  A    between atoms: C6_11  and  C9_14 
ROOT
HETATM    1  O2  UNK     1      30.340  -5.956  30.349  1.00  0.00    -0.274 OA
HETATM    2  O3  UNK     1      29.722  -4.320  31.819  1.00  0.00    -0.259 OA
HETATM    3  C9  UNK     1      30.959  -6.134  32.708  1.00  0.00     0.108 A 
HETATM    4  C12 UNK     1      31.579  -7.299  32.486  1.00  0.00     0.037 A 
HETATM    5  C13 UNK     1      31.611  -7.869  31.148  1.00  0.00     0.002 A 
HETATM    6  C14 UNK     1      30.291  -5.387  31.619  1.00  0.00     0.304 A 
HETATM    7  C15 UNK     1      30.990  -7.183  30.110  1.00  0.00     0.089 A 
HETATM    8  C16 UNK     1      32.244  -9.083  30.870  1.00  0.00     0.051 A 
HETATM    9  C17 UNK     1      30.985  -7.673  28.805  1.00  0.00     0.041 A 
HETATM   10  C18 UNK     1      32.248  -9.588  29.566  1.00  0.00     0.069 A 
HETATM   11  C19 UNK     1      31.620  -8.884  28.537  1.00  0.00     0.039 A 
ENDROOT
BRANCH   3  12
HETATM   12  C6  UNK     1      30.981  -5.639  34.101  1.00  0.00     0.264 C 
HETATM   13  O1  UNK     1      31.872  -4.844  34.400  1.00  0.00    -0.267 OA
HETATM   14  N1  UNK     1      30.001  -6.130  34.951  1.00  0.00    -0.308 N 
HETATM   15  C1  UNK     1      28.903  -7.093  34.631  1.00  0.00     0.093 C 
HETATM   16  C4  UNK     1      29.873  -5.778  36.319  1.00  0.00     0.044 A 
HETATM   17  C2  UNK     1      28.363  -7.598  35.986  1.00  0.00     0.066 C 
HETATM   18  C5  UNK     1      27.789  -6.409  33.830  1.00  0.00     0.033 C 
HETATM   19  C3  UNK     1      28.903  -6.575  36.931  1.00  0.00    -0.029 A 
HETATM   20  C7  UNK     1      28.591  -6.431  38.274  1.00  0.00     0.009 A 
HETATM   21  C10 UNK     1      29.262  -5.456  39.011  1.00  0.00     0.001 A 
HETATM   22  C11 UNK     1      30.238  -4.656  38.403  1.00  0.00     0.002 A 
HETATM   23  C8  UNK     1      30.554  -4.814  37.049  1.00  0.00     0.030 A 
ENDBRANCH   3  12
BRANCH  10  24
HETATM   24  O4  UNK     1      32.866 -10.772  29.300  1.00  0.00    -0.356 OA
HETATM   25  C20 UNK     1      32.466 -11.900  30.077  1.00  0.00     0.210 C 
ENDBRANCH  10  24
TORSDOF 2
ENDMDL
MODEL 8
REMARK VINA RESULT:      -7.6     11.467     13.610
REMARK  2 active torsions:
REMARK  status: ('A' for Active; 'I' for Inactive)
REMARK    1  A    between atoms: C18_23  and  O4_4 
REMARK       I    between atoms: C6_11  and  N1_5 
REMARK    2  A    between atoms: C6_11  and  C9_14 
ROOT
HETATM    1  O2  UNK     1      29.924  -4.466  37.576  1.00  0.00    -0.274 OA
HETATM    2  O3  UNK     1      31.831  -3.608  36.654  1.00  0.00    -0.259 OA
HETATM    3  C9  UNK     1      31.858  -5.913  37.200  1.00  0.00     0.108 A 
HETATM    4  C12 UNK     1      31.202  -6.966  37.701  1.00  0.00     0.037 A 
HETATM    5  C13 UNK     1      29.836  -6.819  38.179  1.00  0.00     0.002 A 
HETATM    6  C14 UNK     1      31.232  -4.575  37.112  1.00  0.00     0.304 A 
HETATM    7  C15 UNK     1      29.229  -5.570  38.105  1.00  0.00     0.089 A 
HETATM    8  C16 UNK     1      29.114  -7.890  38.711  1.00  0.00     0.051 A 
HETATM    9  C17 UNK     1      27.923  -5.362  38.545  1.00  0.00     0.041 A 
HETATM   10  C18 UNK     1      27.803  -7.697  39.157  1.00  0.00     0.069 A 
HETATM   11  C19 UNK     1      27.209  -6.435  39.074  1.00  0.00     0.039 A 
ENDROOT
BRANCH   3  12
HETATM   12  C6  UNK     1      33.241  -6.164  36.741  1.00  0.00     0.264 C 
HETATM   13  O1  UNK     1      34.145  -5.986  37.558  1.00  0.00    -0.267 OA
HETATM   14  N1  UNK     1      33.396  -6.562  35.422  1.00  0.00    -0.308 N 
HETATM   15  C1  UNK     1      32.330  -6.790  34.398  1.00  0.00     0.093 C 
HETATM   16  C4  UNK     1      34.643  -6.836  34.805  1.00  0.00     0.044 A 
HETATM   17  C2  UNK     1      33.045  -6.826  33.031  1.00  0.00     0.066 C 
HETATM   18  C5  UNK     1      31.597  -8.112  34.655  1.00  0.00     0.033 C 
HETATM   19  C3  UNK     1      34.468  -7.038  33.434  1.00  0.00    -0.029 A 
HETATM   20  C7  UNK     1      35.539  -7.319  32.601  1.00  0.00     0.009 A 
HETATM   21  C10 UNK     1      36.812  -7.408  33.163  1.00  0.00     0.001 A 
HETATM   22  C11 UNK     1      36.995  -7.203  34.538  1.00  0.00     0.002 A 
HETATM   23  C8  UNK     1      35.909  -6.910  35.370  1.00  0.00     0.030 A 
ENDBRANCH   3  12
BRANCH  10  24
HETATM   24  O4  UNK     1      27.103  -8.744  39.676  1.00  0.00    -0.356 OA
HETATM   25  C20 UNK     1      27.841  -9.923  39.992  1.00  0.00     0.210 C 
ENDBRANCH  10  24
TORSDOF 2
ENDMDL
MODEL 9
REMARK VINA RESULT:      -7.6      2.117      3.593
REMARK  2 active torsions:
REMARK  status: ('A' for Active; 'I' for Inactive)
REMARK    1  A    between atoms: C18_23  and  O4_4 
REMARK       I    between atoms: C6_11  and  N1_5 
REMARK    2  A    between atoms: C6_11  and  C9_14 
ROOT
HETATM    1  O2  UNK     1      19.547  -2.176  34.466  1.00  0.00    -0.274 OA
HETATM    2  O3  UNK     1      20.726  -4.093  34.069  1.00  0.00    -0.259 OA
HETATM    3  C9  UNK     1      20.094  -3.680  36.314  1.00  0.00     0.108 A 
HETATM    4  C12 UNK     1      19.476  -2.876  37.187  1.00  0.00     0.037 A 
HETATM    5  C13 UNK     1      18.846  -1.646  36.732  1.00  0.00     0.002 A 
HETATM    6  C14 UNK     1      20.161  -3.358  34.871  1.00  0.00     0.304 A 
HETATM    7  C15 UNK     1      18.897  -1.325  35.380  1.00  0.00     0.089 A 
HETATM    8  C16 UNK     1      18.192  -0.776  37.608  1.00  0.00     0.051 A 
HETATM    9  C17 UNK     1      18.313  -0.162  34.880  1.00  0.00     0.041 A 
HETATM   10  C18 UNK     1      17.602   0.394  37.121  1.00  0.00     0.069 A 
HETATM   11  C19 UNK     1      17.662   0.699  35.759  1.00  0.00     0.039 A 
ENDROOT
BRANCH   3  12
HETATM   12  C6  UNK     1      20.703  -4.905  36.874  1.00  0.00     0.264 C 
HETATM   13  O1  UNK     1      21.769  -4.778  37.475  1.00  0.00    -0.267 OA
HETATM   14  N1  UNK     1      20.023  -6.094  36.654  1.00  0.00    -0.308 N 
HETATM   15  C1  UNK     1      18.729  -6.295  35.932  1.00  0.00     0.093 C 
HETATM   16  C4  UNK     1      20.460  -7.365  37.105  1.00  0.00     0.044 A 
HETATM   17  C2  UNK     1      18.629  -7.806  35.636  1.00  0.00     0.066 C 
HETATM   18  C5  UNK     1      17.544  -5.838  36.792  1.00  0.00     0.033 C 
HETATM   19  C3  UNK     1      19.648  -8.370  36.571  1.00  0.00    -0.029 A 
HETATM   20  C7  UNK     1      19.870  -9.708  36.857  1.00  0.00     0.009 A 
HETATM   21  C10 UNK     1      20.925 -10.039  37.706  1.00  0.00     0.001 A 
HETATM   22  C11 UNK     1      21.745  -9.036  38.242  1.00  0.00     0.002 A 
HETATM   23  C8  UNK     1      21.520  -7.689  37.941  1.00  0.00     0.030 A 
ENDBRANCH   3  12
BRANCH  10  24
HETATM   24  O4  UNK     1      16.966   1.240  37.979  1.00  0.00    -0.356 OA
HETATM   25  C20 UNK     1      15.915   2.039  37.440  1.00  0.00     0.210 C 
ENDBRANCH  10  24
TORSDOF 2
ENDMDL
MODEL 10
REMARK VINA RESULT:      -7.6     11.247     12.519
REMARK  2 active torsions:
REMARK  status: ('A' for Active; 'I' for Inactive)
REMARK    1  A    between atoms: C18_23  and  O4_4 
REMARK       I    between atoms: C6_11  and  N1_5 
REMARK    2  A    between atoms: C6_11  and  C9_14 
ROOT
HETATM    1  O2  UNK     1      30.582  -6.043  30.569  1.00  0.00    -0.274 OA
HETATM    2  O3  UNK     1      29.480  -4.681  32.035  1.00  0.00    -0.259 OA
HETATM    3  C9  UNK     1      30.051  -6.843  32.817  1.00  0.00     0.108 A 
HETATM    4  C12 UNK     1      30.622  -8.026  32.561  1.00  0.00     0.037 A 
HETATM    5  C13 UNK     1      31.217  -8.285  31.259  1.00  0.00     0.002 A 
HETATM    6  C14 UNK     1      30.002  -5.765  31.804  1.00  0.00     0.304 A 
HETATM    7  C15 UNK     1      31.184  -7.286  30.293  1.00  0.00     0.089 A 
HETATM    8  C16 UNK     1      31.823  -9.505  30.947  1.00  0.00     0.051 A 
HETATM    9  C17 UNK     1      31.736  -7.470  29.027  1.00  0.00     0.041 A 
HETATM   10  C18 UNK     1      32.382  -9.705  29.681  1.00  0.00     0.069 A 
HETATM   11  C19 UNK     1      32.339  -8.689  28.724  1.00  0.00     0.039 A 
ENDROOT
BRANCH   3  12
HETATM   12  C6  UNK     1      29.473  -6.676  34.168  1.00  0.00     0.264 C 
HETATM   13  O1  UNK     1      28.346  -7.134  34.357  1.00  0.00    -0.267 OA
HETATM   14  N1  UNK     1      30.250  -6.001  35.097  1.00  0.00    -0.308 N 
HETATM   15  C1  UNK     1      31.619  -5.429  34.912  1.00  0.00     0.093 C 
HETATM   16  C4  UNK     1      29.857  -5.737  36.434  1.00  0.00     0.044 A 
HETATM   17  C2  UNK     1      31.848  -4.464  36.094  1.00  0.00     0.066 C 
HETATM   18  C5  UNK     1      32.680  -6.536  34.909  1.00  0.00     0.033 C 
HETATM   19  C3  UNK     1      30.783  -4.891  37.049  1.00  0.00    -0.029 A 
HETATM   20  C7  UNK     1      30.624  -4.478  38.363  1.00  0.00     0.009 A 
HETATM   21  C10 UNK     1      29.516  -4.936  39.074  1.00  0.00     0.001 A 
HETATM   22  C11 UNK     1      28.582  -5.783  38.461  1.00  0.00     0.002 A 
HETATM   23  C8  UNK     1      28.744  -6.187  37.131  1.00  0.00     0.030 A 
ENDBRANCH   3  12
BRANCH  10  24
HETATM   24  O4  UNK     1      32.970 -10.896  29.381  1.00  0.00    -0.356 OA
HETATM   25  C20 UNK     1      32.567 -12.029  30.150  1.00  0.00     0.210 C 
ENDBRANCH  10  24
TORSDOF 2
ENDMDL
