MODEL 1
REMARK VINA RESULT:      -7.9      0.000      0.000
REMARK  1 active torsions:
REMARK  status: ('A' for Active; 'I' for Inactive)
REMARK    1  A    between atoms: C2_6  and  O2_2 
ROOT
HETATM    1  O1  UNK     1      17.676   1.789  34.353  1.00  0.00    -0.338 OA
HETATM    2  O3  UNK     1      19.799  -1.408  31.372  1.00  0.00    -0.274 OA
HETATM    3  O4  UNK     1      20.788  -2.875  29.916  1.00  0.00    -0.260 OA
HETATM    4  C1  UNK     1      17.380   0.748  35.305  1.00  0.00     0.086 C 
HETATM    5  C2  UNK     1      18.493  -0.317  35.355  1.00  0.00     0.157 C 
HETATM    6  C3  UNK     1      18.759  -0.920  33.979  1.00  0.00     0.079 C 
HETATM    7  C4  UNK     1      18.765   0.142  32.913  1.00  0.00     0.013 A 
HETATM    8  C5  UNK     1      18.229   1.410  33.160  1.00  0.00     0.079 A 
HETATM    9  C6  UNK     1      17.243   1.460  36.660  1.00  0.00     0.049 C 
HETATM   10  C7  UNK     1      16.013   0.133  34.951  1.00  0.00     0.049 C 
HETATM   11  C8  UNK     1      19.282  -0.118  31.635  1.00  0.00     0.098 A 
HETATM   12  C9  UNK     1      18.253   2.394  32.165  1.00  0.00     0.038 A 
HETATM   13  C10 UNK     1      19.301   0.850  30.632  1.00  0.00    -0.001 A 
HETATM   14  C11 UNK     1      18.786   2.117  30.906  1.00  0.00     0.017 A 
HETATM   15  C12 UNK     1      19.858   0.512  29.332  1.00  0.00     0.020 A 
HETATM   16  C13 UNK     1      20.337  -1.756  30.138  1.00  0.00     0.288 A 
HETATM   17  C14 UNK     1      20.343  -0.710  29.101  1.00  0.00     0.083 A 
ENDROOT
BRANCH   5  18
HETATM   18  O2  UNK     1      19.722   0.252  35.816  1.00  0.00    -0.392 OA
HETATM   19  H11 UNK     1      19.534   0.730  36.642  1.00  0.00     0.210 HD
ENDBRANCH   5  18
TORSDOF 1
ENDMDL
MODEL 2
REMARK VINA RESULT:      -7.8      1.882      3.117
REMARK  1 active torsions:
REMARK  status: ('A' for Active; 'I' for Inactive)
REMARK    1  A    between atoms: C2_6  and  O2_2 
ROOT
HETATM    1  O1  UNK     1      19.066  -1.804  34.967  1.00  0.00    -0.338 OA
HETATM    2  O3  UNK     1      18.780   0.557  30.729  1.00  0.00    -0.274 OA
HETATM    3  O4  UNK     1      18.700   1.640  28.711  1.00  0.00    -0.260 OA
HETATM    4  C1  UNK     1      18.269  -0.794  35.616  1.00  0.00     0.086 C 
HETATM    5  C2  UNK     1      17.183  -0.230  34.677  1.00  0.00     0.157 C 
HETATM    6  C3  UNK     1      17.784   0.320  33.387  1.00  0.00     0.079 C 
HETATM    7  C4  UNK     1      18.855  -0.592  32.855  1.00  0.00     0.013 A 
HETATM    8  C5  UNK     1      19.424  -1.581  33.665  1.00  0.00     0.079 A 
HETATM    9  C6  UNK     1      17.633  -1.492  36.829  1.00  0.00     0.049 C 
HETATM   10  C7  UNK     1      19.204   0.311  36.140  1.00  0.00     0.049 C 
HETATM   11  C8  UNK     1      19.332  -0.460  31.543  1.00  0.00     0.098 A 
HETATM   12  C9  UNK     1      20.410  -2.433  33.155  1.00  0.00     0.038 A 
HETATM   13  C10 UNK     1      20.322  -1.295  31.026  1.00  0.00    -0.001 A 
HETATM   14  C11 UNK     1      20.858  -2.291  31.841  1.00  0.00     0.017 A 
HETATM   15  C12 UNK     1      20.764  -1.104  29.654  1.00  0.00     0.020 A 
HETATM   16  C13 UNK     1      19.186   0.759  29.414  1.00  0.00     0.288 A 
HETATM   17  C14 UNK     1      20.232  -0.141  28.900  1.00  0.00     0.083 A 
ENDROOT
BRANCH   5  18
HETATM   18  O2  UNK     1      16.246  -1.248  34.312  1.00  0.00    -0.392 OA
HETATM   19  H11 UNK     1      15.431  -0.807  34.018  1.00  0.00     0.210 HD
ENDBRANCH   5  18
TORSDOF 1
ENDMDL
MODEL 3
REMARK VINA RESULT:      -7.7      1.582      2.893
REMARK  1 active torsions:
REMARK  status: ('A' for Active; 'I' for Inactive)
REMARK    1  A    between atoms: C2_6  and  O2_2 
ROOT
HETATM    1  O1  UNK     1      18.463  -0.619  35.482  1.00  0.00    -0.338 OA
HETATM    2  O3  UNK     1      18.959   0.664  30.820  1.00  0.00    -0.274 OA
HETATM    3  O4  UNK     1      19.238   1.222  28.616  1.00  0.00    -0.260 OA
HETATM    4  C1  UNK     1      17.954   0.687  35.816  1.00  0.00     0.086 C 
HETATM    5  C2  UNK     1      17.093   1.276  34.681  1.00  0.00     0.157 C 
HETATM    6  C3  UNK     1      17.859   1.330  33.362  1.00  0.00     0.079 C 
HETATM    7  C4  UNK     1      18.653   0.072  33.144  1.00  0.00     0.013 A 
HETATM    8  C5  UNK     1      18.906  -0.811  34.200  1.00  0.00     0.079 A 
HETATM    9  C6  UNK     1      17.116   0.486  37.089  1.00  0.00     0.049 C 
HETATM   10  C7  UNK     1      19.142   1.602  36.168  1.00  0.00     0.049 C 
HETATM   11  C8  UNK     1      19.187  -0.239  31.885  1.00  0.00     0.098 A 
HETATM   12  C9  UNK     1      19.634  -1.985  33.983  1.00  0.00     0.038 A 
HETATM   13  C10 UNK     1      19.924  -1.400  31.657  1.00  0.00    -0.001 A 
HETATM   14  C11 UNK     1      20.143  -2.280  32.717  1.00  0.00     0.017 A 
HETATM   15  C12 UNK     1      20.442  -1.661  30.324  1.00  0.00     0.020 A 
HETATM   16  C13 UNK     1      19.442   0.438  29.536  1.00  0.00     0.288 A 
HETATM   17  C14 UNK     1      20.216  -0.799  29.330  1.00  0.00     0.083 A 
ENDROOT
BRANCH   5  18
HETATM   18  O2  UNK     1      15.924   0.480  34.463  1.00  0.00    -0.392 OA
HETATM   19  H11 UNK     1      16.189  -0.298  33.945  1.00  0.00     0.210 HD
ENDBRANCH   5  18
TORSDOF 1
ENDMDL
MODEL 4
REMARK VINA RESULT:      -7.6     23.715     25.594
REMARK  1 active torsions:
REMARK  status: ('A' for Active; 'I' for Inactive)
REMARK    1  A    between atoms: C2_6  and  O2_2 
ROOT
HETATM    1  O1  UNK     1      10.185   7.784   8.346  1.00  0.00    -0.338 OA
HETATM    2  O3  UNK     1      14.044   5.017   9.381  1.00  0.00    -0.274 OA
HETATM    3  O4  UNK     1      15.902   3.766   9.865  1.00  0.00    -0.260 OA
HETATM    4  C1  UNK     1       9.453   6.636   7.873  1.00  0.00     0.086 C 
HETATM    5  C2  UNK     1       9.783   5.370   8.689  1.00  0.00     0.157 C 
HETATM    6  C3  UNK     1      11.281   5.076   8.693  1.00  0.00     0.079 C 
HETATM    7  C4  UNK     1      12.080   6.336   8.882  1.00  0.00     0.013 A 
HETATM    8  C5  UNK     1      11.494   7.593   8.697  1.00  0.00     0.079 A 
HETATM    9  C6  UNK     1       7.969   7.008   8.019  1.00  0.00     0.049 C 
HETATM   10  C7  UNK     1       9.751   6.446   6.375  1.00  0.00     0.049 C 
HETATM   11  C8  UNK     1      13.440   6.286   9.221  1.00  0.00     0.098 A 
HETATM   12  C9  UNK     1      12.244   8.759   8.889  1.00  0.00     0.038 A 
HETATM   13  C10 UNK     1      14.202   7.440   9.404  1.00  0.00    -0.001 A 
HETATM   14  C11 UNK     1      13.593   8.684   9.241  1.00  0.00     0.017 A 
HETATM   15  C12 UNK     1      15.605   7.313   9.761  1.00  0.00     0.020 A 
HETATM   16  C13 UNK     1      15.384   4.869   9.723  1.00  0.00     0.288 A 
HETATM   17  C14 UNK     1      16.159   6.108   9.910  1.00  0.00     0.083 A 
ENDROOT
BRANCH   5  18
HETATM   18  O2  UNK     1       9.374   5.521  10.051  1.00  0.00    -0.392 OA
HETATM   19  H11 UNK     1       9.975   6.159  10.471  1.00  0.00     0.210 HD
ENDBRANCH   5  18
TORSDOF 1
ENDMDL
MODEL 5
REMARK VINA RESULT:      -7.5      4.250      5.864
REMARK  1 active torsions:
REMARK  status: ('A' for Active; 'I' for Inactive)
REMARK    1  A    between atoms: C2_6  and  O2_2 
ROOT
HETATM    1  O1  UNK     1      17.972   7.975  32.166  1.00  0.00    -0.338 OA
HETATM    2  O3  UNK     1      18.035   3.160  32.825  1.00  0.00    -0.274 OA
HETATM    3  O4  UNK     1      18.075   0.883  33.072  1.00  0.00    -0.260 OA
HETATM    4  C1  UNK     1      17.204   8.158  33.371  1.00  0.00     0.086 C 
HETATM    5  C2  UNK     1      17.600   7.146  34.464  1.00  0.00     0.157 C 
HETATM    6  C3  UNK     1      17.475   5.707  33.972  1.00  0.00     0.079 C 
HETATM    7  C4  UNK     1      18.004   5.564  32.571  1.00  0.00     0.013 A 
HETATM    8  C5  UNK     1      18.214   6.688  31.765  1.00  0.00     0.079 A 
HETATM    9  C6  UNK     1      17.496   9.597  33.827  1.00  0.00     0.049 C 
HETATM   10  C7  UNK     1      15.708   8.065  33.019  1.00  0.00     0.049 C 
HETATM   11  C8  UNK     1      18.274   4.301  32.024  1.00  0.00     0.098 A 
HETATM   12  C9  UNK     1      18.719   6.545  30.468  1.00  0.00     0.038 A 
HETATM   13  C10 UNK     1      18.766   4.143  30.729  1.00  0.00    -0.001 A 
HETATM   14  C11 UNK     1      18.994   5.278  29.951  1.00  0.00     0.017 A 
HETATM   15  C12 UNK     1      19.029   2.804  30.230  1.00  0.00     0.020 A 
HETATM   16  C13 UNK     1      18.279   1.868  32.371  1.00  0.00     0.288 A 
HETATM   17  C14 UNK     1      18.800   1.738  30.999  1.00  0.00     0.083 A 
ENDROOT
BRANCH   5  18
HETATM   18  O2  UNK     1      18.958   7.341  34.871  1.00  0.00    -0.392 OA
HETATM   19  H11 UNK     1      19.105   6.812  35.673  1.00  0.00     0.210 HD
ENDBRANCH   5  18
TORSDOF 1
ENDMDL
MODEL 6
REMARK VINA RESULT:      -7.5      1.857      2.412
REMARK  1 active torsions:
REMARK  status: ('A' for Active; 'I' for Inactive)
REMARK    1  A    between atoms: C2_6  and  O2_2 
ROOT
HETATM    1  O1  UNK     1      17.836   1.810  35.784  1.00  0.00    -0.338 OA
HETATM    2  O3  UNK     1      18.591   0.966  31.057  1.00  0.00    -0.274 OA
HETATM    3  O4  UNK     1      18.934   0.631  28.817  1.00  0.00    -0.260 OA
HETATM    4  C1  UNK     1      17.515   0.424  36.009  1.00  0.00     0.086 C 
HETATM    5  C2  UNK     1      18.360  -0.513  35.122  1.00  0.00     0.157 C 
HETATM    6  C3  UNK     1      18.214  -0.170  33.642  1.00  0.00     0.079 C 
HETATM    7  C4  UNK     1      18.240   1.317  33.423  1.00  0.00     0.013 A 
HETATM    8  C5  UNK     1      18.049   2.203  34.489  1.00  0.00     0.079 A 
HETATM    9  C6  UNK     1      17.804   0.174  37.498  1.00  0.00     0.049 C 
HETATM   10  C7  UNK     1      16.006   0.225  35.778  1.00  0.00     0.049 C 
HETATM   11  C8  UNK     1      18.427   1.858  32.143  1.00  0.00     0.098 A 
HETATM   12  C9  UNK     1      18.089   3.586  34.277  1.00  0.00     0.038 A 
HETATM   13  C10 UNK     1      18.457   3.233  31.915  1.00  0.00    -0.001 A 
HETATM   14  C11 UNK     1      18.292   4.100  32.995  1.00  0.00     0.017 A 
HETATM   15  C12 UNK     1      18.661   3.723  30.562  1.00  0.00     0.020 A 
HETATM   16  C13 UNK     1      18.788   1.409  29.754  1.00  0.00     0.288 A 
HETATM   17  C14 UNK     1      18.816   2.867  29.549  1.00  0.00     0.083 A 
ENDROOT
BRANCH   5  18
HETATM   18  O2  UNK     1      19.749  -0.408  35.449  1.00  0.00    -0.392 OA
HETATM   19  H11 UNK     1      19.927   0.518  35.684  1.00  0.00     0.210 HD
ENDBRANCH   5  18
TORSDOF 1
ENDMDL
MODEL 7
REMARK VINA RESULT:      -7.4      6.650      8.430
REMARK  1 active torsions:
REMARK  status: ('A' for Active; 'I' for Inactive)
REMARK    1  A    between atoms: C2_6  and  O2_2 
ROOT
HETATM    1  O1  UNK     1      16.385   9.302  35.135  1.00  0.00    -0.338 OA
HETATM    2  O3  UNK     1      17.869   6.985  31.130  1.00  0.00    -0.274 OA
HETATM    3  O4  UNK     1      18.628   5.885  29.268  1.00  0.00    -0.260 OA
HETATM    4  C1  UNK     1      15.344   9.971  34.397  1.00  0.00     0.086 C 
HETATM    5  C2  UNK     1      14.751   9.069  33.296  1.00  0.00     0.157 C 
HETATM    6  C3  UNK     1      15.829   8.558  32.344  1.00  0.00     0.079 C 
HETATM    7  C4  UNK     1      17.061   8.136  33.096  1.00  0.00     0.013 A 
HETATM    8  C5  UNK     1      17.263   8.529  34.423  1.00  0.00     0.079 A 
HETATM    9  C6  UNK     1      14.274  10.336  35.438  1.00  0.00     0.049 C 
HETATM   10  C7  UNK     1      15.914  11.280  33.820  1.00  0.00     0.049 C 
HETATM   11  C8  UNK     1      18.055   7.360  32.480  1.00  0.00     0.098 A 
HETATM   12  C9  UNK     1      18.407   8.119  35.117  1.00  0.00     0.038 A 
HETATM   13  C10 UNK     1      19.205   6.954  33.157  1.00  0.00    -0.001 A 
HETATM   14  C11 UNK     1      19.375   7.335  34.488  1.00  0.00     0.017 A 
HETATM   15  C12 UNK     1      20.190   6.147  32.457  1.00  0.00     0.020 A 
HETATM   16  C13 UNK     1      18.796   6.212  30.438  1.00  0.00     0.288 A 
HETATM   17  C14 UNK     1      19.999   5.799  31.183  1.00  0.00     0.083 A 
ENDROOT
BRANCH   5  18
HETATM   18  O2  UNK     1      14.109   7.924  33.866  1.00  0.00    -0.392 OA
HETATM   19  H11 UNK     1      13.290   8.228  34.294  1.00  0.00     0.210 HD
ENDBRANCH   5  18
TORSDOF 1
ENDMDL
MODEL 8
REMARK VINA RESULT:      -7.3     23.744     25.216
REMARK  1 active torsions:
REMARK  status: ('A' for Active; 'I' for Inactive)
REMARK    1  A    between atoms: C2_6  and  O2_2 
ROOT
HETATM    1  O1  UNK     1      11.142   7.206   8.984  1.00  0.00    -0.338 OA
HETATM    2  O3  UNK     1      15.843   5.972   9.022  1.00  0.00    -0.274 OA
HETATM    3  O4  UNK     1      18.073   5.447   9.069  1.00  0.00    -0.260 OA
HETATM    4  C1  UNK     1      10.883   6.294   7.900  1.00  0.00     0.086 C 
HETATM    5  C2  UNK     1      11.742   5.019   8.004  1.00  0.00     0.157 C 
HETATM    6  C3  UNK     1      13.231   5.346   8.073  1.00  0.00     0.079 C 
HETATM    7  C4  UNK     1      13.488   6.517   8.982  1.00  0.00     0.013 A 
HETATM    8  C5  UNK     1      12.445   7.364   9.374  1.00  0.00     0.079 A 
HETATM    9  C6  UNK     1       9.387   5.954   8.001  1.00  0.00     0.049 C 
HETATM   10  C7  UNK     1      11.113   7.034   6.569  1.00  0.00     0.049 C 
HETATM   11  C8  UNK     1      14.781   6.809   9.439  1.00  0.00     0.098 A 
HETATM   12  C9  UNK     1      12.694   8.442  10.231  1.00  0.00     0.038 A 
HETATM   13  C10 UNK     1      15.044   7.886  10.284  1.00  0.00    -0.001 A 
HETATM   14  C11 UNK     1      13.987   8.703  10.684  1.00  0.00     0.017 A 
HETATM   15  C12 UNK     1      16.409   8.125  10.724  1.00  0.00     0.020 A 
HETATM   16  C13 UNK     1      17.156   6.179   9.429  1.00  0.00     0.288 A 
HETATM   17  C14 UNK     1      17.398   7.325  10.322  1.00  0.00     0.083 A 
ENDROOT
BRANCH   5  18
HETATM   18  O2  UNK     1      11.413   4.278   9.183  1.00  0.00    -0.392 OA
HETATM   19  H11 UNK     1      11.875   4.693   9.931  1.00  0.00     0.210 HD
ENDBRANCH   5  18
TORSDOF 1
ENDMDL
MODEL 9
REMARK VINA RESULT:      -7.3      9.668     11.169
REMARK  1 active torsions:
REMARK  status: ('A' for Active; 'I' for Inactive)
REMARK    1  A    between atoms: C2_6  and  O2_2 
ROOT
HETATM    1  O1  UNK     1      19.814  -8.777  36.568  1.00  0.00    -0.338 OA
HETATM    2  O3  UNK     1      24.601  -8.667  37.395  1.00  0.00    -0.274 OA
HETATM    3  O4  UNK     1      26.862  -8.678  37.766  1.00  0.00    -0.260 OA
HETATM    4  C1  UNK     1      19.601  -7.688  37.488  1.00  0.00     0.086 C 
HETATM    5  C2  UNK     1      20.759  -6.670  37.449  1.00  0.00     0.157 C 
HETATM    6  C3  UNK     1      22.104  -7.336  37.720  1.00  0.00     0.079 C 
HETATM    7  C4  UNK     1      22.217  -8.648  36.995  1.00  0.00     0.013 A 
HETATM    8  C5  UNK     1      21.083  -9.280  36.473  1.00  0.00     0.079 A 
HETATM    9  C6  UNK     1      18.282  -7.032  37.047  1.00  0.00     0.049 C 
HETATM   10  C7  UNK     1      19.396  -8.269  38.898  1.00  0.00     0.049 C 
HETATM   11  C8  UNK     1      23.456  -9.288  36.844  1.00  0.00     0.098 A 
HETATM   12  C9  UNK     1      21.202 -10.495  35.788  1.00  0.00     0.038 A 
HETATM   13  C10 UNK     1      23.587 -10.504  36.174  1.00  0.00    -0.001 A 
HETATM   14  C11 UNK     1      22.448 -11.105  35.639  1.00  0.00     0.017 A 
HETATM   15  C12 UNK     1      24.903 -11.107  36.051  1.00  0.00     0.020 A 
HETATM   16  C13 UNK     1      25.872  -9.223  37.290  1.00  0.00     0.288 A 
HETATM   17  C14 UNK     1      25.974 -10.507  36.575  1.00  0.00     0.083 A 
ENDROOT
BRANCH   5  18
HETATM   18  O2  UNK     1      20.844  -6.044  36.165  1.00  0.00    -0.392 OA
HETATM   19  H11 UNK     1      20.018  -6.234  35.689  1.00  0.00     0.210 HD
ENDBRANCH   5  18
TORSDOF 1
ENDMDL
MODEL 10
REMARK VINA RESULT:      -7.3     23.704     26.022
REMARK  1 active torsions:
REMARK  status: ('A' for Active; 'I' for Inactive)
REMARK    1  A    between atoms: C2_6  and  O2_2 
ROOT
HETATM    1  O1  UNK     1      14.500   6.423   7.943  1.00  0.00    -0.338 OA
HETATM    2  O3  UNK     1       9.963   5.601   9.479  1.00  0.00    -0.274 OA
HETATM    3  O4  UNK     1       7.801   5.238  10.146  1.00  0.00    -0.260 OA
HETATM    4  C1  UNK     1      14.982   6.465   9.300  1.00  0.00     0.086 C 
HETATM    5  C2  UNK     1      14.230   5.470  10.207  1.00  0.00     0.157 C 
HETATM    6  C3  UNK     1      12.723   5.705  10.174  1.00  0.00     0.079 C 
HETATM    7  C4  UNK     1      12.246   5.972   8.774  1.00  0.00     0.013 A 
HETATM    8  C5  UNK     1      13.148   6.313   7.760  1.00  0.00     0.079 A 
HETATM    9  C6  UNK     1      16.475   6.106   9.216  1.00  0.00     0.049 C 
HETATM   10  C7  UNK     1      14.869   7.910   9.818  1.00  0.00     0.049 C 
HETATM   11  C8  UNK     1      10.882   5.916   8.450  1.00  0.00     0.098 A 
HETATM   12  C9  UNK     1      12.694   6.546   6.457  1.00  0.00     0.038 A 
HETATM   13  C10 UNK     1      10.415   6.158   7.159  1.00  0.00    -0.001 A 
HETATM   14  C11 UNK     1      11.333   6.470   6.157  1.00  0.00     0.017 A 
HETATM   15  C12 UNK     1       8.988   6.076   6.895  1.00  0.00     0.020 A 
HETATM   16  C13 UNK     1       8.594   5.516   9.252  1.00  0.00     0.288 A 
HETATM   17  C14 UNK     1       8.135   5.776   7.876  1.00  0.00     0.083 A 
ENDROOT
BRANCH   5  18
HETATM   18  O2  UNK     1      14.461   4.122   9.785  1.00  0.00    -0.392 OA
HETATM   19  H11 UNK     1      15.398   3.918   9.948  1.00  0.00     0.210 HD
ENDBRANCH   5  18
TORSDOF 1
ENDMDL
