MODEL 1
REMARK VINA RESULT:      -8.7      0.000      0.000
REMARK  9 active torsions:
REMARK  status: ('A' for Active; 'I' for Inactive)
REMARK    1  A    between atoms: C13_17  and  O1_1 
REMARK    2  A    between atoms: C8_12  and  O1_1 
REMARK    3  A    between atoms: C15_19  and  O2_2 
REMARK    4  A    between atoms: C29_33  and  O4_4 
REMARK    5  A    between atoms: C1_5  and  C7_11 
REMARK    6  A    between atoms: C13_17  and  C14_18 
REMARK    7  A    between atoms: C17_21  and  C20_24 
REMARK    8  A    between atoms: C21_25  and  C23_27 
REMARK    9  A    between atoms: C23_27  and  C24_28 
ROOT
HETATM    1  C14 UNK     1      30.331  -7.974  34.873  1.00  0.00     0.000 A 
HETATM    2  C15 UNK     1      31.466  -8.677  34.471  1.00  0.00     0.076 A 
HETATM    3  C16 UNK     1      29.857  -6.915  34.098  1.00  0.00     0.023 A 
HETATM    4  C17 UNK     1      30.518  -6.560  32.922  1.00  0.00    -0.035 A 
HETATM    5  C18 UNK     1      32.128  -8.322  33.296  1.00  0.00     0.038 A 
HETATM    6  C19 UNK     1      31.654  -7.263  32.521  1.00  0.00     0.014 A 
ENDROOT
BRANCH   1   7
HETATM    7  C13 UNK     1      29.607  -8.342  36.134  1.00  0.00     0.217 C 
BRANCH   7   8
HETATM    8  O1  UNK     1      30.411  -7.978  37.255  1.00  0.00    -0.346 OA
BRANCH   8   9
HETATM    9  C8  UNK     1      30.153  -6.772  37.834  1.00  0.00     0.075 A 
HETATM   10  C10 UNK     1      29.017  -6.626  38.631  1.00  0.00     0.037 A 
HETATM   11  C12 UNK     1      28.738  -5.399  39.231  1.00  0.00     0.003 A 
HETATM   12  C11 UNK     1      29.596  -4.316  39.037  1.00  0.00     0.001 A 
HETATM   13  C9  UNK     1      30.732  -4.462  38.241  1.00  0.00     0.010 A 
HETATM   14  C7  UNK     1      31.011  -5.689  37.640  1.00  0.00    -0.021 A 
BRANCH  14  15
HETATM   15  C1  UNK     1      32.252  -5.828  36.776  1.00  0.00     0.021 C 
HETATM   16  C2  UNK     1      33.538  -5.831  37.621  1.00  0.00     0.009 C 
HETATM   17  C5  UNK     1      34.781  -5.981  36.746  1.00  0.00     0.001 C 
HETATM   18  C6  UNK     1      34.834  -4.914  35.656  1.00  0.00     0.000 C 
HETATM   19  C4  UNK     1      33.561  -4.902  34.815  1.00  0.00     0.001 C 
HETATM   20  C3  UNK     1      32.314  -4.747  35.684  1.00  0.00     0.009 C 
ENDBRANCH  14  15
ENDBRANCH   8   9
ENDBRANCH   7   8
ENDBRANCH   1   7
BRANCH   2  21
HETATM   21  O2  UNK     1      31.944  -9.714  35.216  1.00  0.00    -0.355 OA
HETATM   22  C22 UNK     1      31.798 -11.024  34.672  1.00  0.00     0.210 C 
ENDBRANCH   2  21
BRANCH   4  23
HETATM   23  C20 UNK     1      30.024  -5.455  32.115  1.00  0.00     0.015 C 
HETATM   24  C21 UNK     1      29.018  -5.535  31.216  1.00  0.00     0.056 C 
BRANCH  24  25
HETATM   25  C23 UNK     1      28.316  -6.829  30.986  1.00  0.00     0.182 C 
HETATM   26  O3  UNK     1      27.292  -7.139  31.584  1.00  0.00    -0.288 OA
BRANCH  25  27
HETATM   27  C24 UNK     1      28.880  -7.746  29.967  1.00  0.00     0.014 A 
HETATM   28  C25 UNK     1      28.220  -8.933  29.654  1.00  0.00     0.018 A 
HETATM   29  C27 UNK     1      28.752  -9.796  28.696  1.00  0.00     0.037 A 
HETATM   30  C29 UNK     1      29.944  -9.471  28.050  1.00  0.00     0.065 A 
HETATM   31  C28 UNK     1      30.605  -8.282  28.362  1.00  0.00     0.037 A 
HETATM   32  C26 UNK     1      30.073  -7.420  29.321  1.00  0.00     0.018 A 
BRANCH  30  33
HETATM   33  O4  UNK     1      30.464 -10.312  27.115  1.00  0.00    -0.361 OA
HETATM   34  H30 UNK     1      31.090 -10.917  27.548  1.00  0.00     0.217 HD
ENDBRANCH  30  33
ENDBRANCH  25  27
ENDBRANCH  24  25
ENDBRANCH   4  23
TORSDOF 9
ENDMDL
MODEL 2
REMARK VINA RESULT:      -8.5      1.668      3.700
REMARK  9 active torsions:
REMARK  status: ('A' for Active; 'I' for Inactive)
REMARK    1  A    between atoms: C13_17  and  O1_1 
REMARK    2  A    between atoms: C8_12  and  O1_1 
REMARK    3  A    between atoms: C15_19  and  O2_2 
REMARK    4  A    between atoms: C29_33  and  O4_4 
REMARK    5  A    between atoms: C1_5  and  C7_11 
REMARK    6  A    between atoms: C13_17  and  C14_18 
REMARK    7  A    between atoms: C17_21  and  C20_24 
REMARK    8  A    between atoms: C21_25  and  C23_27 
REMARK    9  A    between atoms: C23_27  and  C24_28 
ROOT
HETATM    1  C14 UNK     1      30.668  -7.559  34.623  1.00  0.00     0.000 A 
HETATM    2  C15 UNK     1      30.832  -8.937  34.482  1.00  0.00     0.076 A 
HETATM    3  C16 UNK     1      29.645  -6.905  33.936  1.00  0.00     0.023 A 
HETATM    4  C17 UNK     1      28.787  -7.629  33.108  1.00  0.00    -0.035 A 
HETATM    5  C18 UNK     1      29.974  -9.661  33.654  1.00  0.00     0.038 A 
HETATM    6  C19 UNK     1      28.952  -9.007  32.967  1.00  0.00     0.014 A 
ENDROOT
BRANCH   1   7
HETATM    7  C13 UNK     1      31.581  -6.765  35.509  1.00  0.00     0.217 C 
BRANCH   7   8
HETATM    8  O1  UNK     1      31.265  -7.045  36.872  1.00  0.00    -0.346 OA
BRANCH   8   9
HETATM    9  C8  UNK     1      30.466  -6.150  37.517  1.00  0.00     0.075 A 
HETATM   10  C10 UNK     1      30.895  -4.830  37.658  1.00  0.00     0.037 A 
HETATM   11  C12 UNK     1      30.089  -3.901  38.316  1.00  0.00     0.003 A 
HETATM   12  C11 UNK     1      28.853  -4.291  38.832  1.00  0.00     0.001 A 
HETATM   13  C9  UNK     1      28.424  -5.610  38.691  1.00  0.00     0.010 A 
HETATM   14  C7  UNK     1      29.230  -6.540  38.034  1.00  0.00    -0.021 A 
BRANCH  14  15
HETATM   15  C1  UNK     1      28.747  -7.972  37.891  1.00  0.00     0.021 C 
HETATM   16  C2  UNK     1      27.805  -8.139  36.685  1.00  0.00     0.009 C 
HETATM   17  C5  UNK     1      27.331  -9.584  36.542  1.00  0.00     0.001 C 
HETATM   18  C6  UNK     1      26.685 -10.095  37.827  1.00  0.00     0.000 C 
HETATM   19  C4  UNK     1      27.612  -9.931  39.028  1.00  0.00     0.001 C 
HETATM   20  C3  UNK     1      28.086  -8.486  39.180  1.00  0.00     0.009 C 
ENDBRANCH  14  15
ENDBRANCH   8   9
ENDBRANCH   7   8
ENDBRANCH   1   7
BRANCH   2  21
HETATM   21  O2  UNK     1      31.825  -9.592  35.145  1.00  0.00    -0.355 OA
HETATM   22  C22 UNK     1      31.432 -10.473  36.196  1.00  0.00     0.210 C 
ENDBRANCH   2  21
BRANCH   4  23
HETATM   23  C20 UNK     1      27.721  -6.947  32.390  1.00  0.00     0.015 C 
HETATM   24  C21 UNK     1      27.865  -6.294  31.216  1.00  0.00     0.056 C 
BRANCH  24  25
HETATM   25  C23 UNK     1      29.196  -6.231  30.548  1.00  0.00     0.182 C 
HETATM   26  O3  UNK     1      29.978  -5.303  30.719  1.00  0.00    -0.288 OA
BRANCH  25  27
HETATM   27  C24 UNK     1      29.579  -7.364  29.671  1.00  0.00     0.014 A 
HETATM   28  C25 UNK     1      30.847  -7.402  29.092  1.00  0.00     0.018 A 
HETATM   29  C27 UNK     1      31.206  -8.467  28.266  1.00  0.00     0.037 A 
HETATM   30  C29 UNK     1      30.296  -9.496  28.020  1.00  0.00     0.065 A 
HETATM   31  C28 UNK     1      29.028  -9.459  28.599  1.00  0.00     0.037 A 
HETATM   32  C26 UNK     1      28.669  -8.393  29.425  1.00  0.00     0.018 A 
BRANCH  30  33
HETATM   33  O4  UNK     1      30.646 -10.535  27.215  1.00  0.00    -0.361 OA
HETATM   34  H30 UNK     1      31.533 -10.844  27.465  1.00  0.00     0.217 HD
ENDBRANCH  30  33
ENDBRANCH  25  27
ENDBRANCH  24  25
ENDBRANCH   4  23
TORSDOF 9
ENDMDL
MODEL 3
REMARK VINA RESULT:      -8.5      2.216      6.935
REMARK  9 active torsions:
REMARK  status: ('A' for Active; 'I' for Inactive)
REMARK    1  A    between atoms: C13_17  and  O1_1 
REMARK    2  A    between atoms: C8_12  and  O1_1 
REMARK    3  A    between atoms: C15_19  and  O2_2 
REMARK    4  A    between atoms: C29_33  and  O4_4 
REMARK    5  A    between atoms: C1_5  and  C7_11 
REMARK    6  A    between atoms: C13_17  and  C14_18 
REMARK    7  A    between atoms: C17_21  and  C20_24 
REMARK    8  A    between atoms: C21_25  and  C23_27 
REMARK    9  A    between atoms: C23_27  and  C24_28 
ROOT
HETATM    1  C14 UNK     1      32.411  -9.051  34.152  1.00  0.00     0.000 A 
HETATM    2  C15 UNK     1      31.227  -9.429  33.520  1.00  0.00     0.076 A 
HETATM    3  C16 UNK     1      32.526  -9.157  35.539  1.00  0.00     0.023 A 
HETATM    4  C17 UNK     1      31.456  -9.640  36.292  1.00  0.00    -0.035 A 
HETATM    5  C18 UNK     1      30.157  -9.912  34.273  1.00  0.00     0.038 A 
HETATM    6  C19 UNK     1      30.271 -10.017  35.659  1.00  0.00     0.014 A 
ENDROOT
BRANCH   1   7
HETATM    7  C13 UNK     1      33.572  -8.530  33.357  1.00  0.00     0.217 C 
BRANCH   7   8
HETATM    8  O1  UNK     1      33.237  -7.247  32.832  1.00  0.00    -0.346 OA
BRANCH   8   9
HETATM    9  C8  UNK     1      33.241  -6.201  33.705  1.00  0.00     0.075 A 
HETATM   10  C10 UNK     1      34.456  -5.740  34.212  1.00  0.00     0.037 A 
HETATM   11  C12 UNK     1      34.478  -4.671  35.106  1.00  0.00     0.003 A 
HETATM   12  C11 UNK     1      33.285  -4.060  35.494  1.00  0.00     0.001 A 
HETATM   13  C9  UNK     1      32.071  -4.521  34.987  1.00  0.00     0.010 A 
HETATM   14  C7  UNK     1      32.048  -5.591  34.092  1.00  0.00    -0.021 A 
BRANCH  14  15
HETATM   15  C1  UNK     1      30.716  -6.079  33.552  1.00  0.00     0.021 C 
HETATM   16  C2  UNK     1      30.194  -5.177  32.419  1.00  0.00     0.009 C 
HETATM   17  C5  UNK     1      28.859  -5.681  31.875  1.00  0.00     0.001 C 
HETATM   18  C6  UNK     1      27.822  -5.838  32.983  1.00  0.00     0.000 C 
HETATM   19  C4  UNK     1      28.332  -6.729  34.111  1.00  0.00     0.001 C 
HETATM   20  C3  UNK     1      29.665  -6.228  34.665  1.00  0.00     0.009 C 
ENDBRANCH  14  15
ENDBRANCH   8   9
ENDBRANCH   7   8
ENDBRANCH   1   7
BRANCH   2  21
HETATM   21  O2  UNK     1      31.098  -9.332  32.167  1.00  0.00    -0.355 OA
HETATM   22  C22 UNK     1      29.772  -9.329  31.641  1.00  0.00     0.210 C 
ENDBRANCH   2  21
BRANCH   4  23
HETATM   23  C20 UNK     1      31.575  -9.749  37.738  1.00  0.00     0.015 C 
HETATM   24  C21 UNK     1      31.687  -8.707  38.592  1.00  0.00     0.056 C 
BRANCH  24  25
HETATM   25  C23 UNK     1      31.694  -7.309  38.076  1.00  0.00     0.182 C 
HETATM   26  O3  UNK     1      32.667  -6.817  37.516  1.00  0.00    -0.288 OA
BRANCH  25  27
HETATM   27  C24 UNK     1      30.453  -6.512  38.233  1.00  0.00     0.014 A 
HETATM   28  C25 UNK     1      30.523  -5.123  38.325  1.00  0.00     0.018 A 
HETATM   29  C27 UNK     1      29.355  -4.374  38.473  1.00  0.00     0.037 A 
HETATM   30  C29 UNK     1      28.118  -5.015  38.529  1.00  0.00     0.065 A 
HETATM   31  C28 UNK     1      28.048  -6.405  38.436  1.00  0.00     0.037 A 
HETATM   32  C26 UNK     1      29.216  -7.154  38.288  1.00  0.00     0.018 A 
BRANCH  30  33
HETATM   33  O4  UNK     1      26.979  -4.285  38.673  1.00  0.00    -0.361 OA
HETATM   34  H30 UNK     1      26.268  -4.868  38.989  1.00  0.00     0.217 HD
ENDBRANCH  30  33
ENDBRANCH  25  27
ENDBRANCH  24  25
ENDBRANCH   4  23
TORSDOF 9
ENDMDL
MODEL 4
REMARK VINA RESULT:      -8.4      2.306      6.353
REMARK  9 active torsions:
REMARK  status: ('A' for Active; 'I' for Inactive)
REMARK    1  A    between atoms: C13_17  and  O1_1 
REMARK    2  A    between atoms: C8_12  and  O1_1 
REMARK    3  A    between atoms: C15_19  and  O2_2 
REMARK    4  A    between atoms: C29_33  and  O4_4 
REMARK    5  A    between atoms: C1_5  and  C7_11 
REMARK    6  A    between atoms: C13_17  and  C14_18 
REMARK    7  A    between atoms: C17_21  and  C20_24 
REMARK    8  A    between atoms: C21_25  and  C23_27 
REMARK    9  A    between atoms: C23_27  and  C24_28 
ROOT
HETATM    1  C14 UNK     1      32.371  -9.179  34.973  1.00  0.00     0.000 A 
HETATM    2  C15 UNK     1      32.373  -9.126  33.579  1.00  0.00     0.076 A 
HETATM    3  C16 UNK     1      33.257  -8.386  35.702  1.00  0.00     0.023 A 
HETATM    4  C17 UNK     1      34.146  -7.541  35.038  1.00  0.00    -0.035 A 
HETATM    5  C18 UNK     1      33.261  -8.281  32.915  1.00  0.00     0.038 A 
HETATM    6  C19 UNK     1      34.148  -7.488  33.644  1.00  0.00     0.014 A 
ENDROOT
BRANCH   1   7
HETATM    7  C13 UNK     1      31.422 -10.082  35.705  1.00  0.00     0.217 C 
BRANCH   7   8
HETATM    8  O1  UNK     1      30.083  -9.686  35.411  1.00  0.00    -0.346 OA
BRANCH   8   9
HETATM    9  C8  UNK     1      29.492  -8.816  36.278  1.00  0.00     0.075 A 
HETATM   10  C10 UNK     1      29.307  -9.198  37.607  1.00  0.00     0.037 A 
HETATM   11  C12 UNK     1      28.704  -8.320  38.507  1.00  0.00     0.003 A 
HETATM   12  C11 UNK     1      28.287  -7.060  38.080  1.00  0.00     0.001 A 
HETATM   13  C9  UNK     1      28.473  -6.678  36.751  1.00  0.00     0.010 A 
HETATM   14  C7  UNK     1      29.075  -7.555  35.850  1.00  0.00    -0.021 A 
BRANCH  14  15
HETATM   15  C1  UNK     1      29.268  -7.122  34.408  1.00  0.00     0.021 C 
HETATM   16  C2  UNK     1      30.411  -6.102  34.266  1.00  0.00     0.009 C 
HETATM   17  C5  UNK     1      30.605  -5.679  32.812  1.00  0.00     0.001 C 
HETATM   18  C6  UNK     1      29.310  -5.152  32.200  1.00  0.00     0.000 C 
HETATM   19  C4  UNK     1      28.171  -6.157  32.339  1.00  0.00     0.001 C 
HETATM   20  C3  UNK     1      27.967  -6.581  33.793  1.00  0.00     0.009 C 
ENDBRANCH  14  15
ENDBRANCH   8   9
ENDBRANCH   7   8
ENDBRANCH   1   7
BRANCH   2  21
HETATM   21  O2  UNK     1      31.514  -9.894  32.851  1.00  0.00    -0.355 OA
HETATM   22  C22 UNK     1      30.870  -9.272  31.742  1.00  0.00     0.210 C 
ENDBRANCH   2  21
BRANCH   4  23
HETATM   23  C20 UNK     1      35.070  -6.715  35.798  1.00  0.00     0.015 C 
HETATM   24  C21 UNK     1      34.862  -5.424  36.141  1.00  0.00     0.056 C 
BRANCH  24  25
HETATM   25  C23 UNK     1      33.604  -4.733  35.741  1.00  0.00     0.182 C 
HETATM   26  O3  UNK     1      33.420  -4.301  34.609  1.00  0.00    -0.288 OA
BRANCH  25  27
HETATM   27  C24 UNK     1      32.538  -4.602  36.763  1.00  0.00     0.014 A 
HETATM   28  C25 UNK     1      32.479  -5.498  37.829  1.00  0.00     0.018 A 
HETATM   29  C27 UNK     1      31.475  -5.376  38.790  1.00  0.00     0.037 A 
HETATM   30  C29 UNK     1      30.529  -4.356  38.683  1.00  0.00     0.065 A 
HETATM   31  C28 UNK     1      30.587  -3.459  37.616  1.00  0.00     0.037 A 
HETATM   32  C26 UNK     1      31.592  -3.582  36.656  1.00  0.00     0.018 A 
BRANCH  30  33
HETATM   33  O4  UNK     1      29.549  -4.236  39.619  1.00  0.00    -0.361 OA
HETATM   34  H30 UNK     1      29.952  -4.264  40.504  1.00  0.00     0.217 HD
ENDBRANCH  30  33
ENDBRANCH  25  27
ENDBRANCH  24  25
ENDBRANCH   4  23
TORSDOF 9
ENDMDL
MODEL 5
REMARK VINA RESULT:      -8.3     15.437     18.387
REMARK  9 active torsions:
REMARK  status: ('A' for Active; 'I' for Inactive)
REMARK    1  A    between atoms: C13_17  and  O1_1 
REMARK    2  A    between atoms: C8_12  and  O1_1 
REMARK    3  A    between atoms: C15_19  and  O2_2 
REMARK    4  A    between atoms: C29_33  and  O4_4 
REMARK    5  A    between atoms: C1_5  and  C7_11 
REMARK    6  A    between atoms: C13_17  and  C14_18 
REMARK    7  A    between atoms: C17_21  and  C20_24 
REMARK    8  A    between atoms: C21_25  and  C23_27 
REMARK    9  A    between atoms: C23_27  and  C24_28 
ROOT
HETATM    1  C14 UNK     1      18.533   4.477  32.387  1.00  0.00     0.000 A 
HETATM    2  C15 UNK     1      19.384   4.890  31.363  1.00  0.00     0.076 A 
HETATM    3  C16 UNK     1      18.494   5.184  33.590  1.00  0.00     0.023 A 
HETATM    4  C17 UNK     1      19.308   6.303  33.767  1.00  0.00    -0.035 A 
HETATM    5  C18 UNK     1      20.198   6.009  31.541  1.00  0.00     0.038 A 
HETATM    6  C19 UNK     1      20.160   6.715  32.743  1.00  0.00     0.014 A 
ENDROOT
BRANCH   1   7
HETATM    7  C13 UNK     1      17.650   3.276  32.213  1.00  0.00     0.217 C 
BRANCH   7   8
HETATM    8  O1  UNK     1      17.952   2.326  33.234  1.00  0.00    -0.346 OA
BRANCH   8   9
HETATM    9  C8  UNK     1      18.446   1.122  32.831  1.00  0.00     0.075 A 
HETATM   10  C10 UNK     1      19.008   1.006  31.559  1.00  0.00     0.037 A 
HETATM   11  C12 UNK     1      19.519  -0.219  31.131  1.00  0.00     0.003 A 
HETATM   12  C11 UNK     1      19.468  -1.329  31.975  1.00  0.00     0.001 A 
HETATM   13  C9  UNK     1      18.907  -1.213  33.246  1.00  0.00     0.010 A 
HETATM   14  C7  UNK     1      18.396   0.012  33.675  1.00  0.00    -0.021 A 
BRANCH  14  15
HETATM   15  C1  UNK     1      17.787   0.118  35.061  1.00  0.00     0.021 C 
HETATM   16  C2  UNK     1      16.277   0.405  35.001  1.00  0.00     0.009 C 
HETATM   17  C5  UNK     1      15.670   0.501  36.400  1.00  0.00     0.001 C 
HETATM   18  C6  UNK     1      16.398   1.530  37.261  1.00  0.00     0.000 C 
HETATM   19  C4  UNK     1      17.898   1.254  37.323  1.00  0.00     0.001 C 
HETATM   20  C3  UNK     1      18.512   1.162  35.927  1.00  0.00     0.009 C 
ENDBRANCH  14  15
ENDBRANCH   8   9
ENDBRANCH   7   8
ENDBRANCH   1   7
BRANCH   2  21
HETATM   21  O2  UNK     1      19.435   4.212  30.182  1.00  0.00    -0.355 OA
HETATM   22  C22 UNK     1      18.677   4.742  29.097  1.00  0.00     0.210 C 
ENDBRANCH   2  21
BRANCH   4  23
HETATM   23  C20 UNK     1      19.269   7.039  35.021  1.00  0.00     0.015 C 
HETATM   24  C21 UNK     1      18.718   8.261  35.191  1.00  0.00     0.056 C 
BRANCH  24  25
HETATM   25  C23 UNK     1      18.083   8.967  34.042  1.00  0.00     0.182 C 
HETATM   26  O3  UNK     1      18.575   9.964  33.526  1.00  0.00    -0.288 OA
BRANCH  25  27
HETATM   27  C24 UNK     1      16.823   8.403  33.502  1.00  0.00     0.014 A 
HETATM   28  C25 UNK     1      15.752   8.141  34.356  1.00  0.00     0.018 A 
HETATM   29  C27 UNK     1      14.567   7.610  33.848  1.00  0.00     0.037 A 
HETATM   30  C29 UNK     1      14.452   7.340  32.484  1.00  0.00     0.065 A 
HETATM   31  C28 UNK     1      15.523   7.602  31.629  1.00  0.00     0.037 A 
HETATM   32  C26 UNK     1      16.708   8.133  32.138  1.00  0.00     0.018 A 
BRANCH  30  33
HETATM   33  O4  UNK     1      13.297   6.822  31.988  1.00  0.00    -0.361 OA
HETATM   34  H30 UNK     1      13.158   5.937  32.368  1.00  0.00     0.217 HD
ENDBRANCH  30  33
ENDBRANCH  25  27
ENDBRANCH  24  25
ENDBRANCH   4  23
TORSDOF 9
ENDMDL
MODEL 6
REMARK VINA RESULT:      -8.3     16.199     19.265
REMARK  9 active torsions:
REMARK  status: ('A' for Active; 'I' for Inactive)
REMARK    1  A    between atoms: C13_17  and  O1_1 
REMARK    2  A    between atoms: C8_12  and  O1_1 
REMARK    3  A    between atoms: C15_19  and  O2_2 
REMARK    4  A    between atoms: C29_33  and  O4_4 
REMARK    5  A    between atoms: C1_5  and  C7_11 
REMARK    6  A    between atoms: C13_17  and  C14_18 
REMARK    7  A    between atoms: C17_21  and  C20_24 
REMARK    8  A    between atoms: C21_25  and  C23_27 
REMARK    9  A    between atoms: C23_27  and  C24_28 
ROOT
HETATM    1  C14 UNK     1      18.648   5.107  32.024  1.00  0.00     0.000 A 
HETATM    2  C15 UNK     1      19.836   5.837  32.005  1.00  0.00     0.076 A 
HETATM    3  C16 UNK     1      17.625   5.462  32.905  1.00  0.00     0.023 A 
HETATM    4  C17 UNK     1      17.792   6.545  33.768  1.00  0.00    -0.035 A 
HETATM    5  C18 UNK     1      20.003   6.921  32.868  1.00  0.00     0.038 A 
HETATM    6  C19 UNK     1      18.981   7.275  33.749  1.00  0.00     0.014 A 
ENDROOT
BRANCH   1   7
HETATM    7  C13 UNK     1      18.451   3.939  31.104  1.00  0.00     0.217 C 
BRANCH   7   8
HETATM    8  O1  UNK     1      17.835   2.875  31.828  1.00  0.00    -0.346 OA
BRANCH   8   9
HETATM    9  C8  UNK     1      18.434   1.654  31.762  1.00  0.00     0.075 A 
HETATM   10  C10 UNK     1      19.096   1.281  30.591  1.00  0.00     0.037 A 
HETATM   11  C12 UNK     1      19.715   0.035  30.506  1.00  0.00     0.003 A 
HETATM   12  C11 UNK     1      19.674  -0.840  31.592  1.00  0.00     0.001 A 
HETATM   13  C9  UNK     1      19.013  -0.468  32.762  1.00  0.00     0.010 A 
HETATM   14  C7  UNK     1      18.393   0.779  32.847  1.00  0.00    -0.021 A 
BRANCH  14  15
HETATM   15  C1  UNK     1      17.677   1.166  34.129  1.00  0.00     0.021 C 
HETATM   16  C2  UNK     1      18.663   1.629  35.216  1.00  0.00     0.009 C 
HETATM   17  C5  UNK     1      17.934   2.026  36.498  1.00  0.00     0.001 C 
HETATM   18  C6  UNK     1      17.034   0.903  37.006  1.00  0.00     0.000 C 
HETATM   19  C4  UNK     1      16.055   0.435  35.933  1.00  0.00     0.001 C 
HETATM   20  C3  UNK     1      16.778   0.032  34.649  1.00  0.00     0.009 C 
ENDBRANCH  14  15
ENDBRANCH   8   9
ENDBRANCH   7   8
ENDBRANCH   1   7
BRANCH   2  21
HETATM   21  O2  UNK     1      20.844   5.505  31.152  1.00  0.00    -0.355 OA
HETATM   22  C22 UNK     1      22.173   5.812  31.568  1.00  0.00     0.210 C 
ENDBRANCH   2  21
BRANCH   4  23
HETATM   23  C20 UNK     1      16.727   6.914  34.687  1.00  0.00     0.015 C 
HETATM   24  C21 UNK     1      15.997   8.049  34.619  1.00  0.00     0.056 C 
BRANCH  24  25
HETATM   25  C23 UNK     1      16.252   9.045  33.540  1.00  0.00     0.182 C 
HETATM   26  O3  UNK     1      15.914   8.857  32.376  1.00  0.00    -0.288 OA
BRANCH  25  27
HETATM   27  C24 UNK     1      16.913  10.316  33.919  1.00  0.00     0.014 A 
HETATM   28  C25 UNK     1      16.147  11.405  34.335  1.00  0.00     0.018 A 
HETATM   29  C27 UNK     1      16.770  12.601  34.691  1.00  0.00     0.037 A 
HETATM   30  C29 UNK     1      18.159  12.708  34.632  1.00  0.00     0.065 A 
HETATM   31  C28 UNK     1      18.926  11.619  34.217  1.00  0.00     0.037 A 
HETATM   32  C26 UNK     1      18.303  10.423  33.861  1.00  0.00     0.018 A 
BRANCH  30  33
HETATM   33  O4  UNK     1      18.767  13.875  34.979  1.00  0.00    -0.361 OA
HETATM   34  H30 UNK     1      18.086  14.551  35.139  1.00  0.00     0.217 HD
ENDBRANCH  30  33
ENDBRANCH  25  27
ENDBRANCH  24  25
ENDBRANCH   4  23
TORSDOF 9
ENDMDL
MODEL 7
REMARK VINA RESULT:      -8.3      1.726      3.038
REMARK  9 active torsions:
REMARK  status: ('A' for Active; 'I' for Inactive)
REMARK    1  A    between atoms: C13_17  and  O1_1 
REMARK    2  A    between atoms: C8_12  and  O1_1 
REMARK    3  A    between atoms: C15_19  and  O2_2 
REMARK    4  A    between atoms: C29_33  and  O4_4 
REMARK    5  A    between atoms: C1_5  and  C7_11 
REMARK    6  A    between atoms: C13_17  and  C14_18 
REMARK    7  A    between atoms: C17_21  and  C20_24 
REMARK    8  A    between atoms: C21_25  and  C23_27 
REMARK    9  A    between atoms: C23_27  and  C24_28 
ROOT
HETATM    1  C14 UNK     1      29.097  -8.943  34.373  1.00  0.00     0.000 A 
HETATM    2  C15 UNK     1      30.338  -9.564  34.237  1.00  0.00     0.076 A 
HETATM    3  C16 UNK     1      28.853  -7.725  33.736  1.00  0.00     0.023 A 
HETATM    4  C17 UNK     1      29.850  -7.130  32.964  1.00  0.00    -0.035 A 
HETATM    5  C18 UNK     1      31.335  -8.969  33.465  1.00  0.00     0.038 A 
HETATM    6  C19 UNK     1      31.092  -7.752  32.829  1.00  0.00     0.014 A 
ENDROOT
BRANCH   1   7
HETATM    7  C13 UNK     1      28.012  -9.569  35.200  1.00  0.00     0.217 C 
BRANCH   7   8
HETATM    8  O1  UNK     1      27.465  -8.582  36.072  1.00  0.00    -0.346 OA
BRANCH   8   9
HETATM    9  C8  UNK     1      27.490  -8.855  37.407  1.00  0.00     0.075 A 
HETATM   10  C10 UNK     1      26.962 -10.061  37.867  1.00  0.00     0.037 A 
HETATM   11  C12 UNK     1      26.980 -10.356  39.230  1.00  0.00     0.003 A 
HETATM   12  C11 UNK     1      27.528  -9.445  40.134  1.00  0.00     0.001 A 
HETATM   13  C9  UNK     1      28.056  -8.240  39.674  1.00  0.00     0.010 A 
HETATM   14  C7  UNK     1      28.038  -7.944  38.311  1.00  0.00    -0.021 A 
BRANCH  14  15
HETATM   15  C1  UNK     1      28.616  -6.626  37.829  1.00  0.00     0.021 C 
HETATM   16  C2  UNK     1      29.983  -6.817  37.149  1.00  0.00     0.009 C 
HETATM   17  C5  UNK     1      30.554  -5.488  36.658  1.00  0.00     0.001 C 
HETATM   18  C6  UNK     1      30.632  -4.459  37.783  1.00  0.00     0.000 C 
HETATM   19  C4  UNK     1      29.280  -4.265  38.464  1.00  0.00     0.001 C 
HETATM   20  C3  UNK     1      28.706  -5.590  38.962  1.00  0.00     0.009 C 
ENDBRANCH  14  15
ENDBRANCH   8   9
ENDBRANCH   7   8
ENDBRANCH   1   7
BRANCH   2  21
HETATM   21  O2  UNK     1      30.593 -10.753  34.852  1.00  0.00    -0.355 OA
HETATM   22  C22 UNK     1      31.436 -11.673  34.161  1.00  0.00     0.210 C 
ENDBRANCH   2  21
BRANCH   4  23
HETATM   23  C20 UNK     1      29.597  -5.861  32.301  1.00  0.00     0.015 C 
HETATM   24  C21 UNK     1      28.740  -5.676  31.272  1.00  0.00     0.056 C 
BRANCH  24  25
HETATM   25  C23 UNK     1      27.961  -6.823  30.726  1.00  0.00     0.182 C 
HETATM   26  O3  UNK     1      26.778  -7.002  30.989  1.00  0.00    -0.288 OA
BRANCH  25  27
HETATM   27  C24 UNK     1      28.660  -7.753  29.807  1.00  0.00     0.014 A 
HETATM   28  C25 UNK     1      29.896  -7.400  29.264  1.00  0.00     0.018 A 
HETATM   29  C27 UNK     1      30.552  -8.275  28.398  1.00  0.00     0.037 A 
HETATM   30  C29 UNK     1      29.974  -9.502  28.076  1.00  0.00     0.065 A 
HETATM   31  C28 UNK     1      28.738  -9.856  28.619  1.00  0.00     0.037 A 
HETATM   32  C26 UNK     1      28.082  -8.980  29.484  1.00  0.00     0.018 A 
BRANCH  30  33
HETATM   33  O4  UNK     1      30.614 -10.356  27.231  1.00  0.00    -0.361 OA
HETATM   34  H30 UNK     1      29.994 -11.053  26.958  1.00  0.00     0.217 HD
ENDBRANCH  30  33
ENDBRANCH  25  27
ENDBRANCH  24  25
ENDBRANCH   4  23
TORSDOF 9
ENDMDL
MODEL 8
REMARK VINA RESULT:      -8.2      2.183      7.671
REMARK  9 active torsions:
REMARK  status: ('A' for Active; 'I' for Inactive)
REMARK    1  A    between atoms: C13_17  and  O1_1 
REMARK    2  A    between atoms: C8_12  and  O1_1 
REMARK    3  A    between atoms: C15_19  and  O2_2 
REMARK    4  A    between atoms: C29_33  and  O4_4 
REMARK    5  A    between atoms: C1_5  and  C7_11 
REMARK    6  A    between atoms: C13_17  and  C14_18 
REMARK    7  A    between atoms: C17_21  and  C20_24 
REMARK    8  A    between atoms: C21_25  and  C23_27 
REMARK    9  A    between atoms: C23_27  and  C24_28 
ROOT
HETATM    1  C14 UNK     1      31.637  -7.682  33.429  1.00  0.00     0.000 A 
HETATM    2  C15 UNK     1      32.742  -8.525  33.311  1.00  0.00     0.076 A 
HETATM    3  C16 UNK     1      30.733  -7.859  34.476  1.00  0.00     0.023 A 
HETATM    4  C17 UNK     1      30.932  -8.880  35.405  1.00  0.00    -0.035 A 
HETATM    5  C18 UNK     1      32.941  -9.547  34.240  1.00  0.00     0.038 A 
HETATM    6  C19 UNK     1      32.036  -9.724  35.286  1.00  0.00     0.014 A 
ENDROOT
BRANCH   1   7
HETATM    7  C13 UNK     1      31.407  -6.578  32.439  1.00  0.00     0.217 C 
BRANCH   7   8
HETATM    8  O1  UNK     1      31.063  -7.149  31.178  1.00  0.00    -0.346 OA
BRANCH   8   9
HETATM    9  C8  UNK     1      29.736  -7.298  30.908  1.00  0.00     0.075 A 
HETATM   10  C10 UNK     1      28.953  -6.164  30.687  1.00  0.00     0.037 A 
HETATM   11  C12 UNK     1      27.593  -6.299  30.410  1.00  0.00     0.003 A 
HETATM   12  C11 UNK     1      27.014  -7.568  30.353  1.00  0.00     0.001 A 
HETATM   13  C9  UNK     1      27.797  -8.700  30.574  1.00  0.00     0.010 A 
HETATM   14  C7  UNK     1      29.157  -8.566  30.852  1.00  0.00    -0.021 A 
BRANCH  14  15
HETATM   15  C1  UNK     1      29.993  -9.811  31.091  1.00  0.00     0.021 C 
HETATM   16  C2  UNK     1      29.998 -10.739  29.863  1.00  0.00     0.009 C 
HETATM   17  C5  UNK     1      30.849 -11.984  30.108  1.00  0.00     0.001 C 
HETATM   18  C6  UNK     1      30.409 -12.728  31.366  1.00  0.00     0.000 C 
HETATM   19  C4  UNK     1      30.399 -11.814  32.588  1.00  0.00     0.001 C 
HETATM   20  C3  UNK     1      29.546 -10.569  32.352  1.00  0.00     0.009 C 
ENDBRANCH  14  15
ENDBRANCH   8   9
ENDBRANCH   7   8
ENDBRANCH   1   7
BRANCH   2  21
HETATM   21  O2  UNK     1      33.635  -8.367  32.295  1.00  0.00    -0.355 OA
HETATM   22  C22 UNK     1      33.757  -9.441  31.365  1.00  0.00     0.210 C 
ENDBRANCH   2  21
BRANCH   4  23
HETATM   23  C20 UNK     1      29.988  -9.066  36.495  1.00  0.00     0.015 C 
HETATM   24  C21 UNK     1      30.126  -8.559  37.741  1.00  0.00     0.056 C 
BRANCH  24  25
HETATM   25  C23 UNK     1      31.316  -7.733  38.089  1.00  0.00     0.182 C 
HETATM   26  O3  UNK     1      32.298  -8.197  38.658  1.00  0.00    -0.288 OA
BRANCH  25  27
HETATM   27  C24 UNK     1      31.300  -6.304  37.695  1.00  0.00     0.014 A 
HETATM   28  C25 UNK     1      32.356  -5.771  36.957  1.00  0.00     0.018 A 
HETATM   29  C27 UNK     1      32.342  -4.426  36.588  1.00  0.00     0.037 A 
HETATM   30  C29 UNK     1      31.269  -3.614  36.956  1.00  0.00     0.065 A 
HETATM   31  C28 UNK     1      30.212  -4.146  37.694  1.00  0.00     0.037 A 
HETATM   32  C26 UNK     1      30.228  -5.491  38.064  1.00  0.00     0.018 A 
BRANCH  30  33
HETATM   33  O4  UNK     1      31.254  -2.302  36.596  1.00  0.00    -0.361 OA
HETATM   34  H30 UNK     1      30.599  -2.176  35.889  1.00  0.00     0.217 HD
ENDBRANCH  30  33
ENDBRANCH  25  27
ENDBRANCH  24  25
ENDBRANCH   4  23
TORSDOF 9
ENDMDL
MODEL 9
REMARK VINA RESULT:      -8.2      1.279      3.566
REMARK  9 active torsions:
REMARK  status: ('A' for Active; 'I' for Inactive)
REMARK    1  A    between atoms: C13_17  and  O1_1 
REMARK    2  A    between atoms: C8_12  and  O1_1 
REMARK    3  A    between atoms: C15_19  and  O2_2 
REMARK    4  A    between atoms: C29_33  and  O4_4 
REMARK    5  A    between atoms: C1_5  and  C7_11 
REMARK    6  A    between atoms: C13_17  and  C14_18 
REMARK    7  A    between atoms: C17_21  and  C20_24 
REMARK    8  A    between atoms: C21_25  and  C23_27 
REMARK    9  A    between atoms: C23_27  and  C24_28 
ROOT
HETATM    1  C14 UNK     1      30.540  -8.393  33.985  1.00  0.00     0.000 A 
HETATM    2  C15 UNK     1      29.559  -8.505  34.971  1.00  0.00     0.076 A 
HETATM    3  C16 UNK     1      30.440  -7.399  33.011  1.00  0.00     0.023 A 
HETATM    4  C17 UNK     1      29.359  -6.517  33.022  1.00  0.00    -0.035 A 
HETATM    5  C18 UNK     1      28.478  -7.623  34.982  1.00  0.00     0.038 A 
HETATM    6  C19 UNK     1      28.378  -6.630  34.007  1.00  0.00     0.014 A 
ENDROOT
BRANCH   1   7
HETATM    7  C13 UNK     1      31.709  -9.333  33.959  1.00  0.00     0.217 C 
BRANCH   7   8
HETATM    8  O1  UNK     1      32.668  -8.909  34.927  1.00  0.00    -0.346 OA
BRANCH   8   9
HETATM    9  C8  UNK     1      33.485  -7.877  34.576  1.00  0.00     0.075 A 
HETATM   10  C10 UNK     1      34.464  -8.081  33.603  1.00  0.00     0.037 A 
HETATM   11  C12 UNK     1      35.309  -7.036  33.233  1.00  0.00     0.003 A 
HETATM   12  C11 UNK     1      35.175  -5.784  33.835  1.00  0.00     0.001 A 
HETATM   13  C9  UNK     1      34.197  -5.580  34.807  1.00  0.00     0.010 A 
HETATM   14  C7  UNK     1      33.352  -6.625  35.178  1.00  0.00    -0.021 A 
BRANCH  14  15
HETATM   15  C1  UNK     1      32.294  -6.384  36.239  1.00  0.00     0.021 C 
HETATM   16  C2  UNK     1      31.377  -5.204  35.873  1.00  0.00     0.009 C 
HETATM   17  C5  UNK     1      30.309  -4.974  36.941  1.00  0.00     0.001 C 
HETATM   18  C6  UNK     1      30.926  -4.790  38.325  1.00  0.00     0.000 C 
HETATM   19  C4  UNK     1      31.839  -5.955  38.695  1.00  0.00     0.001 C 
HETATM   20  C3  UNK     1      32.913  -6.188  37.633  1.00  0.00     0.009 C 
ENDBRANCH  14  15
ENDBRANCH   8   9
ENDBRANCH   7   8
ENDBRANCH   1   7
BRANCH   2  21
HETATM   21  O2  UNK     1      29.640  -9.469  35.929  1.00  0.00    -0.355 OA
HETATM   22  C22 UNK     1      29.900  -9.037  37.263  1.00  0.00     0.210 C 
ENDBRANCH   2  21
BRANCH   4  23
HETATM   23  C20 UNK     1      29.255  -5.482  32.007  1.00  0.00     0.015 C 
HETATM   24  C21 UNK     1      28.605  -5.608  30.828  1.00  0.00     0.056 C 
BRANCH  24  25
HETATM   25  C23 UNK     1      27.917  -6.884  30.481  1.00  0.00     0.182 C 
HETATM   26  O3  UNK     1      26.777  -7.141  30.851  1.00  0.00    -0.288 OA
BRANCH  25  27
HETATM   27  C24 UNK     1      28.652  -7.851  29.630  1.00  0.00     0.014 A 
HETATM   28  C25 UNK     1      28.063  -9.068  29.288  1.00  0.00     0.018 A 
HETATM   29  C27 UNK     1      28.754  -9.977  28.488  1.00  0.00     0.037 A 
HETATM   30  C29 UNK     1      30.035  -9.669  28.029  1.00  0.00     0.065 A 
HETATM   31  C28 UNK     1      30.624  -8.451  28.370  1.00  0.00     0.037 A 
HETATM   32  C26 UNK     1      29.932  -7.542  29.171  1.00  0.00     0.018 A 
BRANCH  30  33
HETATM   33  O4  UNK     1      30.710 -10.556  27.248  1.00  0.00    -0.361 OA
HETATM   34  H30 UNK     1      31.661 -10.485  27.440  1.00  0.00     0.217 HD
ENDBRANCH  30  33
ENDBRANCH  25  27
ENDBRANCH  24  25
ENDBRANCH   4  23
TORSDOF 9
ENDMDL
MODEL 10
REMARK VINA RESULT:      -8.2     15.120     18.018
REMARK  9 active torsions:
REMARK  status: ('A' for Active; 'I' for Inactive)
REMARK    1  A    between atoms: C13_17  and  O1_1 
REMARK    2  A    between atoms: C8_12  and  O1_1 
REMARK    3  A    between atoms: C15_19  and  O2_2 
REMARK    4  A    between atoms: C29_33  and  O4_4 
REMARK    5  A    between atoms: C1_5  and  C7_11 
REMARK    6  A    between atoms: C13_17  and  C14_18 
REMARK    7  A    between atoms: C17_21  and  C20_24 
REMARK    8  A    between atoms: C21_25  and  C23_27 
REMARK    9  A    between atoms: C23_27  and  C24_28 
ROOT
HETATM    1  C14 UNK     1      18.466   4.592  32.488  1.00  0.00     0.000 A 
HETATM    2  C15 UNK     1      19.291   4.951  31.423  1.00  0.00     0.076 A 
HETATM    3  C16 UNK     1      18.474   5.347  33.662  1.00  0.00     0.023 A 
HETATM    4  C17 UNK     1      19.307   6.461  33.769  1.00  0.00    -0.035 A 
HETATM    5  C18 UNK     1      20.125   6.065  31.530  1.00  0.00     0.038 A 
HETATM    6  C19 UNK     1      20.133   6.819  32.703  1.00  0.00     0.014 A 
ENDROOT
BRANCH   1   7
HETATM    7  C13 UNK     1      17.563   3.398  32.390  1.00  0.00     0.217 C 
BRANCH   7   8
HETATM    8  O1  UNK     1      18.356   2.232  32.178  1.00  0.00    -0.346 OA
BRANCH   8   9
HETATM    9  C8  UNK     1      18.392   1.317  33.187  1.00  0.00     0.075 A 
HETATM   10  C10 UNK     1      18.079   1.720  34.485  1.00  0.00     0.037 A 
HETATM   11  C12 UNK     1      18.111   0.797  35.530  1.00  0.00     0.003 A 
HETATM   12  C11 UNK     1      18.456  -0.531  35.277  1.00  0.00     0.001 A 
HETATM   13  C9  UNK     1      18.769  -0.934  33.979  1.00  0.00     0.010 A 
HETATM   14  C7  UNK     1      18.738  -0.011  32.934  1.00  0.00    -0.021 A 
BRANCH  14  15
HETATM   15  C1  UNK     1      19.083  -0.468  31.529  1.00  0.00     0.021 C 
HETATM   16  C2  UNK     1      19.909  -1.767  31.538  1.00  0.00     0.009 C 
HETATM   17  C5  UNK     1      20.243  -2.226  30.120  1.00  0.00     0.001 C 
HETATM   18  C6  UNK     1      20.942  -1.128  29.322  1.00  0.00     0.000 C 
HETATM   19  C4  UNK     1      20.131   0.164  29.311  1.00  0.00     0.001 C 
HETATM   20  C3  UNK     1      19.797   0.632  30.726  1.00  0.00     0.009 C 
ENDBRANCH  14  15
ENDBRANCH   8   9
ENDBRANCH   7   8
ENDBRANCH   1   7
BRANCH   2  21
HETATM   21  O2  UNK     1      19.296   4.226  30.270  1.00  0.00    -0.355 OA
HETATM   22  C22 UNK     1      18.649   4.803  29.138  1.00  0.00     0.210 C 
ENDBRANCH   2  21
BRANCH   4  23
HETATM   23  C20 UNK     1      19.317   7.247  34.993  1.00  0.00     0.015 C 
HETATM   24  C21 UNK     1      18.772   8.475  35.134  1.00  0.00     0.056 C 
BRANCH  24  25
HETATM   25  C23 UNK     1      18.091   9.133  33.984  1.00  0.00     0.182 C 
HETATM   26  O3  UNK     1      18.534  10.140  33.442  1.00  0.00    -0.288 OA
BRANCH  25  27
HETATM   27  C24 UNK     1      16.846   8.509  33.474  1.00  0.00     0.014 A 
HETATM   28  C25 UNK     1      15.814   8.188  34.355  1.00  0.00     0.018 A 
HETATM   29  C27 UNK     1      14.644   7.600  33.875  1.00  0.00     0.037 A 
HETATM   30  C29 UNK     1      14.506   7.334  32.513  1.00  0.00     0.065 A 
HETATM   31  C28 UNK     1      15.537   7.656  31.631  1.00  0.00     0.037 A 
HETATM   32  C26 UNK     1      16.707   8.243  32.112  1.00  0.00     0.018 A 
BRANCH  30  33
HETATM   33  O4  UNK     1      13.365   6.760  32.044  1.00  0.00    -0.361 OA
HETATM   34  H30 UNK     1      12.626   7.381  32.166  1.00  0.00     0.217 HD
ENDBRANCH  30  33
ENDBRANCH  25  27
ENDBRANCH  24  25
ENDBRANCH   4  23
TORSDOF 9
ENDMDL
