MODEL 1
REMARK VINA RESULT:      -8.4      0.000      0.000
REMARK  13 active torsions:
REMARK  status: ('A' for Active; 'I' for Inactive)
REMARK    1  A    between atoms: C12_22  and  O2_6 
REMARK    2  A    between atoms: C20_30  and  O2_6 
REMARK    3  A    between atoms: C18_28  and  O3_7 
REMARK    4  A    between atoms: C21_31  and  O3_7 
REMARK    5  A    between atoms: C1_11  and  N1_10 
REMARK    6  A    between atoms: C2_12  and  N1_10 
REMARK    7  A    between atoms: C5_15  and  N1_10 
REMARK    8  A    between atoms: C1_11  and  C3_13 
REMARK    9  A    between atoms: C2_12  and  C4_14 
REMARK   10  A    between atoms: C5_15  and  C6_16 
REMARK   11  A    between atoms: C17_27  and  C19_29 
REMARK   12  A    between atoms: C20_30  and  C22_32 
REMARK   13  A    between atoms: C25_35  and  C26_36 
ROOT
HETATM    1  O1  UNK     1      28.697  -8.374  38.633  1.00  0.00    -0.301 OA
HETATM    2  O4  UNK     1      25.841  -5.491  38.972  1.00  0.00    -0.284 OA
HETATM    3  C6  UNK     1      30.304  -6.797  37.925  1.00  0.00     0.039 A 
HETATM    4  C11 UNK     1      29.000  -7.070  38.337  1.00  0.00     0.101 A 
HETATM    5  C12 UNK     1      30.674  -5.489  37.609  1.00  0.00     0.090 A 
HETATM    6  C13 UNK     1      28.069  -6.038  38.432  1.00  0.00     0.052 A 
HETATM    7  C14 UNK     1      29.741  -4.456  37.705  1.00  0.00     0.039 A 
HETATM    8  C15 UNK     1      28.435  -4.726  38.117  1.00  0.00     0.021 A 
HETATM    9  C16 UNK     1      26.702  -6.354  38.871  1.00  0.00     0.221 A 
HETATM   10  C17 UNK     1      27.410  -8.682  39.047  1.00  0.00     0.197 A 
HETATM   11  C18 UNK     1      26.425  -7.777  39.179  1.00  0.00     0.165 A 
ENDROOT
BRANCH   5  12
HETATM   12  O2  UNK     1      31.942  -5.201  37.204  1.00  0.00    -0.275 OA
BRANCH  12  13
HETATM   13  C20 UNK     1      32.033  -4.773  35.874  1.00  0.00     0.288 C 
HETATM   14  O5  UNK     1      32.826  -3.959  35.430  1.00  0.00    -0.260 OA
BRANCH  13  15
HETATM   15  C22 UNK     1      30.995  -5.481  35.088  1.00  0.00     0.083 C 
HETATM   16  C25 UNK     1      31.200  -5.714  33.783  1.00  0.00     0.017 C 
BRANCH  16  17
HETATM   17  C26 UNK     1      30.242  -6.395  32.895  1.00  0.00    -0.036 A 
HETATM   18  C30 UNK     1      28.871  -6.215  33.079  1.00  0.00     0.012 A 
HETATM   19  C33 UNK     1      27.963  -6.861  32.239  1.00  0.00     0.007 A 
HETATM   20  C32 UNK     1      28.428  -7.687  31.215  1.00  0.00    -0.062 A 
HETATM   21  C34 UNK     1      29.799  -7.869  31.032  1.00  0.00     0.007 A 
HETATM   22  C35 UNK     1      27.458  -8.378  30.317  1.00  0.00     0.048 C 
HETATM   23  C31 UNK     1      30.706  -7.222  31.872  1.00  0.00     0.012 A 
ENDBRANCH  16  17
ENDBRANCH  13  15
ENDBRANCH  12  13
ENDBRANCH   5  12
BRANCH   3  24
HETATM   24  C5  UNK     1      31.311  -7.898  37.818  1.00  0.00     0.316 C 
BRANCH  24  25
HETATM   25  N1  UNK     1      31.467  -8.375  36.445  1.00  0.00     0.093 N 
BRANCH  25  26
HETATM   26  C1  UNK     1      30.600  -9.528  36.202  1.00  0.00     0.276 C 
BRANCH  26  27
HETATM   27  C3  UNK     1      29.645  -9.306  35.016  1.00  0.00     0.006 C 
HETATM   28  C8  UNK     1      29.961 -10.312  33.906  1.00  0.00     0.011 C 
HETATM   29  C7  UNK     1      28.172  -9.427  35.418  1.00  0.00     0.011 C 
ENDBRANCH  26  27
ENDBRANCH  25  26
BRANCH  25  30
HETATM   30  C2  UNK     1      32.863  -8.721  36.180  1.00  0.00     0.276 C 
BRANCH  30  31
HETATM   31  C4  UNK     1      33.281  -8.403  34.733  1.00  0.00     0.006 C 
HETATM   32  C10 UNK     1      34.459  -7.426  34.739  1.00  0.00     0.011 C 
HETATM   33  C9  UNK     1      33.659  -9.660  33.942  1.00  0.00     0.011 C 
ENDBRANCH  30  31
ENDBRANCH  25  30
ENDBRANCH  24  25
ENDBRANCH   3  24
BRANCH  10  34
HETATM   34  C19 UNK     1      27.232 -10.143  39.333  1.00  0.00     0.442 C 
HETATM   35  F1  UNK     1      26.373 -10.331  40.354  1.00  0.00    -0.164 F 
HETATM   36  F2  UNK     1      26.744 -10.790  38.256  1.00  0.00    -0.164 F 
HETATM   37  F3  UNK     1      28.405 -10.717  39.666  1.00  0.00    -0.164 F 
ENDBRANCH  10  34
BRANCH  11  38
HETATM   38  O3  UNK     1      25.156  -8.116  39.594  1.00  0.00    -0.304 OA
BRANCH  38  39
HETATM   39  C21 UNK     1      24.192  -8.206  38.628  1.00  0.00     0.076 A 
HETATM   40  C24 UNK     1      23.002  -7.490  38.762  1.00  0.00     0.039 A 
HETATM   41  C28 UNK     1      22.019  -7.583  37.778  1.00  0.00     0.026 A 
HETATM   42  C29 UNK     1      22.224  -8.391  36.659  1.00  0.00     0.034 A 
HETATM   43  C27 UNK     1      23.414  -9.107  36.525  1.00  0.00     0.026 A 
HETATM   44 Cl1  UNK     1      21.012  -8.504  35.443  1.00  0.00    -0.084 Cl
HETATM   45  C23 UNK     1      24.398  -9.014  37.510  1.00  0.00     0.039 A 
ENDBRANCH  38  39
ENDBRANCH  11  38
TORSDOF 13
ENDMDL
MODEL 2
REMARK VINA RESULT:      -7.9      4.234      8.115
REMARK  13 active torsions:
REMARK  status: ('A' for Active; 'I' for Inactive)
REMARK    1  A    between atoms: C12_22  and  O2_6 
REMARK    2  A    between atoms: C20_30  and  O2_6 
REMARK    3  A    between atoms: C18_28  and  O3_7 
REMARK    4  A    between atoms: C21_31  and  O3_7 
REMARK    5  A    between atoms: C1_11  and  N1_10 
REMARK    6  A    between atoms: C2_12  and  N1_10 
REMARK    7  A    between atoms: C5_15  and  N1_10 
REMARK    8  A    between atoms: C1_11  and  C3_13 
REMARK    9  A    between atoms: C2_12  and  C4_14 
REMARK   10  A    between atoms: C5_15  and  C6_16 
REMARK   11  A    between atoms: C17_27  and  C19_29 
REMARK   12  A    between atoms: C20_30  and  C22_32 
REMARK   13  A    between atoms: C25_35  and  C26_36 
ROOT
HETATM    1  O1  UNK     1      31.513  -8.375  31.715  1.00  0.00    -0.301 OA
HETATM    2  O4  UNK     1      34.641 -10.274  33.503  1.00  0.00    -0.284 OA
HETATM    3  C6  UNK     1      31.704  -6.533  33.179  1.00  0.00     0.039 A 
HETATM    4  C11 UNK     1      32.163  -7.785  32.768  1.00  0.00     0.101 A 
HETATM    5  C12 UNK     1      32.323  -5.882  34.246  1.00  0.00     0.090 A 
HETATM    6  C13 UNK     1      33.239  -8.381  33.422  1.00  0.00     0.052 A 
HETATM    7  C14 UNK     1      33.400  -6.480  34.900  1.00  0.00     0.039 A 
HETATM    8  C15 UNK     1      33.863  -7.731  34.491  1.00  0.00     0.021 A 
HETATM    9  C16 UNK     1      33.703  -9.700  32.967  1.00  0.00     0.221 A 
HETATM   10  C17 UNK     1      31.944  -9.619  31.279  1.00  0.00     0.197 A 
HETATM   11  C18 UNK     1      32.969 -10.295  31.826  1.00  0.00     0.165 A 
ENDROOT
BRANCH   5  12
HETATM   12  O2  UNK     1      31.890  -4.659  34.664  1.00  0.00    -0.275 OA
BRANCH  12  13
HETATM   13  C20 UNK     1      31.784  -4.537  36.054  1.00  0.00     0.288 C 
HETATM   14  O5  UNK     1      32.446  -3.797  36.765  1.00  0.00    -0.260 OA
BRANCH  13  15
HETATM   15  C22 UNK     1      30.727  -5.463  36.522  1.00  0.00     0.083 C 
HETATM   16  C25 UNK     1      30.922  -6.175  37.642  1.00  0.00     0.017 C 
BRANCH  16  17
HETATM   17  C26 UNK     1      29.954  -7.134  38.201  1.00  0.00    -0.036 A 
HETATM   18  C30 UNK     1      30.153  -8.505  38.033  1.00  0.00     0.012 A 
HETATM   19  C33 UNK     1      29.236  -9.413  38.562  1.00  0.00     0.007 A 
HETATM   20  C32 UNK     1      28.119  -8.950  39.259  1.00  0.00    -0.062 A 
HETATM   21  C34 UNK     1      27.920  -7.580  39.427  1.00  0.00     0.007 A 
HETATM   22  C35 UNK     1      27.139  -9.921  39.825  1.00  0.00     0.048 C 
HETATM   23  C31 UNK     1      28.837  -6.672  38.898  1.00  0.00     0.012 A 
ENDBRANCH  16  17
ENDBRANCH  13  15
ENDBRANCH  12  13
ENDBRANCH   5  12
BRANCH   3  24
HETATM   24  C5  UNK     1      30.548  -5.885  32.484  1.00  0.00     0.316 C 
BRANCH  24  25
HETATM   25  N1  UNK     1      29.376  -6.756  32.427  1.00  0.00     0.093 N 
BRANCH  25  26
HETATM   26  C1  UNK     1      28.575  -6.459  31.240  1.00  0.00     0.276 C 
BRANCH  26  27
HETATM   27  C3  UNK     1      27.326  -7.352  31.136  1.00  0.00     0.006 C 
HETATM   28  C8  UNK     1      26.221  -6.605  30.384  1.00  0.00     0.011 C 
HETATM   29  C7  UNK     1      27.614  -8.684  30.438  1.00  0.00     0.011 C 
ENDBRANCH  26  27
ENDBRANCH  25  26
BRANCH  25  30
HETATM   30  C2  UNK     1      28.570  -6.608  33.638  1.00  0.00     0.276 C 
BRANCH  30  31
HETATM   31  C4  UNK     1      28.757  -7.782  34.615  1.00  0.00     0.006 C 
HETATM   32  C10 UNK     1      27.577  -7.837  35.588  1.00  0.00     0.011 C 
HETATM   33  C9  UNK     1      28.893  -9.127  33.896  1.00  0.00     0.011 C 
ENDBRANCH  30  31
ENDBRANCH  25  30
ENDBRANCH  24  25
ENDBRANCH   3  24
BRANCH  10  34
HETATM   34  C19 UNK     1      31.139 -10.133  30.123  1.00  0.00     0.442 C 
HETATM   35  F1  UNK     1      30.531  -9.122  29.472  1.00  0.00    -0.164 F 
HETATM   36  F2  UNK     1      31.923 -10.784  29.240  1.00  0.00    -0.164 F 
HETATM   37  F3  UNK     1      30.186 -10.990  30.541  1.00  0.00    -0.164 F 
ENDBRANCH  10  34
BRANCH  11  38
HETATM   38  O3  UNK     1      33.372 -11.530  31.367  1.00  0.00    -0.304 OA
BRANCH  38  39
HETATM   39  C21 UNK     1      32.692 -12.617  31.839  1.00  0.00     0.076 A 
HETATM   40  C24 UNK     1      32.410 -12.727  33.201  1.00  0.00     0.039 A 
HETATM   41  C28 UNK     1      31.719 -13.839  33.683  1.00  0.00     0.026 A 
HETATM   42  C29 UNK     1      31.308 -14.840  32.804  1.00  0.00     0.034 A 
HETATM   43  C27 UNK     1      31.589 -14.730  31.441  1.00  0.00     0.026 A 
HETATM   44 Cl1  UNK     1      30.452 -16.210  33.397  1.00  0.00    -0.084 Cl
HETATM   45  C23 UNK     1      32.282 -13.620  30.959  1.00  0.00     0.039 A 
ENDBRANCH  38  39
ENDBRANCH  11  38
TORSDOF 13
ENDMDL
MODEL 3
REMARK VINA RESULT:      -7.9      3.975      6.494
REMARK  13 active torsions:
REMARK  status: ('A' for Active; 'I' for Inactive)
REMARK    1  A    between atoms: C12_22  and  O2_6 
REMARK    2  A    between atoms: C20_30  and  O2_6 
REMARK    3  A    between atoms: C18_28  and  O3_7 
REMARK    4  A    between atoms: C21_31  and  O3_7 
REMARK    5  A    between atoms: C1_11  and  N1_10 
REMARK    6  A    between atoms: C2_12  and  N1_10 
REMARK    7  A    between atoms: C5_15  and  N1_10 
REMARK    8  A    between atoms: C1_11  and  C3_13 
REMARK    9  A    between atoms: C2_12  and  C4_14 
REMARK   10  A    between atoms: C5_15  and  C6_16 
REMARK   11  A    between atoms: C17_27  and  C19_29 
REMARK   12  A    between atoms: C20_30  and  C22_32 
REMARK   13  A    between atoms: C25_35  and  C26_36 
ROOT
HETATM    1  O1  UNK     1      33.115  -9.160  34.850  1.00  0.00    -0.301 OA
HETATM    2  O4  UNK     1      34.559  -6.075  37.082  1.00  0.00    -0.284 OA
HETATM    3  C6  UNK     1      34.495  -8.577  33.025  1.00  0.00     0.039 A 
HETATM    4  C11 UNK     1      34.065  -8.321  34.328  1.00  0.00     0.101 A 
HETATM    5  C12 UNK     1      35.459  -7.758  32.438  1.00  0.00     0.090 A 
HETATM    6  C13 UNK     1      34.599  -7.248  35.038  1.00  0.00     0.052 A 
HETATM    7  C14 UNK     1      35.993  -6.684  33.151  1.00  0.00     0.039 A 
HETATM    8  C15 UNK     1      35.566  -6.426  34.454  1.00  0.00     0.021 A 
HETATM    9  C16 UNK     1      34.129  -7.002  36.410  1.00  0.00     0.221 A 
HETATM   10  C17 UNK     1      32.666  -8.936  36.142  1.00  0.00     0.197 A 
HETATM   11  C18 UNK     1      33.103  -7.936  36.928  1.00  0.00     0.165 A 
ENDROOT
BRANCH   5  12
HETATM   12  O2  UNK     1      35.892  -7.991  31.167  1.00  0.00    -0.275 OA
BRANCH  12  13
HETATM   13  C20 UNK     1      35.249  -7.216  30.195  1.00  0.00     0.288 C 
HETATM   14  O5  UNK     1      35.611  -6.123  29.787  1.00  0.00    -0.260 OA
BRANCH  13  15
HETATM   15  C22 UNK     1      34.045  -7.949  29.739  1.00  0.00     0.083 C 
HETATM   16  C25 UNK     1      32.830  -7.428  29.968  1.00  0.00     0.017 C 
BRANCH  16  17
HETATM   17  C26 UNK     1      31.561  -8.065  29.576  1.00  0.00    -0.036 A 
HETATM   18  C30 UNK     1      30.426  -7.908  30.372  1.00  0.00     0.012 A 
HETATM   19  C33 UNK     1      29.224  -8.511  30.000  1.00  0.00     0.007 A 
HETATM   20  C32 UNK     1      29.158  -9.272  28.833  1.00  0.00    -0.062 A 
HETATM   21  C34 UNK     1      30.293  -9.430  28.037  1.00  0.00     0.007 A 
HETATM   22  C35 UNK     1      27.873  -9.917  28.435  1.00  0.00     0.048 C 
HETATM   23  C31 UNK     1      31.494  -8.827  28.409  1.00  0.00     0.012 A 
ENDBRANCH  16  17
ENDBRANCH  13  15
ENDBRANCH  12  13
ENDBRANCH   5  12
BRANCH   3  24
HETATM   24  C5  UNK     1      33.927  -9.726  32.253  1.00  0.00     0.316 C 
BRANCH  24  25
HETATM   25  N1  UNK     1      34.032 -10.989  32.980  1.00  0.00     0.093 N 
BRANCH  25  26
HETATM   26  C1  UNK     1      35.197 -11.746  32.525  1.00  0.00     0.276 C 
BRANCH  26  27
HETATM   27  C3  UNK     1      35.445 -11.591  31.014  1.00  0.00     0.006 C 
HETATM   28  C8  UNK     1      36.920 -11.265  30.765  1.00  0.00     0.011 C 
HETATM   29  C7  UNK     1      35.054 -12.843  30.224  1.00  0.00     0.011 C 
ENDBRANCH  26  27
ENDBRANCH  25  26
BRANCH  25  30
HETATM   30  C2  UNK     1      32.813 -11.779  32.813  1.00  0.00     0.276 C 
BRANCH  30  31
HETATM   31  C4  UNK     1      31.733 -11.029  32.012  1.00  0.00     0.006 C 
HETATM   32  C10 UNK     1      31.386 -11.819  30.749  1.00  0.00     0.011 C 
HETATM   33  C9  UNK     1      30.462 -10.781  32.830  1.00  0.00     0.011 C 
ENDBRANCH  30  31
ENDBRANCH  25  30
ENDBRANCH  24  25
ENDBRANCH   3  24
BRANCH  10  34
HETATM   34  C19 UNK     1      31.632  -9.933  36.573  1.00  0.00     0.442 C 
HETATM   35  F1  UNK     1      31.724 -10.180  37.894  1.00  0.00    -0.164 F 
HETATM   36  F2  UNK     1      30.388  -9.477  36.321  1.00  0.00    -0.164 F 
HETATM   37  F3  UNK     1      31.785 -11.102  35.920  1.00  0.00    -0.164 F 
ENDBRANCH  10  34
BRANCH  11  38
HETATM   38  O3  UNK     1      32.636  -7.742  38.210  1.00  0.00    -0.304 OA
BRANCH  38  39
HETATM   39  C21 UNK     1      31.556  -6.916  38.356  1.00  0.00     0.076 A 
HETATM   40  C24 UNK     1      31.727  -5.532  38.334  1.00  0.00     0.039 A 
HETATM   41  C28 UNK     1      30.625  -4.691  38.486  1.00  0.00     0.026 A 
HETATM   42  C29 UNK     1      29.352  -5.232  38.657  1.00  0.00     0.034 A 
HETATM   43  C27 UNK     1      29.180  -6.617  38.678  1.00  0.00     0.026 A 
HETATM   44 Cl1  UNK     1      27.992  -4.194  38.841  1.00  0.00    -0.084 Cl
HETATM   45  C23 UNK     1      30.282  -7.459  38.528  1.00  0.00     0.039 A 
ENDBRANCH  38  39
ENDBRANCH  11  38
TORSDOF 13
ENDMDL
MODEL 4
REMARK VINA RESULT:      -7.9      3.734      8.461
REMARK  13 active torsions:
REMARK  status: ('A' for Active; 'I' for Inactive)
REMARK    1  A    between atoms: C12_22  and  O2_6 
REMARK    2  A    between atoms: C20_30  and  O2_6 
REMARK    3  A    between atoms: C18_28  and  O3_7 
REMARK    4  A    between atoms: C21_31  and  O3_7 
REMARK    5  A    between atoms: C1_11  and  N1_10 
REMARK    6  A    between atoms: C2_12  and  N1_10 
REMARK    7  A    between atoms: C5_15  and  N1_10 
REMARK    8  A    between atoms: C1_11  and  C3_13 
REMARK    9  A    between atoms: C2_12  and  C4_14 
REMARK   10  A    between atoms: C5_15  and  C6_16 
REMARK   11  A    between atoms: C17_27  and  C19_29 
REMARK   12  A    between atoms: C20_30  and  C22_32 
REMARK   13  A    between atoms: C25_35  and  C26_36 
ROOT
HETATM    1  O1  UNK     1      29.823  -6.542  35.218  1.00  0.00    -0.301 OA
HETATM    2  O4  UNK     1      32.438  -3.974  36.995  1.00  0.00    -0.284 OA
HETATM    3  C6  UNK     1      28.500  -6.655  37.170  1.00  0.00     0.039 A 
HETATM    4  C11 UNK     1      29.621  -6.144  36.514  1.00  0.00     0.101 A 
HETATM    5  C12 UNK     1      28.240  -6.289  38.490  1.00  0.00     0.090 A 
HETATM    6  C13 UNK     1      30.477  -5.269  37.179  1.00  0.00     0.052 A 
HETATM    7  C14 UNK     1      29.099  -5.412  39.155  1.00  0.00     0.039 A 
HETATM    8  C15 UNK     1      30.220  -4.898  38.502  1.00  0.00     0.021 A 
HETATM    9  C16 UNK     1      31.650  -4.743  36.464  1.00  0.00     0.221 A 
HETATM   10  C17 UNK     1      30.927  -6.052  34.535  1.00  0.00     0.197 A 
HETATM   11  C18 UNK     1      31.824  -5.203  35.066  1.00  0.00     0.165 A 
ENDROOT
BRANCH   5  12
HETATM   12  O2  UNK     1      27.152  -6.777  39.149  1.00  0.00    -0.275 OA
BRANCH  12  13
HETATM   13  C20 UNK     1      25.995  -6.007  38.986  1.00  0.00     0.288 C 
HETATM   14  O5  UNK     1      25.926  -4.789  39.033  1.00  0.00    -0.260 OA
BRANCH  13  15
HETATM   15  C22 UNK     1      24.857  -6.925  38.744  1.00  0.00     0.083 C 
HETATM   16  C25 UNK     1      23.616  -6.539  39.076  1.00  0.00     0.017 C 
BRANCH  16  17
HETATM   17  C26 UNK     1      22.408  -7.364  38.896  1.00  0.00    -0.036 A 
HETATM   18  C30 UNK     1      21.220  -7.009  39.535  1.00  0.00     0.012 A 
HETATM   19  C33 UNK     1      20.077  -7.791  39.366  1.00  0.00     0.007 A 
HETATM   20  C32 UNK     1      20.123  -8.927  38.557  1.00  0.00    -0.062 A 
HETATM   21  C34 UNK     1      21.311  -9.281  37.918  1.00  0.00     0.007 A 
HETATM   22  C35 UNK     1      18.901  -9.762  38.376  1.00  0.00     0.048 C 
HETATM   23  C31 UNK     1      22.454  -8.500  38.088  1.00  0.00     0.012 A 
ENDBRANCH  16  17
ENDBRANCH  13  15
ENDBRANCH  12  13
ENDBRANCH   5  12
BRANCH   3  24
HETATM   24  C5  UNK     1      27.575  -7.597  36.465  1.00  0.00     0.316 C 
BRANCH  24  25
HETATM   25  N1  UNK     1      27.924  -8.996  36.702  1.00  0.00     0.093 N 
BRANCH  25  26
HETATM   26  C1  UNK     1      27.915  -9.745  35.446  1.00  0.00     0.276 C 
BRANCH  26  27
HETATM   27  C3  UNK     1      29.207  -9.546  34.634  1.00  0.00     0.006 C 
HETATM   28  C8  UNK     1      30.414  -9.967  35.476  1.00  0.00     0.011 C 
HETATM   29  C7  UNK     1      29.199 -10.328  33.318  1.00  0.00     0.011 C 
ENDBRANCH  26  27
ENDBRANCH  25  26
BRANCH  25  30
HETATM   30  C2  UNK     1      26.998  -9.598  37.662  1.00  0.00     0.276 C 
BRANCH  30  31
HETATM   31  C4  UNK     1      27.727 -10.242  38.855  1.00  0.00     0.006 C 
HETATM   32  C10 UNK     1      29.169  -9.732  38.916  1.00  0.00     0.011 C 
HETATM   33  C9  UNK     1      27.026  -9.965  40.189  1.00  0.00     0.011 C 
ENDBRANCH  30  31
ENDBRANCH  25  30
ENDBRANCH  24  25
ENDBRANCH   3  24
BRANCH  10  34
HETATM   34  C19 UNK     1      31.014  -6.574  33.132  1.00  0.00     0.442 C 
HETATM   35  F1  UNK     1      31.930  -7.558  33.042  1.00  0.00    -0.164 F 
HETATM   36  F2  UNK     1      29.828  -7.072  32.729  1.00  0.00    -0.164 F 
HETATM   37  F3  UNK     1      31.367  -5.597  32.273  1.00  0.00    -0.164 F 
ENDBRANCH  10  34
BRANCH  11  38
HETATM   38  O3  UNK     1      32.910  -4.734  34.359  1.00  0.00    -0.304 OA
BRANCH  38  39
HETATM   39  C21 UNK     1      34.009  -5.545  34.304  1.00  0.00     0.076 A 
HETATM   40  C24 UNK     1      34.489  -6.151  35.465  1.00  0.00     0.039 A 
HETATM   41  C28 UNK     1      35.612  -6.975  35.409  1.00  0.00     0.026 A 
HETATM   42  C29 UNK     1      36.254  -7.197  34.191  1.00  0.00     0.034 A 
HETATM   43  C27 UNK     1      35.775  -6.592  33.029  1.00  0.00     0.026 A 
HETATM   44 Cl1  UNK     1      37.638  -8.217  34.120  1.00  0.00    -0.084 Cl
HETATM   45  C23 UNK     1      34.652  -5.766  33.085  1.00  0.00     0.039 A 
ENDBRANCH  38  39
ENDBRANCH  11  38
TORSDOF 13
ENDMDL
MODEL 5
REMARK VINA RESULT:      -7.9      3.702      6.033
REMARK  13 active torsions:
REMARK  status: ('A' for Active; 'I' for Inactive)
REMARK    1  A    between atoms: C12_22  and  O2_6 
REMARK    2  A    between atoms: C20_30  and  O2_6 
REMARK    3  A    between atoms: C18_28  and  O3_7 
REMARK    4  A    between atoms: C21_31  and  O3_7 
REMARK    5  A    between atoms: C1_11  and  N1_10 
REMARK    6  A    between atoms: C2_12  and  N1_10 
REMARK    7  A    between atoms: C5_15  and  N1_10 
REMARK    8  A    between atoms: C1_11  and  C3_13 
REMARK    9  A    between atoms: C2_12  and  C4_14 
REMARK   10  A    between atoms: C5_15  and  C6_16 
REMARK   11  A    between atoms: C17_27  and  C19_29 
REMARK   12  A    between atoms: C20_30  and  C22_32 
REMARK   13  A    between atoms: C25_35  and  C26_36 
ROOT
HETATM    1  O1  UNK     1      32.783  -9.288  35.004  1.00  0.00    -0.301 OA
HETATM    2  O4  UNK     1      34.039  -5.812  36.713  1.00  0.00    -0.284 OA
HETATM    3  C6  UNK     1      33.934  -8.801  33.002  1.00  0.00     0.039 A 
HETATM    4  C11 UNK     1      33.584  -8.428  34.300  1.00  0.00     0.101 A 
HETATM    5  C12 UNK     1      34.747  -7.967  32.234  1.00  0.00     0.090 A 
HETATM    6  C13 UNK     1      34.048  -7.224  34.826  1.00  0.00     0.052 A 
HETATM    7  C14 UNK     1      35.209  -6.762  32.762  1.00  0.00     0.039 A 
HETATM    8  C15 UNK     1      34.862  -6.386  34.061  1.00  0.00     0.021 A 
HETATM    9  C16 UNK     1      33.665  -6.856  36.197  1.00  0.00     0.221 A 
HETATM   10  C17 UNK     1      32.417  -8.950  36.298  1.00  0.00     0.197 A 
HETATM   11  C18 UNK     1      32.799  -7.819  36.917  1.00  0.00     0.165 A 
ENDROOT
BRANCH   5  12
HETATM   12  O2  UNK     1      35.099  -8.313  30.964  1.00  0.00    -0.275 OA
BRANCH  12  13
HETATM   13  C20 UNK     1      34.668  -7.408  29.987  1.00  0.00     0.288 C 
HETATM   14  O5  UNK     1      35.373  -6.635  29.358  1.00  0.00    -0.260 OA
BRANCH  13  15
HETATM   15  C22 UNK     1      33.200  -7.547  29.842  1.00  0.00     0.083 C 
HETATM   16  C25 UNK     1      32.395  -6.604  30.352  1.00  0.00     0.017 C 
BRANCH  16  17
HETATM   17  C26 UNK     1      30.923  -6.635  30.282  1.00  0.00    -0.036 A 
HETATM   18  C30 UNK     1      30.278  -7.682  29.625  1.00  0.00     0.012 A 
HETATM   19  C33 UNK     1      28.885  -7.712  29.559  1.00  0.00     0.007 A 
HETATM   20  C32 UNK     1      28.137  -6.693  30.150  1.00  0.00    -0.062 A 
HETATM   21  C34 UNK     1      28.783  -5.644  30.807  1.00  0.00     0.007 A 
HETATM   22  C35 UNK     1      26.648  -6.724  30.080  1.00  0.00     0.048 C 
HETATM   23  C31 UNK     1      30.176  -5.616  30.873  1.00  0.00     0.012 A 
ENDBRANCH  16  17
ENDBRANCH  13  15
ENDBRANCH  12  13
ENDBRANCH   5  12
BRANCH   3  24
HETATM   24  C5  UNK     1      33.441 -10.091  32.427  1.00  0.00     0.316 C 
BRANCH  24  25
HETATM   25  N1  UNK     1      32.117  -9.958  31.822  1.00  0.00     0.093 N 
BRANCH  25  26
HETATM   26  C1  UNK     1      31.081 -10.396  32.756  1.00  0.00     0.276 C 
BRANCH  26  27
HETATM   27  C3  UNK     1      29.873  -9.444  32.783  1.00  0.00     0.006 C 
HETATM   28  C8  UNK     1      28.701 -10.120  33.500  1.00  0.00     0.011 C 
HETATM   29  C7  UNK     1      30.192  -8.110  33.462  1.00  0.00     0.011 C 
ENDBRANCH  26  27
ENDBRANCH  25  26
BRANCH  25  30
HETATM   30  C2  UNK     1      32.044 -10.727  30.580  1.00  0.00     0.276 C 
BRANCH  30  31
HETATM   31  C4  UNK     1      30.831 -11.674  30.546  1.00  0.00     0.006 C 
HETATM   32  C10 UNK     1      29.973 -11.370  29.316  1.00  0.00     0.011 C 
HETATM   33  C9  UNK     1      31.239 -13.150  30.537  1.00  0.00     0.011 C 
ENDBRANCH  30  31
ENDBRANCH  25  30
ENDBRANCH  24  25
ENDBRANCH   3  24
BRANCH  10  34
HETATM   34  C19 UNK     1      31.543  -9.986  36.939  1.00  0.00     0.442 C 
HETATM   35  F1  UNK     1      31.803 -11.210  36.438  1.00  0.00    -0.164 F 
HETATM   36  F2  UNK     1      31.744 -10.031  38.271  1.00  0.00    -0.164 F 
HETATM   37  F3  UNK     1      30.239  -9.719  36.725  1.00  0.00    -0.164 F 
ENDBRANCH  10  34
BRANCH  11  38
HETATM   38  O3  UNK     1      32.417  -7.513  38.205  1.00  0.00    -0.304 OA
BRANCH  38  39
HETATM   39  C21 UNK     1      31.301  -6.738  38.352  1.00  0.00     0.076 A 
HETATM   40  C24 UNK     1      30.046  -7.336  38.466  1.00  0.00     0.039 A 
HETATM   41  C28 UNK     1      28.907  -6.544  38.614  1.00  0.00     0.026 A 
HETATM   42  C29 UNK     1      29.022  -5.155  38.649  1.00  0.00     0.034 A 
HETATM   43  C27 UNK     1      30.278  -4.556  38.535  1.00  0.00     0.026 A 
HETATM   44 Cl1  UNK     1      27.618  -4.178  38.833  1.00  0.00    -0.084 Cl
HETATM   45  C23 UNK     1      31.417  -5.348  38.386  1.00  0.00     0.039 A 
ENDBRANCH  38  39
ENDBRANCH  11  38
TORSDOF 13
ENDMDL
MODEL 6
REMARK VINA RESULT:      -7.8      4.703      9.309
REMARK  13 active torsions:
REMARK  status: ('A' for Active; 'I' for Inactive)
REMARK    1  A    between atoms: C12_22  and  O2_6 
REMARK    2  A    between atoms: C20_30  and  O2_6 
REMARK    3  A    between atoms: C18_28  and  O3_7 
REMARK    4  A    between atoms: C21_31  and  O3_7 
REMARK    5  A    between atoms: C1_11  and  N1_10 
REMARK    6  A    between atoms: C2_12  and  N1_10 
REMARK    7  A    between atoms: C5_15  and  N1_10 
REMARK    8  A    between atoms: C1_11  and  C3_13 
REMARK    9  A    between atoms: C2_12  and  C4_14 
REMARK   10  A    between atoms: C5_15  and  C6_16 
REMARK   11  A    between atoms: C17_27  and  C19_29 
REMARK   12  A    between atoms: C20_30  and  C22_32 
REMARK   13  A    between atoms: C25_35  and  C26_36 
ROOT
HETATM    1  O1  UNK     1      33.776  -6.606  32.828  1.00  0.00    -0.301 OA
HETATM    2  O4  UNK     1      37.293  -7.681  34.577  1.00  0.00    -0.284 OA
HETATM    3  C6  UNK     1      33.067  -5.485  34.781  1.00  0.00     0.039 A 
HETATM    4  C11 UNK     1      34.042  -6.233  34.120  1.00  0.00     0.101 A 
HETATM    5  C12 UNK     1      33.279  -5.075  36.098  1.00  0.00     0.090 A 
HETATM    6  C13 UNK     1      35.225  -6.568  34.776  1.00  0.00     0.052 A 
HETATM    7  C14 UNK     1      34.464  -5.412  36.753  1.00  0.00     0.039 A 
HETATM    8  C15 UNK     1      35.442  -6.159  36.094  1.00  0.00     0.021 A 
HETATM    9  C16 UNK     1      36.237  -7.355  34.055  1.00  0.00     0.221 A 
HETATM   10  C17 UNK     1      34.724  -7.348  32.140  1.00  0.00     0.197 A 
HETATM   11  C18 UNK     1      35.902  -7.733  32.662  1.00  0.00     0.165 A 
ENDROOT
BRANCH   5  12
HETATM   12  O2  UNK     1      32.339  -4.345  36.761  1.00  0.00    -0.275 OA
BRANCH  12  13
HETATM   13  C20 UNK     1      31.999  -4.862  38.017  1.00  0.00     0.288 C 
HETATM   14  O5  UNK     1      32.751  -5.004  38.967  1.00  0.00    -0.260 OA
BRANCH  13  15
HETATM   15  C22 UNK     1      30.558  -5.210  37.999  1.00  0.00     0.083 C 
HETATM   16  C25 UNK     1      30.134  -6.294  38.666  1.00  0.00     0.017 C 
BRANCH  16  17
HETATM   17  C26 UNK     1      28.733  -6.749  38.714  1.00  0.00    -0.036 A 
HETATM   18  C30 UNK     1      27.695  -5.826  38.586  1.00  0.00     0.012 A 
HETATM   19  C33 UNK     1      26.369  -6.257  38.632  1.00  0.00     0.007 A 
HETATM   20  C32 UNK     1      26.081  -7.610  38.807  1.00  0.00    -0.062 A 
HETATM   21  C34 UNK     1      27.120  -8.533  38.937  1.00  0.00     0.007 A 
HETATM   22  C35 UNK     1      24.664  -8.071  38.857  1.00  0.00     0.048 C 
HETATM   23  C31 UNK     1      28.445  -8.102  38.890  1.00  0.00     0.012 A 
ENDBRANCH  16  17
ENDBRANCH  13  15
ENDBRANCH  12  13
ENDBRANCH   5  12
BRANCH   3  24
HETATM   24  C5  UNK     1      31.793  -5.120  34.087  1.00  0.00     0.316 C 
BRANCH  24  25
HETATM   25  N1  UNK     1      30.947  -6.285  33.834  1.00  0.00     0.093 N 
BRANCH  25  26
HETATM   26  C1  UNK     1      30.524  -6.316  32.435  1.00  0.00     0.276 C 
BRANCH  26  27
HETATM   27  C3  UNK     1      29.323  -5.393  32.163  1.00  0.00     0.006 C 
HETATM   28  C8  UNK     1      29.757  -4.239  31.255  1.00  0.00     0.011 C 
HETATM   29  C7  UNK     1      28.145  -6.134  31.526  1.00  0.00     0.011 C 
ENDBRANCH  26  27
ENDBRANCH  25  26
BRANCH  25  30
HETATM   30  C2  UNK     1      29.783  -6.272  34.720  1.00  0.00     0.276 C 
BRANCH  30  31
HETATM   31  C4  UNK     1      29.534  -7.639  35.381  1.00  0.00     0.006 C 
HETATM   32  C10 UNK     1      28.413  -8.373  34.641  1.00  0.00     0.011 C 
HETATM   33  C9  UNK     1      30.791  -8.515  35.409  1.00  0.00     0.011 C 
ENDBRANCH  30  31
ENDBRANCH  25  30
ENDBRANCH  24  25
ENDBRANCH   3  24
BRANCH  10  34
HETATM   34  C19 UNK     1      34.292  -7.679  30.743  1.00  0.00     0.442 C 
HETATM   35  F1  UNK     1      34.083  -9.003  30.606  1.00  0.00    -0.164 F 
HETATM   36  F2  UNK     1      33.146  -7.043  30.429  1.00  0.00    -0.164 F 
HETATM   37  F3  UNK     1      35.229  -7.312  29.847  1.00  0.00    -0.164 F 
ENDBRANCH  10  34
BRANCH  11  38
HETATM   38  O3  UNK     1      36.822  -8.471  31.950  1.00  0.00    -0.304 OA
BRANCH  38  39
HETATM   39  C21 UNK     1      37.008  -9.769  32.337  1.00  0.00     0.076 A 
HETATM   40  C24 UNK     1      35.906 -10.580  32.611  1.00  0.00     0.039 A 
HETATM   41  C28 UNK     1      36.097 -11.903  33.009  1.00  0.00     0.026 A 
HETATM   42  C29 UNK     1      37.387 -12.416  33.131  1.00  0.00     0.034 A 
HETATM   43  C27 UNK     1      38.489 -11.606  32.856  1.00  0.00     0.026 A 
HETATM   44 Cl1  UNK     1      37.623 -14.050  33.618  1.00  0.00    -0.084 Cl
HETATM   45  C23 UNK     1      38.299 -10.282  32.460  1.00  0.00     0.039 A 
ENDBRANCH  38  39
ENDBRANCH  11  38
TORSDOF 13
ENDMDL
MODEL 7
REMARK VINA RESULT:      -7.8      4.913      9.146
REMARK  13 active torsions:
REMARK  status: ('A' for Active; 'I' for Inactive)
REMARK    1  A    between atoms: C12_22  and  O2_6 
REMARK    2  A    between atoms: C20_30  and  O2_6 
REMARK    3  A    between atoms: C18_28  and  O3_7 
REMARK    4  A    between atoms: C21_31  and  O3_7 
REMARK    5  A    between atoms: C1_11  and  N1_10 
REMARK    6  A    between atoms: C2_12  and  N1_10 
REMARK    7  A    between atoms: C5_15  and  N1_10 
REMARK    8  A    between atoms: C1_11  and  C3_13 
REMARK    9  A    between atoms: C2_12  and  C4_14 
REMARK   10  A    between atoms: C5_15  and  C6_16 
REMARK   11  A    between atoms: C17_27  and  C19_29 
REMARK   12  A    between atoms: C20_30  and  C22_32 
REMARK   13  A    between atoms: C25_35  and  C26_36 
ROOT
HETATM    1  O1  UNK     1      34.266  -7.739  35.266  1.00  0.00    -0.301 OA
HETATM    2  O4  UNK     1      33.830 -10.460  32.267  1.00  0.00    -0.284 OA
HETATM    3  C6  UNK     1      32.513  -8.721  36.506  1.00  0.00     0.039 A 
HETATM    4  C11 UNK     1      33.307  -8.715  35.358  1.00  0.00     0.101 A 
HETATM    5  C12 UNK     1      31.519  -9.688  36.658  1.00  0.00     0.090 A 
HETATM    6  C13 UNK     1      33.107  -9.674  34.369  1.00  0.00     0.052 A 
HETATM    7  C14 UNK     1      31.320 -10.648  35.665  1.00  0.00     0.039 A 
HETATM    8  C15 UNK     1      32.113 -10.645  34.517  1.00  0.00     0.021 A 
HETATM    9  C16 UNK     1      33.959  -9.646  33.170  1.00  0.00     0.221 A 
HETATM   10  C17 UNK     1      35.075  -7.704  34.140  1.00  0.00     0.197 A 
HETATM   11  C18 UNK     1      34.980  -8.573  33.119  1.00  0.00     0.165 A 
ENDROOT
BRANCH   5  12
HETATM   12  O2  UNK     1      30.732  -9.711  37.770  1.00  0.00    -0.275 OA
BRANCH  12  13
HETATM   13  C20 UNK     1      29.401  -9.349  37.534  1.00  0.00     0.288 C 
HETATM   14  O5  UNK     1      28.440  -9.640  38.228  1.00  0.00    -0.260 OA
BRANCH  13  15
HETATM   15  C22 UNK     1      29.353  -8.546  36.290  1.00  0.00     0.083 C 
HETATM   16  C25 UNK     1      28.477  -8.871  35.328  1.00  0.00     0.017 C 
BRANCH  16  17
HETATM   17  C26 UNK     1      28.342  -8.159  34.045  1.00  0.00    -0.036 A 
HETATM   18  C30 UNK     1      28.024  -6.801  34.031  1.00  0.00     0.012 A 
HETATM   19  C33 UNK     1      27.896  -6.126  32.816  1.00  0.00     0.007 A 
HETATM   20  C32 UNK     1      28.085  -6.811  31.616  1.00  0.00    -0.062 A 
HETATM   21  C34 UNK     1      28.401  -8.170  31.629  1.00  0.00     0.007 A 
HETATM   22  C35 UNK     1      27.947  -6.091  30.317  1.00  0.00     0.048 C 
HETATM   23  C31 UNK     1      28.530  -8.844  32.844  1.00  0.00     0.012 A 
ENDBRANCH  16  17
ENDBRANCH  13  15
ENDBRANCH  12  13
ENDBRANCH   5  12
BRANCH   3  24
HETATM   24  C5  UNK     1      32.719  -7.694  37.575  1.00  0.00     0.316 C 
BRANCH  24  25
HETATM   25  N1  UNK     1      31.909  -6.498  37.357  1.00  0.00     0.093 N 
BRANCH  25  26
HETATM   26  C1  UNK     1      32.750  -5.381  36.930  1.00  0.00     0.276 C 
BRANCH  26  27
HETATM   27  C3  UNK     1      32.203  -4.680  35.673  1.00  0.00     0.006 C 
HETATM   28  C8  UNK     1      33.361  -4.070  34.880  1.00  0.00     0.011 C 
HETATM   29  C7  UNK     1      31.405  -5.628  34.774  1.00  0.00     0.011 C 
ENDBRANCH  26  27
ENDBRANCH  25  26
BRANCH  25  30
HETATM   30  C2  UNK     1      31.176  -6.149  38.574  1.00  0.00     0.276 C 
BRANCH  30  31
HETATM   31  C4  UNK     1      29.798  -5.533  38.274  1.00  0.00     0.006 C 
HETATM   32  C10 UNK     1      28.733  -6.199  39.148  1.00  0.00     0.011 C 
HETATM   33  C9  UNK     1      29.772  -4.018  38.496  1.00  0.00     0.011 C 
ENDBRANCH  30  31
ENDBRANCH  25  30
ENDBRANCH  24  25
ENDBRANCH   3  24
BRANCH  10  34
HETATM   34  C19 UNK     1      36.073  -6.586  34.183  1.00  0.00     0.442 C 
HETATM   35  F1  UNK     1      35.955  -5.881  35.326  1.00  0.00    -0.164 F 
HETATM   36  F2  UNK     1      37.333  -7.061  34.116  1.00  0.00    -0.164 F 
HETATM   37  F3  UNK     1      35.894  -5.738  33.152  1.00  0.00    -0.164 F 
ENDBRANCH  10  34
BRANCH  11  38
HETATM   38  O3  UNK     1      35.801  -8.510  32.014  1.00  0.00    -0.304 OA
BRANCH  38  39
HETATM   39  C21 UNK     1      36.737  -9.498  31.882  1.00  0.00     0.076 A 
HETATM   40  C24 UNK     1      37.478  -9.910  32.990  1.00  0.00     0.039 A 
HETATM   41  C28 UNK     1      38.435 -10.915  32.854  1.00  0.00     0.026 A 
HETATM   42  C29 UNK     1      38.651 -11.510  31.611  1.00  0.00     0.034 A 
HETATM   43  C27 UNK     1      37.910 -11.098  30.503  1.00  0.00     0.026 A 
HETATM   44 Cl1  UNK     1      39.830 -12.752  31.444  1.00  0.00    -0.084 Cl
HETATM   45  C23 UNK     1      36.954 -10.092  30.638  1.00  0.00     0.039 A 
ENDBRANCH  38  39
ENDBRANCH  11  38
TORSDOF 13
ENDMDL
MODEL 8
REMARK VINA RESULT:      -7.7      4.832      9.401
REMARK  13 active torsions:
REMARK  status: ('A' for Active; 'I' for Inactive)
REMARK    1  A    between atoms: C12_22  and  O2_6 
REMARK    2  A    between atoms: C20_30  and  O2_6 
REMARK    3  A    between atoms: C18_28  and  O3_7 
REMARK    4  A    between atoms: C21_31  and  O3_7 
REMARK    5  A    between atoms: C1_11  and  N1_10 
REMARK    6  A    between atoms: C2_12  and  N1_10 
REMARK    7  A    between atoms: C5_15  and  N1_10 
REMARK    8  A    between atoms: C1_11  and  C3_13 
REMARK    9  A    between atoms: C2_12  and  C4_14 
REMARK   10  A    between atoms: C5_15  and  C6_16 
REMARK   11  A    between atoms: C17_27  and  C19_29 
REMARK   12  A    between atoms: C20_30  and  C22_32 
REMARK   13  A    between atoms: C25_35  and  C26_36 
ROOT
HETATM    1  O1  UNK     1      34.405  -6.788  34.034  1.00  0.00    -0.301 OA
HETATM    2  O4  UNK     1      34.407  -8.642  30.408  1.00  0.00    -0.284 OA
HETATM    3  C6  UNK     1      32.126  -6.213  33.817  1.00  0.00     0.039 A 
HETATM    4  C11 UNK     1      33.259  -6.827  33.283  1.00  0.00     0.101 A 
HETATM    5  C12 UNK     1      30.929  -6.219  33.100  1.00  0.00     0.090 A 
HETATM    6  C13 UNK     1      33.193  -7.445  32.036  1.00  0.00     0.052 A 
HETATM    7  C14 UNK     1      30.865  -6.838  31.852  1.00  0.00     0.039 A 
HETATM    8  C15 UNK     1      31.996  -7.454  31.315  1.00  0.00     0.021 A 
HETATM    9  C16 UNK     1      34.402  -8.086  31.497  1.00  0.00     0.221 A 
HETATM   10  C17 UNK     1      35.550  -7.389  33.534  1.00  0.00     0.197 A 
HETATM   11  C18 UNK     1      35.614  -8.016  32.347  1.00  0.00     0.165 A 
ENDROOT
BRANCH   5  12
HETATM   12  O2  UNK     1      29.811  -5.625  33.604  1.00  0.00    -0.275 OA
BRANCH  12  13
HETATM   13  C20 UNK     1      28.627  -6.326  33.346  1.00  0.00     0.288 C 
HETATM   14  O5  UNK     1      27.884  -6.160  32.391  1.00  0.00    -0.260 OA
BRANCH  13  15
HETATM   15  C22 UNK     1      28.425  -7.311  34.433  1.00  0.00     0.083 C 
HETATM   16  C25 UNK     1      28.041  -6.886  35.646  1.00  0.00     0.017 C 
BRANCH  16  17
HETATM   17  C26 UNK     1      27.819  -7.764  36.808  1.00  0.00    -0.036 A 
HETATM   18  C30 UNK     1      27.292  -9.042  36.625  1.00  0.00     0.012 A 
HETATM   19  C33 UNK     1      27.081  -9.874  37.726  1.00  0.00     0.007 A 
HETATM   20  C32 UNK     1      27.398  -9.427  39.008  1.00  0.00    -0.062 A 
HETATM   21  C34 UNK     1      27.925  -8.147  39.191  1.00  0.00     0.007 A 
HETATM   22  C35 UNK     1      27.173 -10.315  40.184  1.00  0.00     0.048 C 
HETATM   23  C31 UNK     1      28.135  -7.317  38.091  1.00  0.00     0.012 A 
ENDBRANCH  16  17
ENDBRANCH  13  15
ENDBRANCH  12  13
ENDBRANCH   5  12
BRANCH   3  24
HETATM   24  C5  UNK     1      32.186  -5.546  35.155  1.00  0.00     0.316 C 
BRANCH  24  25
HETATM   25  N1  UNK     1      31.499  -6.317  36.190  1.00  0.00     0.093 N 
BRANCH  25  26
HETATM   26  C1  UNK     1      31.441  -5.559  37.439  1.00  0.00     0.276 C 
BRANCH  26  27
HETATM   27  C3  UNK     1      30.475  -4.363  37.357  1.00  0.00     0.006 C 
HETATM   28  C8  UNK     1      29.710  -4.229  38.676  1.00  0.00     0.011 C 
HETATM   29  C7  UNK     1      31.194  -3.049  37.042  1.00  0.00     0.011 C 
ENDBRANCH  26  27
ENDBRANCH  25  26
BRANCH  25  30
HETATM   30  C2  UNK     1      32.169  -7.599  36.401  1.00  0.00     0.276 C 
BRANCH  30  31
HETATM   31  C4  UNK     1      31.190  -8.786  36.368  1.00  0.00     0.006 C 
HETATM   32  C10 UNK     1      31.554  -9.724  35.214  1.00  0.00     0.011 C 
HETATM   33  C9  UNK     1      31.175  -9.571  37.683  1.00  0.00     0.011 C 
ENDBRANCH  30  31
ENDBRANCH  25  30
ENDBRANCH  24  25
ENDBRANCH   3  24
BRANCH  10  34
HETATM   34  C19 UNK     1      36.719  -7.265  34.466  1.00  0.00     0.442 C 
HETATM   35  F1  UNK     1      37.805  -6.804  33.815  1.00  0.00    -0.164 F 
HETATM   36  F2  UNK     1      36.444  -6.411  35.472  1.00  0.00    -0.164 F 
HETATM   37  F3  UNK     1      37.034  -8.457  35.008  1.00  0.00    -0.164 F 
ENDBRANCH  10  34
BRANCH  11  38
HETATM   38  O3  UNK     1      36.769  -8.605  31.880  1.00  0.00    -0.304 OA
BRANCH  38  39
HETATM   39  C21 UNK     1      37.051  -9.862  32.337  1.00  0.00     0.076 A 
HETATM   40  C24 UNK     1      38.372 -10.236  32.580  1.00  0.00     0.039 A 
HETATM   41  C28 UNK     1      38.659 -11.520  33.043  1.00  0.00     0.026 A 
HETATM   42  C29 UNK     1      37.626 -12.430  33.265  1.00  0.00     0.034 A 
HETATM   43  C27 UNK     1      36.304 -12.056  33.022  1.00  0.00     0.026 A 
HETATM   44 Cl1  UNK     1      37.979 -14.013  33.839  1.00  0.00    -0.084 Cl
HETATM   45  C23 UNK     1      36.016 -10.772  32.557  1.00  0.00     0.039 A 
ENDBRANCH  38  39
ENDBRANCH  11  38
TORSDOF 13
ENDMDL
MODEL 9
REMARK VINA RESULT:      -7.7      3.836      6.493
REMARK  13 active torsions:
REMARK  status: ('A' for Active; 'I' for Inactive)
REMARK    1  A    between atoms: C12_22  and  O2_6 
REMARK    2  A    between atoms: C20_30  and  O2_6 
REMARK    3  A    between atoms: C18_28  and  O3_7 
REMARK    4  A    between atoms: C21_31  and  O3_7 
REMARK    5  A    between atoms: C1_11  and  N1_10 
REMARK    6  A    between atoms: C2_12  and  N1_10 
REMARK    7  A    between atoms: C5_15  and  N1_10 
REMARK    8  A    between atoms: C1_11  and  C3_13 
REMARK    9  A    between atoms: C2_12  and  C4_14 
REMARK   10  A    between atoms: C5_15  and  C6_16 
REMARK   11  A    between atoms: C17_27  and  C19_29 
REMARK   12  A    between atoms: C20_30  and  C22_32 
REMARK   13  A    between atoms: C25_35  and  C26_36 
ROOT
HETATM    1  O1  UNK     1      33.177  -8.115  35.232  1.00  0.00    -0.301 OA
HETATM    2  O4  UNK     1      30.856  -9.931  38.043  1.00  0.00    -0.284 OA
HETATM    3  C6  UNK     1      33.076 -10.008  33.825  1.00  0.00     0.039 A 
HETATM    4  C11 UNK     1      32.715  -9.388  35.022  1.00  0.00     0.101 A 
HETATM    5  C12 UNK     1      32.638 -11.304  33.554  1.00  0.00     0.090 A 
HETATM    6  C13 UNK     1      31.918 -10.065  35.943  1.00  0.00     0.052 A 
HETATM    7  C14 UNK     1      31.840 -11.980  34.477  1.00  0.00     0.039 A 
HETATM    8  C15 UNK     1      31.477 -11.363  35.675  1.00  0.00     0.021 A 
HETATM    9  C16 UNK     1      31.551  -9.388  37.196  1.00  0.00     0.221 A 
HETATM   10  C17 UNK     1      32.836  -7.468  36.410  1.00  0.00     0.197 A 
HETATM   11  C18 UNK     1      32.074  -8.013  37.375  1.00  0.00     0.165 A 
ENDROOT
BRANCH   5  12
HETATM   12  O2  UNK     1      32.980 -11.927  32.391  1.00  0.00    -0.275 OA
BRANCH  12  13
HETATM   13  C20 UNK     1      31.901 -12.519  31.724  1.00  0.00     0.288 C 
HETATM   14  O5  UNK     1      31.892 -13.626  31.208  1.00  0.00    -0.260 OA
BRANCH  13  15
HETATM   15  C22 UNK     1      30.764 -11.571  31.748  1.00  0.00     0.083 C 
HETATM   16  C25 UNK     1      30.551 -10.768  30.695  1.00  0.00     0.017 C 
BRANCH  16  17
HETATM   17  C26 UNK     1      29.464  -9.778  30.605  1.00  0.00    -0.036 A 
HETATM   18  C30 UNK     1      28.927  -9.224  31.767  1.00  0.00     0.012 A 
HETATM   19  C33 UNK     1      27.897  -8.286  31.682  1.00  0.00     0.007 A 
HETATM   20  C32 UNK     1      27.405  -7.903  30.434  1.00  0.00    -0.062 A 
HETATM   21  C34 UNK     1      27.942  -8.458  29.272  1.00  0.00     0.007 A 
HETATM   22  C35 UNK     1      26.304  -6.901  30.343  1.00  0.00     0.048 C 
HETATM   23  C31 UNK     1      28.971  -9.395  29.357  1.00  0.00     0.012 A 
ENDBRANCH  16  17
ENDBRANCH  13  15
ENDBRANCH  12  13
ENDBRANCH   5  12
BRANCH   3  24
HETATM   24  C5  UNK     1      33.932  -9.290  32.830  1.00  0.00     0.316 C 
BRANCH  24  25
HETATM   25  N1  UNK     1      33.154  -8.750  31.717  1.00  0.00     0.093 N 
BRANCH  25  26
HETATM   26  C1  UNK     1      33.818  -9.031  30.445  1.00  0.00     0.276 C 
BRANCH  26  27
HETATM   27  C3  UNK     1      33.500  -7.976  29.371  1.00  0.00     0.006 C 
HETATM   28  C8  UNK     1      34.795  -7.532  28.685  1.00  0.00     0.011 C 
HETATM   29  C7  UNK     1      32.511  -8.487  28.320  1.00  0.00     0.011 C 
ENDBRANCH  26  27
ENDBRANCH  25  26
BRANCH  25  30
HETATM   30  C2  UNK     1      32.956  -7.311  31.884  1.00  0.00     0.276 C 
BRANCH  30  31
HETATM   31  C4  UNK     1      31.476  -6.942  32.090  1.00  0.00     0.006 C 
HETATM   32  C10 UNK     1      31.339  -6.013  33.299  1.00  0.00     0.011 C 
HETATM   33  C9  UNK     1      30.860  -6.275  30.856  1.00  0.00     0.011 C 
ENDBRANCH  30  31
ENDBRANCH  25  30
ENDBRANCH  24  25
ENDBRANCH   3  24
BRANCH  10  34
HETATM   34  C19 UNK     1      33.412  -6.086  36.496  1.00  0.00     0.442 C 
HETATM   35  F1  UNK     1      32.455  -5.155  36.318  1.00  0.00    -0.164 F 
HETATM   36  F2  UNK     1      33.981  -5.874  37.700  1.00  0.00    -0.164 F 
HETATM   37  F3  UNK     1      34.356  -5.897  35.553  1.00  0.00    -0.164 F 
ENDBRANCH  10  34
BRANCH  11  38
HETATM   38  O3  UNK     1      31.754  -7.342  38.535  1.00  0.00    -0.304 OA
BRANCH  38  39
HETATM   39  C21 UNK     1      30.546  -6.702  38.565  1.00  0.00     0.076 A 
HETATM   40  C24 UNK     1      30.495  -5.308  38.577  1.00  0.00     0.039 A 
HETATM   41  C28 UNK     1      29.263  -4.655  38.612  1.00  0.00     0.026 A 
HETATM   42  C29 UNK     1      28.082  -5.396  38.632  1.00  0.00     0.034 A 
HETATM   43  C27 UNK     1      28.132  -6.790  38.620  1.00  0.00     0.026 A 
HETATM   44 Cl1  UNK     1      26.561  -4.591  38.671  1.00  0.00    -0.084 Cl
HETATM   45  C23 UNK     1      29.364  -7.443  38.587  1.00  0.00     0.039 A 
ENDBRANCH  38  39
ENDBRANCH  11  38
TORSDOF 13
ENDMDL
MODEL 10
REMARK VINA RESULT:      -7.6      4.829      9.258
REMARK  13 active torsions:
REMARK  status: ('A' for Active; 'I' for Inactive)
REMARK    1  A    between atoms: C12_22  and  O2_6 
REMARK    2  A    between atoms: C20_30  and  O2_6 
REMARK    3  A    between atoms: C18_28  and  O3_7 
REMARK    4  A    between atoms: C21_31  and  O3_7 
REMARK    5  A    between atoms: C1_11  and  N1_10 
REMARK    6  A    between atoms: C2_12  and  N1_10 
REMARK    7  A    between atoms: C5_15  and  N1_10 
REMARK    8  A    between atoms: C1_11  and  C3_13 
REMARK    9  A    between atoms: C2_12  and  C4_14 
REMARK   10  A    between atoms: C5_15  and  C6_16 
REMARK   11  A    between atoms: C17_27  and  C19_29 
REMARK   12  A    between atoms: C20_30  and  C22_32 
REMARK   13  A    between atoms: C25_35  and  C26_36 
ROOT
HETATM    1  O1  UNK     1      33.826  -6.893  32.723  1.00  0.00    -0.301 OA
HETATM    2  O4  UNK     1      37.410  -7.801  34.430  1.00  0.00    -0.284 OA
HETATM    3  C6  UNK     1      33.098  -5.785  34.676  1.00  0.00     0.039 A 
HETATM    4  C11 UNK     1      34.095  -6.497  34.008  1.00  0.00     0.101 A 
HETATM    5  C12 UNK     1      33.311  -5.354  35.986  1.00  0.00     0.090 A 
HETATM    6  C13 UNK     1      35.300  -6.775  34.649  1.00  0.00     0.052 A 
HETATM    7  C14 UNK     1      34.518  -5.634  36.626  1.00  0.00     0.039 A 
HETATM    8  C15 UNK     1      35.517  -6.345  35.960  1.00  0.00     0.021 A 
HETATM    9  C16 UNK     1      36.334  -7.525  33.921  1.00  0.00     0.221 A 
HETATM   10  C17 UNK     1      34.795  -7.602  32.028  1.00  0.00     0.197 A 
HETATM   11  C18 UNK     1      35.996  -7.931  32.536  1.00  0.00     0.165 A 
ENDROOT
BRANCH   5  12
HETATM   12  O2  UNK     1      32.350  -4.658  36.656  1.00  0.00    -0.275 OA
BRANCH  12  13
HETATM   13  C20 UNK     1      32.034  -5.190  37.912  1.00  0.00     0.288 C 
HETATM   14  O5  UNK     1      32.382  -4.743  38.993  1.00  0.00    -0.260 OA
BRANCH  13  15
HETATM   15  C22 UNK     1      31.197  -6.395  37.707  1.00  0.00     0.083 C 
HETATM   16  C25 UNK     1      29.863  -6.298  37.810  1.00  0.00     0.017 C 
BRANCH  16  17
HETATM   17  C26 UNK     1      28.928  -7.424  37.641  1.00  0.00    -0.036 A 
HETATM   18  C30 UNK     1      29.060  -8.566  38.431  1.00  0.00     0.012 A 
HETATM   19  C33 UNK     1      28.175  -9.632  38.270  1.00  0.00     0.007 A 
HETATM   20  C32 UNK     1      27.157  -9.555  37.319  1.00  0.00    -0.062 A 
HETATM   21  C34 UNK     1      27.026  -8.414  36.528  1.00  0.00     0.007 A 
HETATM   22  C35 UNK     1      26.211 -10.695  37.147  1.00  0.00     0.048 C 
HETATM   23  C31 UNK     1      27.911  -7.348  36.689  1.00  0.00     0.012 A 
ENDBRANCH  16  17
ENDBRANCH  13  15
ENDBRANCH  12  13
ENDBRANCH   5  12
BRANCH   3  24
HETATM   24  C5  UNK     1      31.800  -5.481  33.997  1.00  0.00     0.316 C 
BRANCH  24  25
HETATM   25  N1  UNK     1      30.746  -6.423  34.371  1.00  0.00     0.093 N 
BRANCH  25  26
HETATM   26  C1  UNK     1      31.084  -7.773  33.925  1.00  0.00     0.276 C 
BRANCH  26  27
HETATM   27  C3  UNK     1      30.930  -8.818  35.044  1.00  0.00     0.006 C 
HETATM   28  C8  UNK     1      29.968  -9.920  34.591  1.00  0.00     0.011 C 
HETATM   29  C7  UNK     1      32.267  -9.440  35.455  1.00  0.00     0.011 C 
ENDBRANCH  26  27
ENDBRANCH  25  26
BRANCH  25  30
HETATM   30  C2  UNK     1      29.463  -6.004  33.806  1.00  0.00     0.276 C 
BRANCH  30  31
HETATM   31  C4  UNK     1      29.290  -6.455  32.345  1.00  0.00     0.006 C 
HETATM   32  C10 UNK     1      27.951  -7.177  32.182  1.00  0.00     0.011 C 
HETATM   33  C9  UNK     1      29.367  -5.286  31.357  1.00  0.00     0.011 C 
ENDBRANCH  30  31
ENDBRANCH  25  30
ENDBRANCH  24  25
ENDBRANCH   3  24
BRANCH  10  34
HETATM   34  C19 UNK     1      34.358  -7.964  30.641  1.00  0.00     0.442 C 
HETATM   35  F1  UNK     1      35.237  -7.512  29.726  1.00  0.00    -0.164 F 
HETATM   36  F2  UNK     1      34.262  -9.302  30.499  1.00  0.00    -0.164 F 
HETATM   37  F3  UNK     1      33.153  -7.430  30.358  1.00  0.00    -0.164 F 
ENDBRANCH  10  34
BRANCH  11  38
HETATM   38  O3  UNK     1      36.937  -8.635  31.817  1.00  0.00    -0.304 OA
BRANCH  38  39
HETATM   39  C21 UNK     1      37.200  -9.912  32.228  1.00  0.00     0.076 A 
HETATM   40  C24 UNK     1      36.152 -10.767  32.568  1.00  0.00     0.039 A 
HETATM   41  C28 UNK     1      36.422 -12.069  32.990  1.00  0.00     0.026 A 
HETATM   42  C29 UNK     1      37.740 -12.517  33.071  1.00  0.00     0.034 A 
HETATM   43  C27 UNK     1      38.789 -11.663  32.730  1.00  0.00     0.026 A 
HETATM   44 Cl1  UNK     1      38.073 -14.124  33.588  1.00  0.00    -0.084 Cl
HETATM   45  C23 UNK     1      38.519 -10.360  32.310  1.00  0.00     0.039 A 
ENDBRANCH  38  39
ENDBRANCH  11  38
TORSDOF 13
ENDMDL
