MODEL 1
REMARK VINA RESULT:      -8.1      0.000      0.000
REMARK  5 active torsions:
REMARK  status: ('A' for Active; 'I' for Inactive)
REMARK    1  A    between atoms: C16_22  and  O2_3 
REMARK    2  A    between atoms: C8_14  and  O2_3 
REMARK    3  A    between atoms: C17_23  and  O4_5 
REMARK    4  A    between atoms: C2_8  and  C4_10 
REMARK    5  A    between atoms: C16_22  and  C17_23 
ROOT
HETATM    1 Cl1  UNK     1      18.270   1.674  37.282  1.00  0.00    -0.081 Cl
HETATM    2  O1  UNK     1      18.445   1.645  31.386  1.00  0.00    -0.275 OA
HETATM    3  O3  UNK     1      18.469   2.778  29.399  1.00  0.00    -0.260 OA
HETATM    4  C1  UNK     1      18.345   2.908  33.470  1.00  0.00     0.011 A 
HETATM    5  C2  UNK     1      18.329   4.160  32.698  1.00  0.00    -0.007 A 
HETATM    6  C3  UNK     1      18.403   1.692  32.792  1.00  0.00     0.093 A 
HETATM    7  C5  UNK     1      18.304   2.878  34.870  1.00  0.00     0.042 A 
HETATM    8  C6  UNK     1      18.422   0.468  33.463  1.00  0.00     0.076 A 
HETATM    9  C7  UNK     1      18.370   4.082  31.358  1.00  0.00     0.095 A 
HETATM   10  C8  UNK     1      18.381   0.456  34.854  1.00  0.00     0.093 A 
HETATM   11  C9  UNK     1      18.322   1.659  35.557  1.00  0.00     0.068 A 
HETATM   12  C10 UNK     1      18.430   2.804  30.625  1.00  0.00     0.289 A 
ENDROOT
BRANCH   5  13
HETATM   13  C4  UNK     1      18.270   5.510  33.250  1.00  0.00    -0.025 A 
HETATM   14  C11 UNK     1      17.046   6.171  33.329  1.00  0.00     0.012 A 
HETATM   15  C13 UNK     1      16.989   7.462  33.855  1.00  0.00     0.001 A 
HETATM   16  C15 UNK     1      18.153   8.087  34.300  1.00  0.00     0.000 A 
HETATM   17  C14 UNK     1      19.377   7.421  34.220  1.00  0.00     0.001 A 
HETATM   18  C12 UNK     1      19.434   6.130  33.692  1.00  0.00     0.012 A 
ENDBRANCH   5  13
BRANCH  10  19
HETATM   19  O2  UNK     1      18.400  -0.742  35.502  1.00  0.00    -0.340 OA
BRANCH  19  20
HETATM   20  C16 UNK     1      19.171  -1.785  34.912  1.00  0.00     0.286 C 
BRANCH  20  21
HETATM   21  C17 UNK     1      20.389  -2.031  35.763  1.00  0.00     0.282 C 
HETATM   22  O5  UNK     1      21.543  -1.828  35.410  1.00  0.00    -0.263 OA
BRANCH  21  23
HETATM   23  O4  UNK     1      19.993  -2.511  36.978  1.00  0.00    -0.325 OA
HETATM   24  C18 UNK     1      20.353  -3.869  37.252  1.00  0.00     0.213 C 
ENDBRANCH  21  23
ENDBRANCH  20  21
ENDBRANCH  19  20
ENDBRANCH  10  19
TORSDOF 5
ENDMDL
MODEL 2
REMARK VINA RESULT:      -7.8      1.721      2.252
REMARK  5 active torsions:
REMARK  status: ('A' for Active; 'I' for Inactive)
REMARK    1  A    between atoms: C16_22  and  O2_3 
REMARK    2  A    between atoms: C8_14  and  O2_3 
REMARK    3  A    between atoms: C17_23  and  O4_5 
REMARK    4  A    between atoms: C2_8  and  C4_10 
REMARK    5  A    between atoms: C16_22  and  C17_23 
ROOT
HETATM    1 Cl1  UNK     1      17.655   1.554  36.120  1.00  0.00    -0.081 Cl
HETATM    2  O1  UNK     1      19.218  -0.331  30.754  1.00  0.00    -0.275 OA
HETATM    3  O3  UNK     1      19.689   0.108  28.560  1.00  0.00    -0.260 OA
HETATM    4  C1  UNK     1      18.606   1.514  32.228  1.00  0.00     0.011 A 
HETATM    5  C2  UNK     1      18.751   2.448  31.101  1.00  0.00    -0.007 A 
HETATM    6  C3  UNK     1      18.844   0.156  32.020  1.00  0.00     0.093 A 
HETATM    7  C5  UNK     1      18.237   1.927  33.514  1.00  0.00     0.042 A 
HETATM    8  C6  UNK     1      18.725  -0.783  33.046  1.00  0.00     0.076 A 
HETATM    9  C7  UNK     1      19.108   1.952  29.905  1.00  0.00     0.095 A 
HETATM   10  C8  UNK     1      18.358  -0.356  34.318  1.00  0.00     0.093 A 
HETATM   11  C9  UNK     1      18.113   0.997  34.553  1.00  0.00     0.068 A 
HETATM   12  C10 UNK     1      19.362   0.519  29.668  1.00  0.00     0.289 A 
ENDROOT
BRANCH   5  13
HETATM   13  C4  UNK     1      18.539   3.892  31.147  1.00  0.00    -0.025 A 
HETATM   14  C11 UNK     1      17.727   4.440  32.138  1.00  0.00     0.012 A 
HETATM   15  C13 UNK     1      17.525   5.819  32.182  1.00  0.00     0.001 A 
HETATM   16  C15 UNK     1      18.134   6.645  31.238  1.00  0.00     0.000 A 
HETATM   17  C14 UNK     1      18.947   6.092  30.248  1.00  0.00     0.001 A 
HETATM   18  C12 UNK     1      19.149   4.712  30.203  1.00  0.00     0.012 A 
ENDBRANCH   5  13
BRANCH  10  19
HETATM   19  O2  UNK     1      18.243  -1.279  35.314  1.00  0.00    -0.340 OA
BRANCH  19  20
HETATM   20  C16 UNK     1      19.405  -1.527  36.102  1.00  0.00     0.286 C 
BRANCH  20  21
HETATM   21  C17 UNK     1      19.898  -2.921  35.817  1.00  0.00     0.282 C 
HETATM   22  O5  UNK     1      20.520  -3.254  34.817  1.00  0.00    -0.263 OA
BRANCH  21  23
HETATM   23  O4  UNK     1      19.540  -3.739  36.851  1.00  0.00    -0.325 OA
HETATM   24  C18 UNK     1      19.501  -5.137  36.545  1.00  0.00     0.213 C 
ENDBRANCH  21  23
ENDBRANCH  20  21
ENDBRANCH  19  20
ENDBRANCH  10  19
TORSDOF 5
ENDMDL
MODEL 3
REMARK VINA RESULT:      -7.5     14.211     16.300
REMARK  5 active torsions:
REMARK  status: ('A' for Active; 'I' for Inactive)
REMARK    1  A    between atoms: C16_22  and  O2_3 
REMARK    2  A    between atoms: C8_14  and  O2_3 
REMARK    3  A    between atoms: C17_23  and  O4_5 
REMARK    4  A    between atoms: C2_8  and  C4_10 
REMARK    5  A    between atoms: C16_22  and  C17_23 
ROOT
HETATM    1 Cl1  UNK     1      31.794  -7.377  33.638  1.00  0.00    -0.081 Cl
HETATM    2  O1  UNK     1      30.522  -3.938  38.259  1.00  0.00    -0.275 OA
HETATM    3  O3  UNK     1      29.326  -3.549  40.168  1.00  0.00    -0.260 OA
HETATM    4  C1  UNK     1      30.130  -5.998  37.013  1.00  0.00     0.011 A 
HETATM    5  C2  UNK     1      29.120  -6.394  38.006  1.00  0.00    -0.007 A 
HETATM    6  C3  UNK     1      30.800  -4.785  37.170  1.00  0.00     0.093 A 
HETATM    7  C5  UNK     1      30.457  -6.790  35.905  1.00  0.00     0.042 A 
HETATM    8  C6  UNK     1      31.769  -4.351  36.265  1.00  0.00     0.076 A 
HETATM    9  C7  UNK     1      28.879  -5.563  39.034  1.00  0.00     0.095 A 
HETATM   10  C8  UNK     1      32.082  -5.150  35.169  1.00  0.00     0.093 A 
HETATM   11  C9  UNK     1      31.427  -6.368  34.989  1.00  0.00     0.068 A 
HETATM   12  C10 UNK     1      29.576  -4.277  39.214  1.00  0.00     0.289 A 
ENDROOT
BRANCH   5  13
HETATM   13  C4  UNK     1      28.333  -7.623  37.990  1.00  0.00    -0.025 A 
HETATM   14  C11 UNK     1      27.261  -7.745  37.108  1.00  0.00     0.012 A 
HETATM   15  C13 UNK     1      26.508  -8.919  37.093  1.00  0.00     0.001 A 
HETATM   16  C15 UNK     1      26.828  -9.965  37.958  1.00  0.00     0.000 A 
HETATM   17  C14 UNK     1      27.902  -9.839  38.839  1.00  0.00     0.001 A 
HETATM   18  C12 UNK     1      28.655  -8.664  38.855  1.00  0.00     0.012 A 
ENDBRANCH   5  13
BRANCH  10  19
HETATM   19  O2  UNK     1      33.030  -4.719  34.290  1.00  0.00    -0.340 OA
BRANCH  19  20
HETATM   20  C16 UNK     1      34.289  -4.331  34.835  1.00  0.00     0.286 C 
BRANCH  20  21
HETATM   21  C17 UNK     1      35.085  -5.570  35.150  1.00  0.00     0.282 C 
HETATM   22  O5  UNK     1      35.372  -6.442  34.341  1.00  0.00    -0.263 OA
BRANCH  21  23
HETATM   23  O4  UNK     1      35.428  -5.553  36.471  1.00  0.00    -0.325 OA
HETATM   24  C18 UNK     1      34.608  -6.351  37.331  1.00  0.00     0.213 C 
ENDBRANCH  21  23
ENDBRANCH  20  21
ENDBRANCH  19  20
ENDBRANCH  10  19
TORSDOF 5
ENDMDL
MODEL 4
REMARK VINA RESULT:      -7.5     24.861     26.943
REMARK  5 active torsions:
REMARK  status: ('A' for Active; 'I' for Inactive)
REMARK    1  A    between atoms: C16_22  and  O2_3 
REMARK    2  A    between atoms: C8_14  and  O2_3 
REMARK    3  A    between atoms: C17_23  and  O4_5 
REMARK    4  A    between atoms: C2_8  and  C4_10 
REMARK    5  A    between atoms: C16_22  and  C17_23 
ROOT
HETATM    1 Cl1  UNK     1      14.199  11.632   9.227  1.00  0.00    -0.081 Cl
HETATM    2  O1  UNK     1      16.212   6.146  10.023  1.00  0.00    -0.275 OA
HETATM    3  O3  UNK     1      15.948   3.886   9.794  1.00  0.00    -0.260 OA
HETATM    4  C1  UNK     1      14.467   7.634   9.195  1.00  0.00     0.011 A 
HETATM    5  C2  UNK     1      13.694   6.464   8.752  1.00  0.00    -0.007 A 
HETATM    6  C3  UNK     1      15.700   7.440   9.815  1.00  0.00     0.093 A 
HETATM    7  C5  UNK     1      14.019   8.950   9.022  1.00  0.00     0.042 A 
HETATM    8  C6  UNK     1      16.484   8.506  10.259  1.00  0.00     0.076 A 
HETATM    9  C7  UNK     1      14.211   5.242   8.965  1.00  0.00     0.095 A 
HETATM   10  C8  UNK     1      16.024   9.807  10.079  1.00  0.00     0.093 A 
HETATM   11  C9  UNK     1      14.793  10.030   9.461  1.00  0.00     0.068 A 
HETATM   12  C10 UNK     1      15.512   5.019   9.620  1.00  0.00     0.289 A 
ENDROOT
BRANCH   5  13
HETATM   13  C4  UNK     1      12.393   6.492   8.091  1.00  0.00    -0.025 A 
HETATM   14  C11 UNK     1      12.325   6.520   6.699  1.00  0.00     0.012 A 
HETATM   15  C13 UNK     1      11.082   6.547   6.067  1.00  0.00     0.001 A 
HETATM   16  C15 UNK     1       9.913   6.545   6.826  1.00  0.00     0.000 A 
HETATM   17  C14 UNK     1       9.985   6.516   8.219  1.00  0.00     0.001 A 
HETATM   18  C12 UNK     1      11.228   6.490   8.852  1.00  0.00     0.012 A 
ENDBRANCH   5  13
BRANCH  10  19
HETATM   19  O2  UNK     1      16.795  10.843  10.515  1.00  0.00    -0.340 OA
BRANCH  19  20
HETATM   20  C16 UNK     1      18.172  10.824  10.148  1.00  0.00     0.286 C 
BRANCH  20  21
HETATM   21  C17 UNK     1      18.309  11.353   8.744  1.00  0.00     0.282 C 
HETATM   22  O5  UNK     1      19.012  10.857   7.874  1.00  0.00    -0.263 OA
BRANCH  21  23
HETATM   23  O4  UNK     1      17.525  12.462   8.609  1.00  0.00    -0.325 OA
HETATM   24  C18 UNK     1      17.068  12.737   7.281  1.00  0.00     0.213 C 
ENDBRANCH  21  23
ENDBRANCH  20  21
ENDBRANCH  19  20
ENDBRANCH  10  19
TORSDOF 5
ENDMDL
MODEL 5
REMARK VINA RESULT:      -7.4      6.760      9.707
REMARK  5 active torsions:
REMARK  status: ('A' for Active; 'I' for Inactive)
REMARK    1  A    between atoms: C16_22  and  O2_3 
REMARK    2  A    between atoms: C8_14  and  O2_3 
REMARK    3  A    between atoms: C17_23  and  O4_5 
REMARK    4  A    between atoms: C2_8  and  C4_10 
REMARK    5  A    between atoms: C16_22  and  C17_23 
ROOT
HETATM    1 Cl1  UNK     1      18.633  12.065  34.703  1.00  0.00    -0.081 Cl
HETATM    2  O1  UNK     1      14.253   8.563  32.872  1.00  0.00    -0.275 OA
HETATM    3  O3  UNK     1      13.547   6.616  31.903  1.00  0.00    -0.260 OA
HETATM    4  C1  UNK     1      16.646   8.959  33.134  1.00  0.00     0.011 A 
HETATM    5  C2  UNK     1      16.918   7.656  32.508  1.00  0.00    -0.007 A 
HETATM    6  C3  UNK     1      15.324   9.371  33.298  1.00  0.00     0.093 A 
HETATM    7  C5  UNK     1      17.661   9.814  33.580  1.00  0.00     0.042 A 
HETATM    8  C6  UNK     1      14.996  10.594  33.885  1.00  0.00     0.076 A 
HETATM    9  C7  UNK     1      15.874   6.909  32.113  1.00  0.00     0.095 A 
HETATM   10  C8  UNK     1      16.016  11.432  34.322  1.00  0.00     0.093 A 
HETATM   11  C9  UNK     1      17.347  11.044  34.170  1.00  0.00     0.068 A 
HETATM   12  C10 UNK     1      14.471   7.330  32.277  1.00  0.00     0.289 A 
ENDROOT
BRANCH   5  13
HETATM   13  C4  UNK     1      18.236   7.078  32.263  1.00  0.00    -0.025 A 
HETATM   14  C11 UNK     1      19.195   7.090  33.274  1.00  0.00     0.012 A 
HETATM   15  C13 UNK     1      20.454   6.538  33.040  1.00  0.00     0.001 A 
HETATM   16  C15 UNK     1      20.751   5.976  31.799  1.00  0.00     0.000 A 
HETATM   17  C14 UNK     1      19.788   5.966  30.789  1.00  0.00     0.001 A 
HETATM   18  C12 UNK     1      18.528   6.518  31.022  1.00  0.00     0.012 A 
ENDBRANCH   5  13
BRANCH  10  19
HETATM   19  O2  UNK     1      15.688  12.625  34.894  1.00  0.00    -0.340 OA
BRANCH  19  20
HETATM   20  C16 UNK     1      14.469  12.675  35.633  1.00  0.00     0.286 C 
BRANCH  20  21
HETATM   21  C17 UNK     1      14.754  12.311  37.066  1.00  0.00     0.282 C 
HETATM   22  O5  UNK     1      15.441  12.972  37.833  1.00  0.00    -0.263 OA
BRANCH  21  23
HETATM   23  O4  UNK     1      14.123  11.137  37.361  1.00  0.00    -0.325 OA
HETATM   24  C18 UNK     1      13.466  11.092  38.632  1.00  0.00     0.213 C 
ENDBRANCH  21  23
ENDBRANCH  20  21
ENDBRANCH  19  20
ENDBRANCH  10  19
TORSDOF 5
ENDMDL
MODEL 6
REMARK VINA RESULT:      -7.4     24.855     26.866
REMARK  5 active torsions:
REMARK  status: ('A' for Active; 'I' for Inactive)
REMARK    1  A    between atoms: C16_22  and  O2_3 
REMARK    2  A    between atoms: C8_14  and  O2_3 
REMARK    3  A    between atoms: C17_23  and  O4_5 
REMARK    4  A    between atoms: C2_8  and  C4_10 
REMARK    5  A    between atoms: C16_22  and  C17_23 
ROOT
HETATM    1 Cl1  UNK     1      14.268  11.667   9.298  1.00  0.00    -0.081 Cl
HETATM    2  O1  UNK     1      16.265   6.164  10.019  1.00  0.00    -0.275 OA
HETATM    3  O3  UNK     1      15.989   3.908   9.769  1.00  0.00    -0.260 OA
HETATM    4  C1  UNK     1      14.518   7.669   9.223  1.00  0.00     0.011 A 
HETATM    5  C2  UNK     1      13.736   6.506   8.775  1.00  0.00    -0.007 A 
HETATM    6  C3  UNK     1      15.756   7.463   9.829  1.00  0.00     0.093 A 
HETATM    7  C5  UNK     1      14.074   8.988   9.067  1.00  0.00     0.042 A 
HETATM    8  C6  UNK     1      16.549   8.521  10.276  1.00  0.00     0.076 A 
HETATM    9  C7  UNK     1      14.250   5.280   8.971  1.00  0.00     0.095 A 
HETATM   10  C8  UNK     1      16.093   9.825  10.114  1.00  0.00     0.093 A 
HETATM   11  C9  UNK     1      14.858  10.060   9.511  1.00  0.00     0.068 A 
HETATM   12  C10 UNK     1      15.556   5.044   9.611  1.00  0.00     0.289 A 
ENDROOT
BRANCH   5  13
HETATM   13  C4  UNK     1      12.429   6.546   8.127  1.00  0.00    -0.025 A 
HETATM   14  C11 UNK     1      11.274   6.597   8.904  1.00  0.00     0.012 A 
HETATM   15  C13 UNK     1      10.024   6.635   8.284  1.00  0.00     0.001 A 
HETATM   16  C15 UNK     1       9.934   6.622   6.893  1.00  0.00     0.000 A 
HETATM   17  C14 UNK     1      11.093   6.572   6.119  1.00  0.00     0.001 A 
HETATM   18  C12 UNK     1      12.343   6.534   6.738  1.00  0.00     0.012 A 
ENDBRANCH   5  13
BRANCH  10  19
HETATM   19  O2  UNK     1      16.873  10.854  10.553  1.00  0.00    -0.340 OA
BRANCH  19  20
HETATM   20  C16 UNK     1      18.211  10.905  10.065  1.00  0.00     0.286 C 
BRANCH  20  21
HETATM   21  C17 UNK     1      18.212  11.577   8.717  1.00  0.00     0.282 C 
HETATM   22  O5  UNK     1      17.390  12.404   8.346  1.00  0.00    -0.263 OA
BRANCH  21  23
HETATM   23  O4  UNK     1      19.272  11.114   7.991  1.00  0.00    -0.325 OA
HETATM   24  C18 UNK     1      20.490  11.850   8.140  1.00  0.00     0.213 C 
ENDBRANCH  21  23
ENDBRANCH  20  21
ENDBRANCH  19  20
ENDBRANCH  10  19
TORSDOF 5
ENDMDL
MODEL 7
REMARK VINA RESULT:      -7.3     11.587     14.988
REMARK  5 active torsions:
REMARK  status: ('A' for Active; 'I' for Inactive)
REMARK    1  A    between atoms: C16_22  and  O2_3 
REMARK    2  A    between atoms: C8_14  and  O2_3 
REMARK    3  A    between atoms: C17_23  and  O4_5 
REMARK    4  A    between atoms: C2_8  and  C4_10 
REMARK    5  A    between atoms: C16_22  and  C17_23 
ROOT
HETATM    1 Cl1  UNK     1      26.852  -9.959  36.221  1.00  0.00    -0.081 Cl
HETATM    2  O1  UNK     1      28.067  -5.107  39.346  1.00  0.00    -0.275 OA
HETATM    3  O3  UNK     1      29.548  -3.494  40.004  1.00  0.00    -0.260 OA
HETATM    4  C1  UNK     1      28.813  -6.846  37.807  1.00  0.00     0.011 A 
HETATM    5  C2  UNK     1      30.150  -6.234  37.780  1.00  0.00    -0.007 A 
HETATM    6  C3  UNK     1      27.814  -6.265  38.587  1.00  0.00     0.093 A 
HETATM    7  C5  UNK     1      28.490  -7.997  37.077  1.00  0.00     0.042 A 
HETATM    8  C6  UNK     1      26.524  -6.793  38.656  1.00  0.00     0.076 A 
HETATM    9  C7  UNK     1      30.359  -5.130  38.517  1.00  0.00     0.095 A 
HETATM   10  C8  UNK     1      26.220  -7.938  37.925  1.00  0.00     0.093 A 
HETATM   11  C9  UNK     1      27.201  -8.539  37.136  1.00  0.00     0.068 A 
HETATM   12  C10 UNK     1      29.315  -4.504  39.348  1.00  0.00     0.289 A 
ENDROOT
BRANCH   5  13
HETATM   13  C4  UNK     1      31.301  -6.714  37.022  1.00  0.00    -0.025 A 
HETATM   14  C11 UNK     1      32.191  -7.609  37.610  1.00  0.00     0.012 A 
HETATM   15  C13 UNK     1      33.292  -8.068  36.885  1.00  0.00     0.001 A 
HETATM   16  C15 UNK     1      33.499  -7.630  35.577  1.00  0.00     0.000 A 
HETATM   17  C14 UNK     1      32.604  -6.733  34.992  1.00  0.00     0.001 A 
HETATM   18  C12 UNK     1      31.503  -6.274  35.717  1.00  0.00     0.012 A 
ENDBRANCH   5  13
BRANCH  10  19
HETATM   19  O2  UNK     1      24.959  -8.449  37.997  1.00  0.00    -0.340 OA
BRANCH  19  20
HETATM   20  C16 UNK     1      24.098  -7.907  38.996  1.00  0.00     0.286 C 
BRANCH  20  21
HETATM   21  C17 UNK     1      22.668  -8.090  38.559  1.00  0.00     0.282 C 
HETATM   22  O5  UNK     1      21.758  -8.472  39.281  1.00  0.00    -0.263 OA
BRANCH  21  23
HETATM   23  O4  UNK     1      22.563  -7.762  37.237  1.00  0.00    -0.325 OA
HETATM   24  C18 UNK     1      21.230  -7.544  36.761  1.00  0.00     0.213 C 
ENDBRANCH  21  23
ENDBRANCH  20  21
ENDBRANCH  19  20
ENDBRANCH  10  19
TORSDOF 5
ENDMDL
MODEL 8
REMARK VINA RESULT:      -7.3     14.487     16.815
REMARK  5 active torsions:
REMARK  status: ('A' for Active; 'I' for Inactive)
REMARK    1  A    between atoms: C16_22  and  O2_3 
REMARK    2  A    between atoms: C8_14  and  O2_3 
REMARK    3  A    between atoms: C17_23  and  O4_5 
REMARK    4  A    between atoms: C2_8  and  C4_10 
REMARK    5  A    between atoms: C16_22  and  C17_23 
ROOT
HETATM    1 Cl1  UNK     1      32.895  -9.128  35.632  1.00  0.00    -0.081 Cl
HETATM    2  O1  UNK     1      31.033  -4.521  38.810  1.00  0.00    -0.275 OA
HETATM    3  O3  UNK     1      29.395  -3.482  40.021  1.00  0.00    -0.260 OA
HETATM    4  C1  UNK     1      30.583  -6.714  37.841  1.00  0.00     0.011 A 
HETATM    5  C2  UNK     1      29.228  -6.676  38.413  1.00  0.00    -0.007 A 
HETATM    6  C3  UNK     1      31.442  -5.637  38.057  1.00  0.00     0.093 A 
HETATM    7  C5  UNK     1      31.057  -7.791  37.083  1.00  0.00     0.042 A 
HETATM    8  C6  UNK     1      32.740  -5.610  37.545  1.00  0.00     0.076 A 
HETATM    9  C7  UNK     1      28.868  -5.596  39.126  1.00  0.00     0.095 A 
HETATM   10  C8  UNK     1      33.196  -6.688  36.793  1.00  0.00     0.093 A 
HETATM   11  C9  UNK     1      32.356  -7.778  36.561  1.00  0.00     0.068 A 
HETATM   12  C10 UNK     1      29.763  -4.449  39.362  1.00  0.00     0.289 A 
ENDROOT
BRANCH   5  13
HETATM   13  C4  UNK     1      28.210  -7.713  38.282  1.00  0.00    -0.025 A 
HETATM   14  C11 UNK     1      27.563  -7.896  37.062  1.00  0.00     0.012 A 
HETATM   15  C13 UNK     1      26.589  -8.887  36.936  1.00  0.00     0.001 A 
HETATM   16  C15 UNK     1      26.265  -9.691  38.028  1.00  0.00     0.000 A 
HETATM   17  C14 UNK     1      26.916  -9.505  39.248  1.00  0.00     0.001 A 
HETATM   18  C12 UNK     1      27.890  -8.513  39.375  1.00  0.00     0.012 A 
ENDBRANCH   5  13
BRANCH  10  19
HETATM   19  O2  UNK     1      34.464  -6.654  36.295  1.00  0.00    -0.340 OA
BRANCH  19  20
HETATM   20  C16 UNK     1      35.037  -5.367  36.072  1.00  0.00     0.286 C 
BRANCH  20  21
HETATM   21  C17 UNK     1      34.785  -4.963  34.643  1.00  0.00     0.282 C 
HETATM   22  O5  UNK     1      34.703  -3.809  34.246  1.00  0.00    -0.263 OA
BRANCH  21  23
HETATM   23  O4  UNK     1      34.667  -6.088  33.878  1.00  0.00    -0.325 OA
HETATM   24  C18 UNK     1      35.673  -6.259  32.874  1.00  0.00     0.213 C 
ENDBRANCH  21  23
ENDBRANCH  20  21
ENDBRANCH  19  20
ENDBRANCH  10  19
TORSDOF 5
ENDMDL
MODEL 9
REMARK VINA RESULT:      -7.3     24.720     26.249
REMARK  5 active torsions:
REMARK  status: ('A' for Active; 'I' for Inactive)
REMARK    1  A    between atoms: C16_22  and  O2_3 
REMARK    2  A    between atoms: C8_14  and  O2_3 
REMARK    3  A    between atoms: C17_23  and  O4_5 
REMARK    4  A    between atoms: C2_8  and  C4_10 
REMARK    5  A    between atoms: C16_22  and  C17_23 
ROOT
HETATM    1 Cl1  UNK     1       9.231   8.313   8.949  1.00  0.00    -0.081 Cl
HETATM    2  O1  UNK     1      13.883   4.696   9.221  1.00  0.00    -0.275 OA
HETATM    3  O3  UNK     1      16.128   4.375   9.509  1.00  0.00    -0.260 OA
HETATM    4  C1  UNK     1      12.982   6.960   9.342  1.00  0.00     0.011 A 
HETATM    5  C2  UNK     1      14.337   7.473   9.595  1.00  0.00    -0.007 A 
HETATM    6  C3  UNK     1      12.797   5.589   9.164  1.00  0.00     0.093 A 
HETATM    7  C5  UNK     1      11.857   7.790   9.271  1.00  0.00     0.042 A 
HETATM    8  C6  UNK     1      11.538   5.036   8.922  1.00  0.00     0.076 A 
HETATM    9  C7  UNK     1      15.352   6.594   9.643  1.00  0.00     0.095 A 
HETATM   10  C8  UNK     1      10.430   5.875   8.854  1.00  0.00     0.093 A 
HETATM   11  C9  UNK     1      10.588   7.250   9.029  1.00  0.00     0.068 A 
HETATM   12  C10 UNK     1      15.174   5.143   9.455  1.00  0.00     0.289 A 
ENDROOT
BRANCH   5  13
HETATM   13  C4  UNK     1      14.703   8.871   9.801  1.00  0.00    -0.025 A 
HETATM   14  C11 UNK     1      14.911   9.701   8.701  1.00  0.00     0.012 A 
HETATM   15  C13 UNK     1      15.261  11.037   8.898  1.00  0.00     0.001 A 
HETATM   16  C15 UNK     1      15.402  11.538  10.191  1.00  0.00     0.000 A 
HETATM   17  C14 UNK     1      15.192  10.704  11.290  1.00  0.00     0.001 A 
HETATM   18  C12 UNK     1      14.843   9.367  11.094  1.00  0.00     0.012 A 
ENDBRANCH   5  13
BRANCH  10  19
HETATM   19  O2  UNK     1       9.205   5.328   8.617  1.00  0.00    -0.340 OA
BRANCH  19  20
HETATM   20  C16 UNK     1       8.465   4.881   9.752  1.00  0.00     0.286 C 
BRANCH  20  21
HETATM   21  C17 UNK     1       7.162   4.292   9.281  1.00  0.00     0.282 C 
HETATM   22  O5  UNK     1       7.057   3.377   8.476  1.00  0.00    -0.263 OA
BRANCH  21  23
HETATM   23  O4  UNK     1       6.132   4.942   9.899  1.00  0.00    -0.325 OA
HETATM   24  C18 UNK     1       5.946   4.627  11.283  1.00  0.00     0.213 C 
ENDBRANCH  21  23
ENDBRANCH  20  21
ENDBRANCH  19  20
ENDBRANCH  10  19
TORSDOF 5
ENDMDL
MODEL 10
REMARK VINA RESULT:      -7.2     24.830     26.490
REMARK  5 active torsions:
REMARK  status: ('A' for Active; 'I' for Inactive)
REMARK    1  A    between atoms: C16_22  and  O2_3 
REMARK    2  A    between atoms: C8_14  and  O2_3 
REMARK    3  A    between atoms: C17_23  and  O4_5 
REMARK    4  A    between atoms: C2_8  and  C4_10 
REMARK    5  A    between atoms: C16_22  and  C17_23 
ROOT
HETATM    1 Cl1  UNK     1      10.620  10.187   9.644  1.00  0.00    -0.081 Cl
HETATM    2  O1  UNK     1      14.244   5.540   9.384  1.00  0.00    -0.275 OA
HETATM    3  O3  UNK     1      16.356   4.668   9.471  1.00  0.00    -0.260 OA
HETATM    4  C1  UNK     1      13.940   7.944   9.668  1.00  0.00     0.011 A 
HETATM    5  C2  UNK     1      15.394   8.098   9.827  1.00  0.00    -0.007 A 
HETATM    6  C3  UNK     1      13.410   6.672   9.453  1.00  0.00     0.093 A 
HETATM    7  C5  UNK     1      13.051   9.025   9.725  1.00  0.00     0.042 A 
HETATM    8  C6  UNK     1      12.041   6.456   9.296  1.00  0.00     0.076 A 
HETATM    9  C7  UNK     1      16.162   6.998   9.756  1.00  0.00     0.095 A 
HETATM   10  C8  UNK     1      11.171   7.541   9.354  1.00  0.00     0.093 A 
HETATM   11  C9  UNK     1      11.675   8.824   9.568  1.00  0.00     0.068 A 
HETATM   12  C10 UNK     1      15.619   5.646   9.527  1.00  0.00     0.289 A 
ENDROOT
BRANCH   5  13
HETATM   13  C4  UNK     1      16.107   9.351  10.057  1.00  0.00    -0.025 A 
HETATM   14  C11 UNK     1      17.268   9.627   9.338  1.00  0.00     0.012 A 
HETATM   15  C13 UNK     1      17.950  10.824   9.557  1.00  0.00     0.001 A 
HETATM   16  C15 UNK     1      17.470  11.739  10.493  1.00  0.00     0.000 A 
HETATM   17  C14 UNK     1      16.306  11.459  11.210  1.00  0.00     0.001 A 
HETATM   18  C12 UNK     1      15.624  10.262  10.991  1.00  0.00     0.012 A 
ENDBRANCH   5  13
BRANCH  10  19
HETATM   19  O2  UNK     1       9.835   7.322   9.199  1.00  0.00    -0.340 OA
BRANCH  19  20
HETATM   20  C16 UNK     1       9.438   6.022   8.770  1.00  0.00     0.286 C 
BRANCH  20  21
HETATM   21  C17 UNK     1       8.445   6.162   7.646  1.00  0.00     0.282 C 
HETATM   22  O5  UNK     1       7.386   6.770   7.720  1.00  0.00    -0.263 OA
BRANCH  21  23
HETATM   23  O4  UNK     1       8.922   5.507   6.548  1.00  0.00    -0.325 OA
HETATM   24  C18 UNK     1       9.973   6.173   5.840  1.00  0.00     0.213 C 
ENDBRANCH  21  23
ENDBRANCH  20  21
ENDBRANCH  19  20
ENDBRANCH  10  19
TORSDOF 5
ENDMDL
