MODEL 1
REMARK VINA RESULT:      -8.3      0.000      0.000
REMARK  7 active torsions:
REMARK  status: ('A' for Active; 'I' for Inactive)
REMARK    1  A    between atoms: C9_14  and  O2_2 
REMARK    2  A    between atoms: C1_6  and  C2_7 
REMARK    3  A    between atoms: C1_6  and  C3_8 
REMARK    4  A    between atoms: C2_7  and  C4_9 
REMARK    5  A    between atoms: C3_8  and  C5_10 
REMARK    6  A    between atoms: C4_9  and  C6_11 
REMARK    7  A    between atoms: C12_17  and  C14_19 
ROOT
HETATM    1  O1  UNK     1      18.933   3.309  30.530  1.00  0.00    -0.274 OA
HETATM    2  O3  UNK     1      18.721   5.528  30.056  1.00  0.00    -0.259 OA
HETATM    3  C5  UNK     1      18.568   0.104  33.177  1.00  0.00    -0.024 A 
HETATM    4  C7  UNK     1      18.368   2.475  32.736  1.00  0.00    -0.000 A 
HETATM    5  C8  UNK     1      18.250   1.394  33.612  1.00  0.00     0.024 A 
HETATM    6  C9  UNK     1      19.004  -0.111  31.868  1.00  0.00     0.074 A 
HETATM    7  C10 UNK     1      18.804   2.243  31.438  1.00  0.00     0.092 A 
HETATM    8  C11 UNK     1      19.125   0.964  30.989  1.00  0.00     0.075 A 
HETATM    9  C12 UNK     1      18.171   4.867  32.280  1.00  0.00     0.070 A 
HETATM   10  C13 UNK     1      18.054   3.837  33.135  1.00  0.00     0.034 A 
HETATM   11  C18 UNK     1      18.624   4.622  30.879  1.00  0.00     0.301 A 
ENDROOT
BRANCH   9  12
HETATM   12  C14 UNK     1      17.867   6.220  32.673  1.00  0.00     0.091 A 
HETATM   13  N2  UNK     1      18.856   7.086  33.041  1.00  0.00    -0.229 NA
HETATM   14  C16 UNK     1      18.229   8.209  33.327  1.00  0.00     0.134 A 
HETATM   15  N1  UNK     1      16.856   8.080  33.152  1.00  0.00    -0.315 N 
HETATM   16  C19 UNK     1      18.711   9.477  33.770  1.00  0.00     0.057 A 
HETATM   17  C17 UNK     1      16.628   6.795  32.729  1.00  0.00     0.130 A 
HETATM   18  C20 UNK     1      15.950   9.110  33.382  1.00  0.00     0.099 A 
HETATM   19  C22 UNK     1      16.409  10.301  33.799  1.00  0.00     0.024 A 
HETATM   20  C21 UNK     1      17.845  10.489  34.000  1.00  0.00    -0.057 A 
HETATM   21  C23 UNK     1      18.287  11.843  34.465  1.00  0.00     0.048 C 
ENDBRANCH   9  12
BRANCH   3  22
HETATM   22  C3  UNK     1      18.433  -1.042  34.133  1.00  0.00     0.041 C 
BRANCH  22  23
HETATM   23  C1  UNK     1      18.896  -0.662  35.541  1.00  0.00     0.005 C 
BRANCH  23  24
HETATM   24  C2  UNK     1      17.908  -1.151  36.602  1.00  0.00     0.000 C 
BRANCH  24  25
HETATM   25  C4  UNK     1      17.596  -0.054  37.620  1.00  0.00    -0.000 C 
BRANCH  25  26
HETATM   26  C6  UNK     1      16.822   1.097  36.978  1.00  0.00    -0.005 C 
HETATM   27  C15 UNK     1      15.556   0.605  36.295  1.00  0.00     0.005 C 
ENDBRANCH  25  26
ENDBRANCH  24  25
ENDBRANCH  23  24
ENDBRANCH  22  23
ENDBRANCH   3  22
BRANCH   6  28
HETATM   28  O2  UNK     1      19.316  -1.366  31.432  1.00  0.00    -0.360 OA
HETATM   29  H21 UNK     1      19.869  -1.805  32.101  1.00  0.00     0.217 HD
ENDBRANCH   6  28
TORSDOF 7
ENDMDL
MODEL 2
REMARK VINA RESULT:      -8.1      0.868      1.512
REMARK  7 active torsions:
REMARK  status: ('A' for Active; 'I' for Inactive)
REMARK    1  A    between atoms: C9_14  and  O2_2 
REMARK    2  A    between atoms: C1_6  and  C2_7 
REMARK    3  A    between atoms: C1_6  and  C3_8 
REMARK    4  A    between atoms: C2_7  and  C4_9 
REMARK    5  A    between atoms: C3_8  and  C5_10 
REMARK    6  A    between atoms: C4_9  and  C6_11 
REMARK    7  A    between atoms: C12_17  and  C14_19 
ROOT
HETATM    1  O1  UNK     1      19.018   3.690  30.119  1.00  0.00    -0.274 OA
HETATM    2  O3  UNK     1      18.765   5.933  29.806  1.00  0.00    -0.259 OA
HETATM    3  C5  UNK     1      18.695   0.294  32.522  1.00  0.00    -0.024 A 
HETATM    4  C7  UNK     1      18.451   2.686  32.252  1.00  0.00    -0.000 A 
HETATM    5  C8  UNK     1      18.347   1.541  33.046  1.00  0.00     0.024 A 
HETATM    6  C9  UNK     1      19.148   0.183  31.205  1.00  0.00     0.074 A 
HETATM    7  C10 UNK     1      18.903   2.558  30.946  1.00  0.00     0.092 A 
HETATM    8  C11 UNK     1      19.254   1.322  30.409  1.00  0.00     0.075 A 
HETATM    9  C12 UNK     1      18.208   5.100  31.970  1.00  0.00     0.070 A 
HETATM   10  C13 UNK     1      18.105   4.008  32.747  1.00  0.00     0.034 A 
HETATM   11  C18 UNK     1      18.679   4.968  30.559  1.00  0.00     0.301 A 
ENDROOT
BRANCH   9  12
HETATM   12  C14 UNK     1      17.873   6.415  32.458  1.00  0.00     0.091 A 
HETATM   13  N2  UNK     1      16.590   6.879  32.406  1.00  0.00    -0.229 NA
HETATM   14  C16 UNK     1      16.649   8.088  32.927  1.00  0.00     0.134 A 
HETATM   15  N1  UNK     1      17.947   8.409  33.311  1.00  0.00    -0.315 N 
HETATM   16  C19 UNK     1      15.644   9.075  33.148  1.00  0.00     0.057 A 
HETATM   17  C17 UNK     1      18.731   7.327  33.007  1.00  0.00     0.130 A 
HETATM   18  C20 UNK     1      18.299   9.623  33.891  1.00  0.00     0.099 A 
HETATM   19  C22 UNK     1      17.349  10.548  34.097  1.00  0.00     0.024 A 
HETATM   20  C21 UNK     1      15.968  10.261  33.709  1.00  0.00    -0.057 A 
HETATM   21  C23 UNK     1      14.959  11.337  33.969  1.00  0.00     0.048 C 
ENDBRANCH   9  12
BRANCH   3  22
HETATM   22  C3  UNK     1      18.576  -0.921  33.391  1.00  0.00     0.041 C 
BRANCH  22  23
HETATM   23  C1  UNK     1      17.926  -0.594  34.736  1.00  0.00     0.005 C 
BRANCH  23  24
HETATM   24  C2  UNK     1      18.558  -1.404  35.870  1.00  0.00     0.000 C 
BRANCH  24  25
HETATM   25  C4  UNK     1      17.959  -1.025  37.225  1.00  0.00    -0.000 C 
BRANCH  25  26
HETATM   26  C6  UNK     1      17.102   0.236  37.121  1.00  0.00    -0.005 C 
HETATM   27  C15 UNK     1      17.508   1.273  38.156  1.00  0.00     0.005 C 
ENDBRANCH  25  26
ENDBRANCH  24  25
ENDBRANCH  23  24
ENDBRANCH  22  23
ENDBRANCH   3  22
BRANCH   6  28
HETATM   28  O2  UNK     1      19.490  -1.030  30.682  1.00  0.00    -0.360 OA
HETATM   29  H21 UNK     1      20.330  -1.320  31.078  1.00  0.00     0.217 HD
ENDBRANCH   6  28
TORSDOF 7
ENDMDL
MODEL 3
REMARK VINA RESULT:      -8.1     13.372     16.277
REMARK  7 active torsions:
REMARK  status: ('A' for Active; 'I' for Inactive)
REMARK    1  A    between atoms: C9_14  and  O2_2 
REMARK    2  A    between atoms: C1_6  and  C2_7 
REMARK    3  A    between atoms: C1_6  and  C3_8 
REMARK    4  A    between atoms: C2_7  and  C4_9 
REMARK    5  A    between atoms: C3_8  and  C5_10 
REMARK    6  A    between atoms: C4_9  and  C6_11 
REMARK    7  A    between atoms: C12_17  and  C14_19 
ROOT
HETATM    1  O1  UNK     1      24.347  -5.396  38.978  1.00  0.00    -0.274 OA
HETATM    2  O3  UNK     1      26.556  -4.851  38.845  1.00  0.00    -0.259 OA
HETATM    3  C5  UNK     1      21.309  -8.253  39.116  1.00  0.00    -0.024 A 
HETATM    4  C7  UNK     1      23.662  -7.722  38.926  1.00  0.00    -0.000 A 
HETATM    5  C8  UNK     1      22.635  -8.668  38.974  1.00  0.00     0.024 A 
HETATM    6  C9  UNK     1      21.001  -6.894  39.210  1.00  0.00     0.074 A 
HETATM    7  C10 UNK     1      23.338  -6.375  39.021  1.00  0.00     0.092 A 
HETATM    8  C11 UNK     1      22.020  -5.945  39.162  1.00  0.00     0.075 A 
HETATM    9  C12 UNK     1      26.035  -7.175  38.735  1.00  0.00     0.070 A 
HETATM   10  C13 UNK     1      25.058  -8.097  38.778  1.00  0.00     0.034 A 
HETATM   11  C18 UNK     1      25.695  -5.726  38.852  1.00  0.00     0.301 A 
ENDROOT
BRANCH   9  12
HETATM   12  C14 UNK     1      27.420  -7.542  38.581  1.00  0.00     0.091 A 
HETATM   13  N2  UNK     1      28.394  -6.590  38.478  1.00  0.00    -0.229 NA
HETATM   14  C16 UNK     1      29.516  -7.269  38.354  1.00  0.00     0.134 A 
HETATM   15  N1  UNK     1      29.281  -8.640  38.375  1.00  0.00    -0.315 N 
HETATM   16  C19 UNK     1      30.869  -6.844  38.207  1.00  0.00     0.057 A 
HETATM   17  C17 UNK     1      27.929  -8.810  38.523  1.00  0.00     0.130 A 
HETATM   18  C20 UNK     1      30.287  -9.594  38.264  1.00  0.00     0.099 A 
HETATM   19  C22 UNK     1      31.559  -9.189  38.126  1.00  0.00     0.024 A 
HETATM   20  C21 UNK     1      31.859  -7.758  38.096  1.00  0.00    -0.057 A 
HETATM   21  C23 UNK     1      33.300  -7.376  37.941  1.00  0.00     0.048 C 
ENDBRANCH   9  12
BRANCH   3  22
HETATM   22  C3  UNK     1      20.223  -9.285  39.165  1.00  0.00     0.041 C 
BRANCH  22  23
HETATM   23  C1  UNK     1      20.198 -10.142  37.899  1.00  0.00     0.005 C 
BRANCH  23  24
HETATM   24  C2  UNK     1      19.986  -9.282  36.651  1.00  0.00     0.000 C 
BRANCH  24  25
HETATM   25  C4  UNK     1      21.151  -9.430  35.670  1.00  0.00    -0.000 C 
BRANCH  25  26
HETATM   26  C6  UNK     1      21.702 -10.856  35.671  1.00  0.00    -0.005 C 
HETATM   27  C15 UNK     1      23.207 -10.871  35.880  1.00  0.00     0.005 C 
ENDBRANCH  25  26
ENDBRANCH  24  25
ENDBRANCH  23  24
ENDBRANCH  22  23
ENDBRANCH   3  22
BRANCH   6  28
HETATM   28  O2  UNK     1      19.709  -6.477  39.349  1.00  0.00    -0.360 OA
HETATM   29  H21 UNK     1      19.116  -7.162  38.997  1.00  0.00     0.217 HD
ENDBRANCH   6  28
TORSDOF 7
ENDMDL
MODEL 4
REMARK VINA RESULT:      -8.0      5.612     10.846
REMARK  7 active torsions:
REMARK  status: ('A' for Active; 'I' for Inactive)
REMARK    1  A    between atoms: C9_14  and  O2_2 
REMARK    2  A    between atoms: C1_6  and  C2_7 
REMARK    3  A    between atoms: C1_6  and  C3_8 
REMARK    4  A    between atoms: C2_7  and  C4_9 
REMARK    5  A    between atoms: C3_8  and  C5_10 
REMARK    6  A    between atoms: C4_9  and  C6_11 
REMARK    7  A    between atoms: C12_17  and  C14_19 
ROOT
HETATM    1  O1  UNK     1      18.361  -0.102  36.618  1.00  0.00    -0.274 OA
HETATM    2  O3  UNK     1      18.621  -1.564  38.347  1.00  0.00    -0.259 OA
HETATM    3  C5  UNK     1      18.616   0.807  32.554  1.00  0.00    -0.024 A 
HETATM    4  C7  UNK     1      18.952  -0.766  34.362  1.00  0.00    -0.000 A 
HETATM    5  C8  UNK     1      19.032  -0.449  33.004  1.00  0.00     0.024 A 
HETATM    6  C9  UNK     1      18.120   1.751  33.456  1.00  0.00     0.074 A 
HETATM    7  C10 UNK     1      18.457   0.185  35.245  1.00  0.00     0.092 A 
HETATM    8  C11 UNK     1      18.039   1.441  34.812  1.00  0.00     0.075 A 
HETATM    9  C12 UNK     1      19.288  -2.345  36.194  1.00  0.00     0.070 A 
HETATM   10  C13 UNK     1      19.372  -2.055  34.885  1.00  0.00     0.034 A 
HETATM   11  C18 UNK     1      18.741  -1.334  37.147  1.00  0.00     0.301 A 
ENDROOT
BRANCH   9  12
HETATM   12  C14 UNK     1      19.709  -3.620  36.719  1.00  0.00     0.091 A 
HETATM   13  N2  UNK     1      20.922  -3.766  37.329  1.00  0.00    -0.229 NA
HETATM   14  C16 UNK     1      20.972  -5.035  37.680  1.00  0.00     0.134 A 
HETATM   15  N1  UNK     1      19.814  -5.707  37.306  1.00  0.00    -0.315 N 
HETATM   16  C19 UNK     1      21.977  -5.794  38.349  1.00  0.00     0.057 A 
HETATM   17  C17 UNK     1      19.003  -4.791  36.687  1.00  0.00     0.130 A 
HETATM   18  C20 UNK     1      19.596  -7.059  37.551  1.00  0.00     0.099 A 
HETATM   19  C22 UNK     1      20.545  -7.769  38.182  1.00  0.00     0.024 A 
HETATM   20  C21 UNK     1      21.783  -7.108  38.595  1.00  0.00    -0.057 A 
HETATM   21  C23 UNK     1      22.798  -7.960  39.294  1.00  0.00     0.048 C 
ENDBRANCH   9  12
BRANCH   3  22
HETATM   22  C3  UNK     1      18.710   1.126  31.093  1.00  0.00     0.041 C 
BRANCH  22  23
HETATM   23  C1  UNK     1      20.108   0.844  30.540  1.00  0.00     0.005 C 
BRANCH  23  24
HETATM   24  C2  UNK     1      20.039   0.119  29.195  1.00  0.00     0.000 C 
BRANCH  24  25
HETATM   25  C4  UNK     1      20.879  -1.159  29.209  1.00  0.00    -0.000 C 
BRANCH  25  26
HETATM   26  C6  UNK     1      20.131  -2.309  29.883  1.00  0.00    -0.005 C 
HETATM   27  C15 UNK     1      20.859  -2.794  31.127  1.00  0.00     0.005 C 
ENDBRANCH  25  26
ENDBRANCH  24  25
ENDBRANCH  23  24
ENDBRANCH  22  23
ENDBRANCH   3  22
BRANCH   6  28
HETATM   28  O2  UNK     1      17.711   2.980  33.028  1.00  0.00    -0.360 OA
HETATM   29  H21 UNK     1      16.882   2.881  32.529  1.00  0.00     0.217 HD
ENDBRANCH   6  28
TORSDOF 7
ENDMDL
MODEL 5
REMARK VINA RESULT:      -7.9     23.047     25.150
REMARK  7 active torsions:
REMARK  status: ('A' for Active; 'I' for Inactive)
REMARK    1  A    between atoms: C9_14  and  O2_2 
REMARK    2  A    between atoms: C1_6  and  C2_7 
REMARK    3  A    between atoms: C1_6  and  C3_8 
REMARK    4  A    between atoms: C2_7  and  C4_9 
REMARK    5  A    between atoms: C3_8  and  C5_10 
REMARK    6  A    between atoms: C4_9  and  C6_11 
REMARK    7  A    between atoms: C12_17  and  C14_19 
ROOT
HETATM    1  O1  UNK     1      14.724   6.752  10.975  1.00  0.00    -0.274 OA
HETATM    2  O3  UNK     1      16.218   7.991  12.170  1.00  0.00    -0.259 OA
HETATM    3  C5  UNK     1      12.478   6.103   7.519  1.00  0.00    -0.024 A 
HETATM    4  C7  UNK     1      14.034   7.474   8.766  1.00  0.00    -0.000 A 
HETATM    5  C8  UNK     1      13.277   7.245   7.614  1.00  0.00     0.024 A 
HETATM    6  C9  UNK     1      12.430   5.186   8.571  1.00  0.00     0.074 A 
HETATM    7  C10 UNK     1      13.974   6.553   9.802  1.00  0.00     0.092 A 
HETATM    8  C11 UNK     1      13.182   5.409   9.723  1.00  0.00     0.075 A 
HETATM    9  C12 UNK     1      15.603   8.852  10.033  1.00  0.00     0.070 A 
HETATM   10  C13 UNK     1      14.879   8.646   8.919  1.00  0.00     0.034 A 
HETATM   11  C18 UNK     1      15.555   7.857  11.145  1.00  0.00     0.301 A 
ENDROOT
BRANCH   9  12
HETATM   12  C14 UNK     1      16.438  10.016  10.193  1.00  0.00     0.091 A 
HETATM   13  N2  UNK     1      17.732  10.021   9.756  1.00  0.00    -0.229 NA
HETATM   14  C16 UNK     1      18.184  11.221  10.057  1.00  0.00     0.134 A 
HETATM   15  N1  UNK     1      17.205  11.987  10.681  1.00  0.00    -0.315 N 
HETATM   16  C19 UNK     1      19.458  11.831   9.858  1.00  0.00     0.057 A 
HETATM   17  C17 UNK     1      16.082  11.206  10.765  1.00  0.00     0.130 A 
HETATM   18  C20 UNK     1      17.408  13.295  11.108  1.00  0.00     0.099 A 
HETATM   19  C22 UNK     1      18.609  13.865  10.918  1.00  0.00     0.024 A 
HETATM   20  C21 UNK     1      19.673  13.101  10.268  1.00  0.00    -0.057 A 
HETATM   21  C23 UNK     1      20.987  13.798  10.086  1.00  0.00     0.048 C 
ENDBRANCH   9  12
BRANCH   3  22
HETATM   22  C3  UNK     1      11.676   5.876   6.274  1.00  0.00     0.041 C 
BRANCH  22  23
HETATM   23  C1  UNK     1      10.485   6.832   6.186  1.00  0.00     0.005 C 
BRANCH  23  24
HETATM   24  C2  UNK     1       9.160   6.086   6.355  1.00  0.00     0.000 C 
BRANCH  24  25
HETATM   25  C4  UNK     1       8.265   6.770   7.390  1.00  0.00    -0.000 C 
BRANCH  25  26
HETATM   26  C6  UNK     1       8.905   6.752   8.778  1.00  0.00    -0.005 C 
HETATM   27  C15 UNK     1       8.665   5.428   9.485  1.00  0.00     0.005 C 
ENDBRANCH  25  26
ENDBRANCH  24  25
ENDBRANCH  23  24
ENDBRANCH  22  23
ENDBRANCH   3  22
BRANCH   6  28
HETATM   28  O2  UNK     1      11.654   4.066   8.489  1.00  0.00    -0.360 OA
HETATM   29  H21 UNK     1      11.716   3.576   9.327  1.00  0.00     0.217 HD
ENDBRANCH   6  28
TORSDOF 7
ENDMDL
MODEL 6
REMARK VINA RESULT:      -7.9      7.609     11.261
REMARK  7 active torsions:
REMARK  status: ('A' for Active; 'I' for Inactive)
REMARK    1  A    between atoms: C9_14  and  O2_2 
REMARK    2  A    between atoms: C1_6  and  C2_7 
REMARK    3  A    between atoms: C1_6  and  C3_8 
REMARK    4  A    between atoms: C2_7  and  C4_9 
REMARK    5  A    between atoms: C3_8  and  C5_10 
REMARK    6  A    between atoms: C4_9  and  C6_11 
REMARK    7  A    between atoms: C12_17  and  C14_19 
ROOT
HETATM    1  O1  UNK     1      20.644  -5.063  38.178  1.00  0.00    -0.274 OA
HETATM    2  O3  UNK     1      20.480  -2.858  37.626  1.00  0.00    -0.259 OA
HETATM    3  C5  UNK     1      20.667  -9.092  37.093  1.00  0.00    -0.024 A 
HETATM    4  C7  UNK     1      20.442  -6.766  36.464  1.00  0.00    -0.000 A 
HETATM    5  C8  UNK     1      20.453  -8.118  36.114  1.00  0.00     0.024 A 
HETATM    6  C9  UNK     1      20.871  -8.721  38.424  1.00  0.00     0.074 A 
HETATM    7  C10 UNK     1      20.647  -6.415  37.792  1.00  0.00     0.092 A 
HETATM    8  C11 UNK     1      20.861  -7.373  38.780  1.00  0.00     0.075 A 
HETATM    9  C12 UNK     1      20.216  -4.416  35.839  1.00  0.00     0.070 A 
HETATM   10  C13 UNK     1      20.222  -5.713  35.487  1.00  0.00     0.034 A 
HETATM   11  C18 UNK     1      20.451  -4.030  37.263  1.00  0.00     0.301 A 
ENDROOT
BRANCH   9  12
HETATM   12  C14 UNK     1      19.992  -3.367  34.876  1.00  0.00     0.091 A 
HETATM   13  N2  UNK     1      20.647  -3.358  33.678  1.00  0.00    -0.229 NA
HETATM   14  C16 UNK     1      20.206  -2.280  33.062  1.00  0.00     0.134 A 
HETATM   15  N1  UNK     1      19.281  -1.595  33.843  1.00  0.00    -0.315 N 
HETATM   16  C19 UNK     1      20.513  -1.727  31.784  1.00  0.00     0.057 A 
HETATM   17  C17 UNK     1      19.146  -2.301  35.011  1.00  0.00     0.130 A 
HETATM   18  C20 UNK     1      18.654  -0.422  33.440  1.00  0.00     0.099 A 
HETATM   19  C22 UNK     1      18.946   0.095  32.236  1.00  0.00     0.024 A 
HETATM   20  C21 UNK     1      19.914  -0.586  31.377  1.00  0.00    -0.057 A 
HETATM   21  C23 UNK     1      20.192   0.044  30.046  1.00  0.00     0.048 C 
ENDBRANCH   9  12
BRANCH   3  22
HETATM   22  C3  UNK     1      20.675 -10.537  36.696  1.00  0.00     0.041 C 
BRANCH  22  23
HETATM   23  C1  UNK     1      21.619 -10.795  35.520  1.00  0.00     0.005 C 
BRANCH  23  24
HETATM   24  C2  UNK     1      23.083 -10.710  35.953  1.00  0.00     0.000 C 
BRANCH  24  25
HETATM   25  C4  UNK     1      23.811 -12.034  35.718  1.00  0.00    -0.000 C 
BRANCH  25  26
HETATM   26  C6  UNK     1      25.253 -11.973  36.220  1.00  0.00    -0.005 C 
HETATM   27  C15 UNK     1      25.674 -10.547  36.535  1.00  0.00     0.005 C 
ENDBRANCH  25  26
ENDBRANCH  24  25
ENDBRANCH  23  24
ENDBRANCH  22  23
ENDBRANCH   3  22
BRANCH   6  28
HETATM   28  O2  UNK     1      21.082  -9.663  39.388  1.00  0.00    -0.360 OA
HETATM   29  H21 UNK     1      20.604 -10.474  39.148  1.00  0.00     0.217 HD
ENDBRANCH   6  28
TORSDOF 7
ENDMDL
MODEL 7
REMARK VINA RESULT:      -7.8     24.216     26.501
REMARK  7 active torsions:
REMARK  status: ('A' for Active; 'I' for Inactive)
REMARK    1  A    between atoms: C9_14  and  O2_2 
REMARK    2  A    between atoms: C1_6  and  C2_7 
REMARK    3  A    between atoms: C1_6  and  C3_8 
REMARK    4  A    between atoms: C2_7  and  C4_9 
REMARK    5  A    between atoms: C3_8  and  C5_10 
REMARK    6  A    between atoms: C4_9  and  C6_11 
REMARK    7  A    between atoms: C12_17  and  C14_19 
ROOT
HETATM    1  O1  UNK     1      16.918   8.694   9.913  1.00  0.00    -0.274 OA
HETATM    2  O3  UNK     1      18.389  10.417   9.673  1.00  0.00    -0.259 OA
HETATM    3  C5  UNK     1      13.221   6.931   9.117  1.00  0.00    -0.024 A 
HETATM    4  C7  UNK     1      14.731   8.805   8.870  1.00  0.00    -0.000 A 
HETATM    5  C8  UNK     1      13.498   8.203   8.610  1.00  0.00     0.024 A 
HETATM    6  C9  UNK     1      14.172   6.254   9.884  1.00  0.00     0.074 A 
HETATM    7  C10 UNK     1      15.665   8.118   9.634  1.00  0.00     0.092 A 
HETATM    8  C11 UNK     1      15.404   6.849  10.147  1.00  0.00     0.075 A 
HETATM    9  C12 UNK     1      16.263  10.691   8.627  1.00  0.00     0.070 A 
HETATM   10  C13 UNK     1      15.072  10.127   8.370  1.00  0.00     0.034 A 
HETATM   11  C18 UNK     1      17.278   9.952   9.436  1.00  0.00     0.301 A 
ENDROOT
BRANCH   9  12
HETATM   12  C14 UNK     1      16.604  12.005   8.140  1.00  0.00     0.091 A 
HETATM   13  N2  UNK     1      17.300  12.167   6.977  1.00  0.00    -0.229 NA
HETATM   14  C16 UNK     1      17.429  13.471   6.841  1.00  0.00     0.134 A 
HETATM   15  N1  UNK     1      16.830  14.150   7.896  1.00  0.00    -0.315 N 
HETATM   16  C19 UNK     1      18.058  14.261   5.833  1.00  0.00     0.057 A 
HETATM   17  C17 UNK     1      16.299  13.200   8.730  1.00  0.00     0.130 A 
HETATM   18  C20 UNK     1      16.814  15.536   8.008  1.00  0.00     0.099 A 
HETATM   19  C22 UNK     1      17.407  16.275   7.057  1.00  0.00     0.024 A 
HETATM   20  C21 UNK     1      18.053  15.609   5.927  1.00  0.00    -0.057 A 
HETATM   21  C23 UNK     1      18.694  16.494   4.902  1.00  0.00     0.048 C 
ENDBRANCH   9  12
BRANCH   3  22
HETATM   22  C3  UNK     1      11.891   6.304   8.826  1.00  0.00     0.041 C 
BRANCH  22  23
HETATM   23  C1  UNK     1      11.963   5.354   7.629  1.00  0.00     0.005 C 
BRANCH  23  24
HETATM   24  C2  UNK     1      11.964   6.125   6.307  1.00  0.00     0.000 C 
BRANCH  24  25
HETATM   25  C4  UNK     1      10.713   6.993   6.168  1.00  0.00    -0.000 C 
BRANCH  25  26
HETATM   26  C6  UNK     1       9.452   6.137   6.054  1.00  0.00    -0.005 C 
HETATM   27  C15 UNK     1       8.429   6.507   7.116  1.00  0.00     0.005 C 
ENDBRANCH  25  26
ENDBRANCH  24  25
ENDBRANCH  23  24
ENDBRANCH  22  23
ENDBRANCH   3  22
BRANCH   6  28
HETATM   28  O2  UNK     1      13.913   5.011  10.383  1.00  0.00    -0.360 OA
HETATM   29  H21 UNK     1      13.758   4.399   9.643  1.00  0.00     0.217 HD
ENDBRANCH   6  28
TORSDOF 7
ENDMDL
MODEL 8
REMARK VINA RESULT:      -7.7     14.209     17.028
REMARK  7 active torsions:
REMARK  status: ('A' for Active; 'I' for Inactive)
REMARK    1  A    between atoms: C9_14  and  O2_2 
REMARK    2  A    between atoms: C1_6  and  C2_7 
REMARK    3  A    between atoms: C1_6  and  C3_8 
REMARK    4  A    between atoms: C2_7  and  C4_9 
REMARK    5  A    between atoms: C3_8  and  C5_10 
REMARK    6  A    between atoms: C4_9  and  C6_11 
REMARK    7  A    between atoms: C12_17  and  C14_19 
ROOT
HETATM    1  O1  UNK     1      29.061  -9.598  38.687  1.00  0.00    -0.274 OA
HETATM    2  O3  UNK     1      27.062 -10.143  39.636  1.00  0.00    -0.259 OA
HETATM    3  C5  UNK     1      31.302  -7.408  35.932  1.00  0.00    -0.024 A 
HETATM    4  C7  UNK     1      29.151  -7.986  36.878  1.00  0.00    -0.000 A 
HETATM    5  C8  UNK     1      29.913  -7.258  35.960  1.00  0.00     0.024 A 
HETATM    6  C9  UNK     1      31.936  -8.283  36.817  1.00  0.00     0.074 A 
HETATM    7  C10 UNK     1      29.797  -8.852  37.749  1.00  0.00     0.092 A 
HETATM    8  C11 UNK     1      31.181  -9.012  37.734  1.00  0.00     0.075 A 
HETATM    9  C12 UNK     1      26.985  -8.577  37.838  1.00  0.00     0.070 A 
HETATM   10  C13 UNK     1      27.704  -7.871  36.949  1.00  0.00     0.034 A 
HETATM   11  C18 UNK     1      27.675  -9.498  38.790  1.00  0.00     0.301 A 
ENDROOT
BRANCH   9  12
HETATM   12  C14 UNK     1      25.548  -8.472  37.910  1.00  0.00     0.091 A 
HETATM   13  N2  UNK     1      24.947  -7.632  38.801  1.00  0.00    -0.229 NA
HETATM   14  C16 UNK     1      23.655  -7.788  38.592  1.00  0.00     0.134 A 
HETATM   15  N1  UNK     1      23.417  -8.715  37.582  1.00  0.00    -0.315 N 
HETATM   16  C19 UNK     1      22.516  -7.189  39.206  1.00  0.00     0.057 A 
HETATM   17  C17 UNK     1      24.641  -9.152  37.146  1.00  0.00     0.130 A 
HETATM   18  C20 UNK     1      22.144  -9.074  37.154  1.00  0.00     0.099 A 
HETATM   19  C22 UNK     1      21.075  -8.507  37.735  1.00  0.00     0.024 A 
HETATM   20  C21 UNK     1      21.271  -7.527  38.803  1.00  0.00    -0.057 A 
HETATM   21  C23 UNK     1      20.035  -6.933  39.406  1.00  0.00     0.048 C 
ENDBRANCH   9  12
BRANCH   3  22
HETATM   22  C3  UNK     1      32.100  -6.617  34.940  1.00  0.00     0.041 C 
BRANCH  22  23
HETATM   23  C1  UNK     1      31.876  -5.113  35.105  1.00  0.00     0.005 C 
BRANCH  23  24
HETATM   24  C2  UNK     1      32.322  -4.632  36.487  1.00  0.00     0.000 C 
BRANCH  24  25
HETATM   25  C4  UNK     1      31.166  -3.984  37.250  1.00  0.00    -0.000 C 
BRANCH  25  26
HETATM   26  C6  UNK     1      30.849  -4.750  38.535  1.00  0.00    -0.005 C 
HETATM   27  C15 UNK     1      29.355  -4.774  38.815  1.00  0.00     0.005 C 
ENDBRANCH  25  26
ENDBRANCH  24  25
ENDBRANCH  23  24
ENDBRANCH  22  23
ENDBRANCH   3  22
BRANCH   6  28
HETATM   28  O2  UNK     1      33.291  -8.436  36.799  1.00  0.00    -0.360 OA
HETATM   29  H21 UNK     1      33.607  -8.568  37.709  1.00  0.00     0.217 HD
ENDBRANCH   6  28
TORSDOF 7
ENDMDL
MODEL 9
REMARK VINA RESULT:      -7.7     14.554     17.333
REMARK  7 active torsions:
REMARK  status: ('A' for Active; 'I' for Inactive)
REMARK    1  A    between atoms: C9_14  and  O2_2 
REMARK    2  A    between atoms: C1_6  and  C2_7 
REMARK    3  A    between atoms: C1_6  and  C3_8 
REMARK    4  A    between atoms: C2_7  and  C4_9 
REMARK    5  A    between atoms: C3_8  and  C5_10 
REMARK    6  A    between atoms: C4_9  and  C6_11 
REMARK    7  A    between atoms: C12_17  and  C14_19 
ROOT
HETATM    1  O1  UNK     1      29.264  -9.620  38.440  1.00  0.00    -0.274 OA
HETATM    2  O3  UNK     1      27.257 -10.695  38.547  1.00  0.00    -0.259 OA
HETATM    3  C5  UNK     1      31.497  -6.109  38.130  1.00  0.00    -0.024 A 
HETATM    4  C7  UNK     1      29.342  -7.209  38.195  1.00  0.00    -0.000 A 
HETATM    5  C8  UNK     1      30.102  -6.041  38.093  1.00  0.00     0.024 A 
HETATM    6  C9  UNK     1      32.139  -7.341  38.270  1.00  0.00     0.074 A 
HETATM    7  C10 UNK     1      29.998  -8.425  38.332  1.00  0.00     0.092 A 
HETATM    8  C11 UNK     1      31.388  -8.510  38.371  1.00  0.00     0.075 A 
HETATM    9  C12 UNK     1      27.173  -8.329  38.261  1.00  0.00     0.070 A 
HETATM   10  C13 UNK     1      27.890  -7.197  38.160  1.00  0.00     0.034 A 
HETATM   11  C18 UNK     1      27.871  -9.639  38.425  1.00  0.00     0.301 A 
ENDROOT
BRANCH   9  12
HETATM   12  C14 UNK     1      25.732  -8.324  38.220  1.00  0.00     0.091 A 
HETATM   13  N2  UNK     1      25.001  -7.722  39.203  1.00  0.00    -0.229 NA
HETATM   14  C16 UNK     1      23.745  -7.905  38.848  1.00  0.00     0.134 A 
HETATM   15  N1  UNK     1      23.656  -8.615  37.656  1.00  0.00    -0.315 N 
HETATM   16  C19 UNK     1      22.520  -7.512  39.463  1.00  0.00     0.057 A 
HETATM   17  C17 UNK     1      24.940  -8.882  37.255  1.00  0.00     0.130 A 
HETATM   18  C20 UNK     1      22.451  -8.950  37.048  1.00  0.00     0.099 A 
HETATM   19  C22 UNK     1      21.301  -8.577  37.631  1.00  0.00     0.024 A 
HETATM   20  C21 UNK     1      21.339  -7.830  38.888  1.00  0.00    -0.057 A 
HETATM   21  C23 UNK     1      20.019  -7.446  39.483  1.00  0.00     0.048 C 
ENDBRANCH   9  12
BRANCH   3  22
HETATM   22  C3  UNK     1      32.292  -4.843  38.020  1.00  0.00     0.041 C 
BRANCH  22  23
HETATM   23  C1  UNK     1      31.997  -4.102  36.715  1.00  0.00     0.005 C 
BRANCH  23  24
HETATM   24  C2  UNK     1      33.128  -4.289  35.702  1.00  0.00     0.000 C 
BRANCH  24  25
HETATM   25  C4  UNK     1      32.868  -5.494  34.796  1.00  0.00    -0.000 C 
BRANCH  25  26
HETATM   26  C6  UNK     1      31.385  -5.621  34.450  1.00  0.00    -0.005 C 
HETATM   27  C15 UNK     1      30.905  -7.058  34.574  1.00  0.00     0.005 C 
ENDBRANCH  25  26
ENDBRANCH  24  25
ENDBRANCH  23  24
ENDBRANCH  22  23
ENDBRANCH   3  22
BRANCH   6  28
HETATM   28  O2  UNK     1      33.501  -7.419  38.308  1.00  0.00    -0.360 OA
HETATM   29  H21 UNK     1      33.762  -8.352  38.394  1.00  0.00     0.217 HD
ENDBRANCH   6  28
TORSDOF 7
ENDMDL
MODEL 10
REMARK VINA RESULT:      -7.7      6.220     11.515
REMARK  7 active torsions:
REMARK  status: ('A' for Active; 'I' for Inactive)
REMARK    1  A    between atoms: C9_14  and  O2_2 
REMARK    2  A    between atoms: C1_6  and  C2_7 
REMARK    3  A    between atoms: C1_6  and  C3_8 
REMARK    4  A    between atoms: C2_7  and  C4_9 
REMARK    5  A    between atoms: C3_8  and  C5_10 
REMARK    6  A    between atoms: C4_9  and  C6_11 
REMARK    7  A    between atoms: C12_17  and  C14_19 
ROOT
HETATM    1  O1  UNK     1      18.246  -1.390  35.731  1.00  0.00    -0.274 OA
HETATM    2  O3  UNK     1      17.969  -2.649  37.610  1.00  0.00    -0.259 OA
HETATM    3  C5  UNK     1      20.014  -0.760  32.004  1.00  0.00    -0.024 A 
HETATM    4  C7  UNK     1      19.786  -2.108  34.000  1.00  0.00    -0.000 A 
HETATM    5  C8  UNK     1      20.370  -1.886  32.751  1.00  0.00     0.024 A 
HETATM    6  C9  UNK     1      19.074   0.147  32.499  1.00  0.00     0.074 A 
HETATM    7  C10 UNK     1      18.855  -1.196  34.477  1.00  0.00     0.092 A 
HETATM    8  C11 UNK     1      18.489  -0.069  33.745  1.00  0.00     0.075 A 
HETATM    9  C12 UNK     1      19.550  -3.461  36.020  1.00  0.00     0.070 A 
HETATM   10  C13 UNK     1      20.122  -3.260  34.821  1.00  0.00     0.034 A 
HETATM   11  C18 UNK     1      18.536  -2.492  36.533  1.00  0.00     0.301 A 
ENDROOT
BRANCH   9  12
HETATM   12  C14 UNK     1      19.884  -4.598  36.841  1.00  0.00     0.091 A 
HETATM   13  N2  UNK     1      19.100  -5.716  36.849  1.00  0.00    -0.229 NA
HETATM   14  C16 UNK     1      19.694  -6.537  37.691  1.00  0.00     0.134 A 
HETATM   15  N1  UNK     1      20.843  -5.966  38.226  1.00  0.00    -0.315 N 
HETATM   16  C19 UNK     1      19.361  -7.854  38.125  1.00  0.00     0.057 A 
HETATM   17  C17 UNK     1      20.962  -4.716  37.674  1.00  0.00     0.130 A 
HETATM   18  C20 UNK     1      21.666  -6.610  39.144  1.00  0.00     0.099 A 
HETATM   19  C22 UNK     1      21.349  -7.850  39.548  1.00  0.00     0.024 A 
HETATM   20  C21 UNK     1      20.148  -8.495  39.017  1.00  0.00    -0.057 A 
HETATM   21  C23 UNK     1      19.854  -9.878  39.510  1.00  0.00     0.048 C 
ENDBRANCH   9  12
BRANCH   3  22
HETATM   22  C3  UNK     1      20.652  -0.542  30.665  1.00  0.00     0.041 C 
BRANCH  22  23
HETATM   23  C1  UNK     1      20.217  -1.601  29.651  1.00  0.00     0.005 C 
BRANCH  23  24
HETATM   24  C2  UNK     1      19.548  -0.961  28.433  1.00  0.00     0.000 C 
BRANCH  24  25
HETATM   25  C4  UNK     1      19.455   0.558  28.583  1.00  0.00    -0.000 C 
BRANCH  25  26
HETATM   26  C6  UNK     1      18.014   1.044  28.431  1.00  0.00    -0.005 C 
HETATM   27  C15 UNK     1      17.887   2.524  28.757  1.00  0.00     0.005 C 
ENDBRANCH  25  26
ENDBRANCH  24  25
ENDBRANCH  23  24
ENDBRANCH  22  23
ENDBRANCH   3  22
BRANCH   6  28
HETATM   28  O2  UNK     1      18.718   1.249  31.777  1.00  0.00    -0.360 OA
HETATM   29  H21 UNK     1      19.264   2.002  32.060  1.00  0.00     0.217 HD
ENDBRANCH   6  28
TORSDOF 7
ENDMDL
