MODEL 1
REMARK VINA RESULT:      -9.9      0.000      0.000
REMARK  3 active torsions:
REMARK  status: ('A' for Active; 'I' for Inactive)
REMARK    1  A    between atoms: C1_5  and  N1_4 
REMARK       I    between atoms: C9_13  and  N1_4 
REMARK    2  A    between atoms: C1_5  and  C2_6 
REMARK    3  A    between atoms: C10_14  and  C9_13 
ROOT
HETATM    1  O2  UNK     1      18.120   3.217  28.810  1.00  0.00    -0.267 OA
HETATM    2  N1  UNK     1      19.167   4.226  30.631  1.00  0.00    -0.348 N 
HETATM    3  C9  UNK     1      18.696   3.155  29.894  1.00  0.00     0.258 C 
HETATM    4  H3  UNK     1      19.685   4.053  31.488  1.00  0.00     0.163 HD
ENDROOT
BRANCH   3   5
HETATM    5  C10 UNK     1      18.954   1.861  30.538  1.00  0.00     0.108 A 
HETATM    6  C14 UNK     1      19.587   0.947  29.794  1.00  0.00     0.037 A 
HETATM    7  C13 UNK     1      19.887  -0.367  30.344  1.00  0.00    -0.001 A 
HETATM    8  C15 UNK     1      19.505  -0.652  31.651  1.00  0.00     0.089 A 
HETATM    9  C17 UNK     1      20.546  -1.352  29.604  1.00  0.00     0.014 A 
HETATM   10  O1  UNK     1      18.839   0.316  32.429  1.00  0.00    -0.274 OA
HETATM   11  C18 UNK     1      19.762  -1.889  32.238  1.00  0.00     0.038 A 
HETATM   12  C16 UNK     1      18.539   1.580  31.930  1.00  0.00     0.304 A 
HETATM   13  O3  UNK     1      17.959   2.415  32.615  1.00  0.00    -0.259 OA
HETATM   14  C20 UNK     1      20.420  -2.866  31.493  1.00  0.00     0.003 A 
HETATM   15  C19 UNK     1      20.811  -2.598  30.179  1.00  0.00     0.001 A 
ENDBRANCH   3   5
BRANCH   2  16
HETATM   16  C1  UNK     1      19.032   5.599  30.201  1.00  0.00     0.114 C 
HETATM   17  C5  UNK     1      20.376   6.126  29.699  1.00  0.00     0.037 C 
BRANCH  16  18
HETATM   18  C2  UNK     1      18.439   6.465  31.292  1.00  0.00    -0.035 A 
HETATM   19  C3  UNK     1      19.141   6.643  32.471  1.00  0.00     0.016 A 
HETATM   20  C4  UNK     1      18.595   7.441  33.476  1.00  0.00    -0.056 A 
HETATM   21  C11 UNK     1      19.356   7.630  34.746  1.00  0.00     0.049 C 
HETATM   22  C7  UNK     1      17.354   8.050  33.284  1.00  0.00    -0.056 A 
HETATM   23  C12 UNK     1      16.748   8.909  34.345  1.00  0.00     0.049 C 
HETATM   24  C8  UNK     1      16.660   7.859  32.090  1.00  0.00     0.008 A 
HETATM   25  C6  UNK     1      17.207   7.061  31.085  1.00  0.00     0.010 A 
ENDBRANCH  16  18
ENDBRANCH   2  16
TORSDOF 3
ENDMDL
MODEL 2
REMARK VINA RESULT:      -9.6      1.944      7.760
REMARK  3 active torsions:
REMARK  status: ('A' for Active; 'I' for Inactive)
REMARK    1  A    between atoms: C1_5  and  N1_4 
REMARK       I    between atoms: C9_13  and  N1_4 
REMARK    2  A    between atoms: C1_5  and  C2_6 
REMARK    3  A    between atoms: C10_14  and  C9_13 
ROOT
HETATM    1  O2  UNK     1      18.918   4.845  28.876  1.00  0.00    -0.267 OA
HETATM    2  N1  UNK     1      19.099   3.037  30.336  1.00  0.00    -0.348 N 
HETATM    3  C9  UNK     1      19.027   4.379  30.008  1.00  0.00     0.258 C 
HETATM    4  H3  UNK     1      19.125   2.763  31.314  1.00  0.00     0.163 HD
ENDROOT
BRANCH   3   5
HETATM    5  C10 UNK     1      19.091   5.257  31.182  1.00  0.00     0.108 A 
HETATM    6  C14 UNK     1      17.942   5.448  31.840  1.00  0.00     0.037 A 
HETATM    7  C13 UNK     1      17.903   6.303  33.017  1.00  0.00    -0.001 A 
HETATM    8  C15 UNK     1      19.077   6.916  33.442  1.00  0.00     0.089 A 
HETATM    9  C17 UNK     1      16.726   6.529  33.736  1.00  0.00     0.014 A 
HETATM   10  O1  UNK     1      20.284   6.711  32.744  1.00  0.00    -0.274 OA
HETATM   11  C18 UNK     1      19.109   7.747  34.560  1.00  0.00     0.038 A 
HETATM   12  C16 UNK     1      20.352   5.899  31.616  1.00  0.00     0.304 A 
HETATM   13  O3  UNK     1      21.407   5.727  31.015  1.00  0.00    -0.259 OA
HETATM   14  C20 UNK     1      17.931   7.967  35.271  1.00  0.00     0.003 A 
HETATM   15  C19 UNK     1      16.743   7.360  34.860  1.00  0.00     0.001 A 
ENDBRANCH   3   5
BRANCH   2  16
HETATM   16  C1  UNK     1      19.054   1.981  29.350  1.00  0.00     0.114 C 
HETATM   17  C5  UNK     1      17.658   1.897  28.734  1.00  0.00     0.037 C 
BRANCH  16  18
HETATM   18  C2  UNK     1      19.512   0.661  29.931  1.00  0.00    -0.035 A 
HETATM   19  C3  UNK     1      19.125   0.316  31.214  1.00  0.00     0.016 A 
HETATM   20  C4  UNK     1      19.548  -0.900  31.750  1.00  0.00    -0.056 A 
HETATM   21  C11 UNK     1      19.127  -1.269  33.134  1.00  0.00     0.049 C 
HETATM   22  C7  UNK     1      20.352  -1.753  30.993  1.00  0.00    -0.056 A 
HETATM   23  C12 UNK     1      20.817  -3.061  31.544  1.00  0.00     0.049 C 
HETATM   24  C8  UNK     1      20.733  -1.389  29.702  1.00  0.00     0.008 A 
HETATM   25  C6  UNK     1      20.310  -0.173  29.166  1.00  0.00     0.010 A 
ENDBRANCH  16  18
ENDBRANCH   2  16
TORSDOF 3
ENDMDL
MODEL 3
REMARK VINA RESULT:      -9.5      1.464      7.827
REMARK  3 active torsions:
REMARK  status: ('A' for Active; 'I' for Inactive)
REMARK    1  A    between atoms: C1_5  and  N1_4 
REMARK       I    between atoms: C9_13  and  N1_4 
REMARK    2  A    between atoms: C1_5  and  C2_6 
REMARK    3  A    between atoms: C10_14  and  C9_13 
ROOT
HETATM    1  O2  UNK     1      19.596   5.012  29.834  1.00  0.00    -0.267 OA
HETATM    2  N1  UNK     1      18.459   3.116  30.571  1.00  0.00    -0.348 N 
HETATM    3  C9  UNK     1      18.859   4.438  30.633  1.00  0.00     0.258 C 
HETATM    4  H3  UNK     1      17.796   2.762  31.255  1.00  0.00     0.163 HD
ENDROOT
BRANCH   3   5
HETATM    5  C10 UNK     1      18.302   5.148  31.791  1.00  0.00     0.108 A 
HETATM    6  C14 UNK     1      17.940   6.420  31.585  1.00  0.00     0.037 A 
HETATM    7  C13 UNK     1      17.378   7.208  32.672  1.00  0.00    -0.001 A 
HETATM    8  C15 UNK     1      17.227   6.617  33.923  1.00  0.00     0.089 A 
HETATM    9  C17 UNK     1      16.986   8.538  32.503  1.00  0.00     0.014 A 
HETATM   10  O1  UNK     1      17.610   5.278  34.132  1.00  0.00    -0.274 OA
HETATM   11  C18 UNK     1      16.696   7.315  35.005  1.00  0.00     0.038 A 
HETATM   12  C16 UNK     1      18.150   4.500  33.112  1.00  0.00     0.304 A 
HETATM   13  O3  UNK     1      18.481   3.335  33.304  1.00  0.00    -0.259 OA
HETATM   14  C20 UNK     1      16.307   8.641  34.828  1.00  0.00     0.003 A 
HETATM   15  C19 UNK     1      16.452   9.251  33.580  1.00  0.00     0.001 A 
ENDBRANCH   3   5
BRANCH   2  16
HETATM   16  C1  UNK     1      18.876   2.215  29.520  1.00  0.00     0.114 C 
HETATM   17  C5  UNK     1      17.749   2.035  28.506  1.00  0.00     0.037 C 
BRANCH  16  18
HETATM   18  C2  UNK     1      19.368   0.898  30.083  1.00  0.00    -0.035 A 
HETATM   19  C3  UNK     1      18.935   0.493  31.333  1.00  0.00     0.016 A 
HETATM   20  C4  UNK     1      19.388  -0.720  31.851  1.00  0.00    -0.056 A 
HETATM   21  C11 UNK     1      18.918  -1.153  33.200  1.00  0.00     0.049 C 
HETATM   22  C7  UNK     1      20.267  -1.509  31.109  1.00  0.00    -0.056 A 
HETATM   23  C12 UNK     1      20.766  -2.813  31.642  1.00  0.00     0.049 C 
HETATM   24  C8  UNK     1      20.693  -1.085  29.851  1.00  0.00     0.008 A 
HETATM   25  C6  UNK     1      20.240   0.128  29.333  1.00  0.00     0.010 A 
ENDBRANCH  16  18
ENDBRANCH   2  16
TORSDOF 3
ENDMDL
MODEL 4
REMARK VINA RESULT:      -9.2      2.549      3.598
REMARK  3 active torsions:
REMARK  status: ('A' for Active; 'I' for Inactive)
REMARK    1  A    between atoms: C1_5  and  N1_4 
REMARK       I    between atoms: C9_13  and  N1_4 
REMARK    2  A    between atoms: C1_5  and  C2_6 
REMARK    3  A    between atoms: C10_14  and  C9_13 
ROOT
HETATM    1  O2  UNK     1      17.463   2.638  30.802  1.00  0.00    -0.267 OA
HETATM    2  N1  UNK     1      18.619   4.118  32.183  1.00  0.00    -0.348 N 
HETATM    3  C9  UNK     1      18.044   2.905  31.852  1.00  0.00     0.258 C 
HETATM    4  H3  UNK     1      19.129   4.207  33.057  1.00  0.00     0.163 HD
ENDROOT
BRANCH   3   5
HETATM    5  C10 UNK     1      18.190   1.897  32.910  1.00  0.00     0.108 A 
HETATM    6  C14 UNK     1      17.852   2.285  34.145  1.00  0.00     0.037 A 
HETATM    7  C13 UNK     1      17.962   1.357  35.261  1.00  0.00    -0.001 A 
HETATM    8  C15 UNK     1      18.425   0.068  35.020  1.00  0.00     0.089 A 
HETATM    9  C17 UNK     1      17.620   1.718  36.567  1.00  0.00     0.014 A 
HETATM   10  O1  UNK     1      18.780  -0.333  33.717  1.00  0.00    -0.274 OA
HETATM   11  C18 UNK     1      18.555  -0.869  36.044  1.00  0.00     0.038 A 
HETATM   12  C16 UNK     1      18.684   0.531  32.631  1.00  0.00     0.304 A 
HETATM   13  O3  UNK     1      18.995   0.172  31.500  1.00  0.00    -0.259 OA
HETATM   14  C20 UNK     1      18.212  -0.501  37.343  1.00  0.00     0.003 A 
HETATM   15  C19 UNK     1      17.745   0.790  37.604  1.00  0.00     0.001 A 
ENDBRANCH   3   5
BRANCH   2  16
HETATM   16  C1  UNK     1      18.606   5.263  31.300  1.00  0.00     0.114 C 
HETATM   17  C5  UNK     1      19.939   5.371  30.561  1.00  0.00     0.037 C 
BRANCH  16  18
HETATM   18  C2  UNK     1      18.250   6.532  32.045  1.00  0.00    -0.035 A 
HETATM   19  C3  UNK     1      19.174   7.090  32.911  1.00  0.00     0.016 A 
HETATM   20  C4  UNK     1      18.846   8.259  33.597  1.00  0.00    -0.056 A 
HETATM   21  C11 UNK     1      19.846   8.858  34.529  1.00  0.00     0.049 C 
HETATM   22  C7  UNK     1      17.597   8.851  33.406  1.00  0.00    -0.056 A 
HETATM   23  C12 UNK     1      17.221  10.103  34.129  1.00  0.00     0.049 C 
HETATM   24  C8  UNK     1      16.677   8.274  32.530  1.00  0.00     0.008 A 
HETATM   25  C6  UNK     1      17.006   7.106  31.844  1.00  0.00     0.010 A 
ENDBRANCH  16  18
ENDBRANCH   2  16
TORSDOF 3
ENDMDL
MODEL 5
REMARK VINA RESULT:      -9.0      2.971      4.333
REMARK  3 active torsions:
REMARK  status: ('A' for Active; 'I' for Inactive)
REMARK    1  A    between atoms: C1_5  and  N1_4 
REMARK       I    between atoms: C9_13  and  N1_4 
REMARK    2  A    between atoms: C1_5  and  C2_6 
REMARK    3  A    between atoms: C10_14  and  C9_13 
ROOT
HETATM    1  O2  UNK     1      17.596   3.050  31.590  1.00  0.00    -0.267 OA
HETATM    2  N1  UNK     1      18.594   4.337  33.257  1.00  0.00    -0.348 N 
HETATM    3  C9  UNK     1      18.083   3.174  32.712  1.00  0.00     0.258 C 
HETATM    4  H3  UNK     1      19.030   4.309  34.174  1.00  0.00     0.163 HD
ENDROOT
BRANCH   3   5
HETATM    5  C10 UNK     1      18.174   2.028  33.625  1.00  0.00     0.108 A 
HETATM    6  C14 UNK     1      17.878   2.270  34.907  1.00  0.00     0.037 A 
HETATM    7  C13 UNK     1      17.941   1.197  35.890  1.00  0.00    -0.001 A 
HETATM    8  C15 UNK     1      18.312  -0.076  35.472  1.00  0.00     0.089 A 
HETATM    9  C17 UNK     1      17.640   1.404  37.238  1.00  0.00     0.014 A 
HETATM   10  O1  UNK     1      18.622  -0.324  34.120  1.00  0.00    -0.274 OA
HETATM   11  C18 UNK     1      18.392  -1.146  36.361  1.00  0.00     0.038 A 
HETATM   12  C16 UNK     1      18.571   0.681  33.158  1.00  0.00     0.304 A 
HETATM   13  O3  UNK     1      18.843   0.455  31.984  1.00  0.00    -0.259 OA
HETATM   14  C20 UNK     1      18.090  -0.932  37.704  1.00  0.00     0.003 A 
HETATM   15  C19 UNK     1      17.715   0.340  38.142  1.00  0.00     0.001 A 
ENDBRANCH   3   5
BRANCH   2  16
HETATM   16  C1  UNK     1      18.618   5.596  32.548  1.00  0.00     0.114 C 
HETATM   17  C5  UNK     1      20.002   6.233  32.655  1.00  0.00     0.037 C 
BRANCH  16  18
HETATM   18  C2  UNK     1      17.515   6.519  33.022  1.00  0.00    -0.035 A 
HETATM   19  C3  UNK     1      16.278   6.469  32.403  1.00  0.00     0.016 A 
HETATM   20  C4  UNK     1      15.263   7.318  32.839  1.00  0.00    -0.056 A 
HETATM   21  C11 UNK     1      13.929   7.260  32.169  1.00  0.00     0.049 C 
HETATM   22  C7  UNK     1      15.500   8.206  33.890  1.00  0.00    -0.056 A 
HETATM   23  C12 UNK     1      14.429   9.126  34.376  1.00  0.00     0.049 C 
HETATM   24  C8  UNK     1      16.753   8.244  34.502  1.00  0.00     0.008 A 
HETATM   25  C6  UNK     1      17.768   7.393  34.065  1.00  0.00     0.010 A 
ENDBRANCH  16  18
ENDBRANCH   2  16
TORSDOF 3
ENDMDL
MODEL 6
REMARK VINA RESULT:      -8.9      6.558     10.094
REMARK  3 active torsions:
REMARK  status: ('A' for Active; 'I' for Inactive)
REMARK    1  A    between atoms: C1_5  and  N1_4 
REMARK       I    between atoms: C9_13  and  N1_4 
REMARK    2  A    between atoms: C1_5  and  C2_6 
REMARK    3  A    between atoms: C10_14  and  C9_13 
ROOT
HETATM    1  O2  UNK     1      21.473  -3.962  37.378  1.00  0.00    -0.267 OA
HETATM    2  N1  UNK     1      19.338  -3.745  36.469  1.00  0.00    -0.348 N 
HETATM    3  C9  UNK     1      20.431  -4.447  36.942  1.00  0.00     0.258 C 
HETATM    4  H3  UNK     1      18.503  -4.251  36.189  1.00  0.00     0.163 HD
ENDROOT
BRANCH   3   5
HETATM    5  C10 UNK     1      20.243  -5.902  36.886  1.00  0.00     0.108 A 
HETATM    6  C14 UNK     1      20.119  -6.527  38.062  1.00  0.00     0.037 A 
HETATM    7  C13 UNK     1      19.929  -7.970  38.110  1.00  0.00    -0.001 A 
HETATM    8  C15 UNK     1      19.880  -8.681  36.916  1.00  0.00     0.089 A 
HETATM    9  C17 UNK     1      19.794  -8.664  39.315  1.00  0.00     0.014 A 
HETATM   10  O1  UNK     1      20.011  -8.017  35.681  1.00  0.00    -0.274 OA
HETATM   11  C18 UNK     1      19.701 -10.063  36.892  1.00  0.00     0.038 A 
HETATM   12  C16 UNK     1      20.193  -6.639  35.604  1.00  0.00     0.304 A 
HETATM   13  O3  UNK     1      20.307  -6.069  34.524  1.00  0.00    -0.259 OA
HETATM   14  C20 UNK     1      19.567 -10.748  38.098  1.00  0.00     0.003 A 
HETATM   15  C19 UNK     1      19.614 -10.050  39.307  1.00  0.00     0.001 A 
ENDBRANCH   3   5
BRANCH   2  16
HETATM   16  C1  UNK     1      19.287  -2.301  36.426  1.00  0.00     0.114 C 
HETATM   17  C5  UNK     1      18.091  -1.795  37.231  1.00  0.00     0.037 C 
BRANCH  16  18
HETATM   18  C2  UNK     1      19.289  -1.789  35.002  1.00  0.00    -0.035 A 
HETATM   19  C3  UNK     1      20.064  -2.431  34.053  1.00  0.00     0.016 A 
HETATM   20  C4  UNK     1      20.065  -1.959  32.741  1.00  0.00    -0.056 A 
HETATM   21  C11 UNK     1      20.903  -2.656  31.720  1.00  0.00     0.049 C 
HETATM   22  C7  UNK     1      19.289  -0.851  32.398  1.00  0.00    -0.056 A 
HETATM   23  C12 UNK     1      19.273  -0.327  31.000  1.00  0.00     0.049 C 
HETATM   24  C8  UNK     1      18.514  -0.215  33.368  1.00  0.00     0.008 A 
HETATM   25  C6  UNK     1      18.513  -0.688  34.680  1.00  0.00     0.010 A 
ENDBRANCH  16  18
ENDBRANCH   2  16
TORSDOF 3
ENDMDL
MODEL 7
REMARK VINA RESULT:      -8.7      6.272     10.002
REMARK  3 active torsions:
REMARK  status: ('A' for Active; 'I' for Inactive)
REMARK    1  A    between atoms: C1_5  and  N1_4 
REMARK       I    between atoms: C9_13  and  N1_4 
REMARK    2  A    between atoms: C1_5  and  C2_6 
REMARK    3  A    between atoms: C10_14  and  C9_13 
ROOT
HETATM    1  O2  UNK     1      20.686  -3.643  37.583  1.00  0.00    -0.267 OA
HETATM    2  N1  UNK     1      19.809  -3.742  35.426  1.00  0.00    -0.348 N 
HETATM    3  C9  UNK     1      20.252  -4.275  36.623  1.00  0.00     0.258 C 
HETATM    4  H3  UNK     1      19.412  -4.358  34.723  1.00  0.00     0.163 HD
ENDROOT
BRANCH   3   5
HETATM    5  C10 UNK     1      20.157  -5.739  36.666  1.00  0.00     0.108 A 
HETATM    6  C14 UNK     1      20.013  -6.287  37.878  1.00  0.00     0.037 A 
HETATM    7  C13 UNK     1      19.910  -7.732  38.023  1.00  0.00    -0.001 A 
HETATM    8  C15 UNK     1      19.965  -8.527  36.883  1.00  0.00     0.089 A 
HETATM    9  C17 UNK     1      19.759  -8.346  39.268  1.00  0.00     0.014 A 
HETATM   10  O1  UNK     1      20.116  -7.944  35.610  1.00  0.00    -0.274 OA
HETATM   11  C18 UNK     1      19.873  -9.916  36.952  1.00  0.00     0.038 A 
HETATM   12  C16 UNK     1      20.217  -6.566  35.440  1.00  0.00     0.304 A 
HETATM   13  O3  UNK     1      20.348  -6.068  34.327  1.00  0.00    -0.259 OA
HETATM   14  C20 UNK     1      19.722 -10.521  38.199  1.00  0.00     0.003 A 
HETATM   15  C19 UNK     1      19.665  -9.739  39.354  1.00  0.00     0.001 A 
ENDBRANCH   3   5
BRANCH   2  16
HETATM   16  C1  UNK     1      19.804  -2.323  35.149  1.00  0.00     0.114 C 
HETATM   17  C5  UNK     1      18.544  -1.681  35.727  1.00  0.00     0.037 C 
BRANCH  16  18
HETATM   18  C2  UNK     1      19.971  -2.048  33.670  1.00  0.00    -0.035 A 
HETATM   19  C3  UNK     1      19.381  -0.923  33.121  1.00  0.00     0.016 A 
HETATM   20  C4  UNK     1      19.536  -0.669  31.759  1.00  0.00    -0.056 A 
HETATM   21  C11 UNK     1      18.898   0.547  31.170  1.00  0.00     0.049 C 
HETATM   22  C7  UNK     1      20.279  -1.545  30.967  1.00  0.00    -0.056 A 
HETATM   23  C12 UNK     1      20.459  -1.295  29.505  1.00  0.00     0.049 C 
HETATM   24  C8  UNK     1      20.865  -2.674  31.537  1.00  0.00     0.008 A 
HETATM   25  C6  UNK     1      20.711  -2.928  32.899  1.00  0.00     0.010 A 
ENDBRANCH  16  18
ENDBRANCH   2  16
TORSDOF 3
ENDMDL
MODEL 8
REMARK VINA RESULT:      -8.6      1.395      2.396
REMARK  3 active torsions:
REMARK  status: ('A' for Active; 'I' for Inactive)
REMARK    1  A    between atoms: C1_5  and  N1_4 
REMARK       I    between atoms: C9_13  and  N1_4 
REMARK    2  A    between atoms: C1_5  and  C2_6 
REMARK    3  A    between atoms: C10_14  and  C9_13 
ROOT
HETATM    1  O2  UNK     1      17.114   2.828  31.171  1.00  0.00    -0.267 OA
HETATM    2  N1  UNK     1      19.141   3.677  30.396  1.00  0.00    -0.348 N 
HETATM    3  C9  UNK     1      18.280   2.678  30.813  1.00  0.00     0.258 C 
HETATM    4  H3  UNK     1      20.068   3.429  30.062  1.00  0.00     0.163 HD
ENDROOT
BRANCH   3   5
HETATM    5  C10 UNK     1      18.898   1.347  30.792  1.00  0.00     0.108 A 
HETATM    6  C14 UNK     1      19.020   0.734  31.975  1.00  0.00     0.037 A 
HETATM    7  C13 UNK     1      19.622  -0.589  32.058  1.00  0.00    -0.001 A 
HETATM    8  C15 UNK     1      20.065  -1.200  30.889  1.00  0.00     0.089 A 
HETATM    9  C17 UNK     1      19.769  -1.267  33.270  1.00  0.00     0.014 A 
HETATM   10  O1  UNK     1      19.933  -0.549  29.647  1.00  0.00    -0.274 OA
HETATM   11  C18 UNK     1      20.650  -2.465  30.898  1.00  0.00     0.038 A 
HETATM   12  C16 UNK     1      19.362   0.716  29.537  1.00  0.00     0.304 A 
HETATM   13  O3  UNK     1      19.252   1.274  28.451  1.00  0.00    -0.259 OA
HETATM   14  C20 UNK     1      20.792  -3.134  32.112  1.00  0.00     0.003 A 
HETATM   15  C19 UNK     1      20.353  -2.536  33.296  1.00  0.00     0.001 A 
ENDBRANCH   3   5
BRANCH   2  16
HETATM   16  C1  UNK     1      18.759   5.069  30.328  1.00  0.00     0.114 C 
HETATM   17  C5  UNK     1      19.543   5.776  29.224  1.00  0.00     0.037 C 
BRANCH  16  18
HETATM   18  C2  UNK     1      18.908   5.750  31.673  1.00  0.00    -0.035 A 
HETATM   19  C3  UNK     1      17.780   5.990  32.437  1.00  0.00     0.016 A 
HETATM   20  C4  UNK     1      17.917   6.617  33.675  1.00  0.00    -0.056 A 
HETATM   21  C11 UNK     1      16.698   6.874  34.498  1.00  0.00     0.049 C 
HETATM   22  C7  UNK     1      19.182   6.992  34.130  1.00  0.00    -0.056 A 
HETATM   23  C12 UNK     1      19.355   7.664  35.453  1.00  0.00     0.049 C 
HETATM   24  C8  UNK     1      20.308   6.742  33.346  1.00  0.00     0.008 A 
HETATM   25  C6  UNK     1      20.170   6.115  32.108  1.00  0.00     0.010 A 
ENDBRANCH  16  18
ENDBRANCH   2  16
TORSDOF 3
ENDMDL
MODEL 9
REMARK VINA RESULT:      -8.6     22.825     24.587
REMARK  3 active torsions:
REMARK  status: ('A' for Active; 'I' for Inactive)
REMARK    1  A    between atoms: C1_5  and  N1_4 
REMARK       I    between atoms: C9_13  and  N1_4 
REMARK    2  A    between atoms: C1_5  and  C2_6 
REMARK    3  A    between atoms: C10_14  and  C9_13 
ROOT
HETATM    1  O2  UNK     1       7.134   7.104   8.678  1.00  0.00    -0.267 OA
HETATM    2  N1  UNK     1       8.961   5.662   8.561  1.00  0.00    -0.348 N 
HETATM    3  C9  UNK     1       7.703   6.057   8.979  1.00  0.00     0.258 C 
HETATM    4  H3  UNK     1       9.309   4.744   8.824  1.00  0.00     0.163 HD
ENDROOT
BRANCH   3   5
HETATM    5  C10 UNK     1       7.060   5.074   9.859  1.00  0.00     0.108 A 
HETATM    6  C14 UNK     1       6.791   5.483  11.105  1.00  0.00     0.037 A 
HETATM    7  C13 UNK     1       6.154   4.580  12.052  1.00  0.00    -0.001 A 
HETATM    8  C15 UNK     1       5.834   3.290  11.640  1.00  0.00     0.089 A 
HETATM    9  C17 UNK     1       5.854   4.964  13.361  1.00  0.00     0.014 A 
HETATM   10  O1  UNK     1       6.120   2.866  10.328  1.00  0.00    -0.274 OA
HETATM   11  C18 UNK     1       5.224   2.376  12.497  1.00  0.00     0.038 A 
HETATM   12  C16 UNK     1       6.728   3.708   9.400  1.00  0.00     0.304 A 
HETATM   13  O3  UNK     1       6.973   3.329   8.260  1.00  0.00    -0.259 OA
HETATM   14  C20 UNK     1       4.928   2.768  13.801  1.00  0.00     0.003 A 
HETATM   15  C19 UNK     1       5.242   4.058  14.233  1.00  0.00     0.001 A 
ENDBRANCH   3   5
BRANCH   2  16
HETATM   16  C1  UNK     1       9.789   6.462   7.687  1.00  0.00     0.114 C 
HETATM   17  C5  UNK     1       9.507   6.107   6.228  1.00  0.00     0.037 C 
BRANCH  16  18
HETATM   18  C2  UNK     1      11.255   6.335   8.044  1.00  0.00    -0.035 A 
HETATM   19  C3  UNK     1      12.020   7.481   8.175  1.00  0.00     0.016 A 
HETATM   20  C4  UNK     1      13.370   7.364   8.503  1.00  0.00    -0.056 A 
HETATM   21  C11 UNK     1      14.193   8.602   8.644  1.00  0.00     0.049 C 
HETATM   22  C7  UNK     1      13.933   6.102   8.697  1.00  0.00    -0.056 A 
HETATM   23  C12 UNK     1      15.377   5.951   9.050  1.00  0.00     0.049 C 
HETATM   24  C8  UNK     1      13.147   4.958   8.560  1.00  0.00     0.008 A 
HETATM   25  C6  UNK     1      11.797   5.076   8.231  1.00  0.00     0.010 A 
ENDBRANCH  16  18
ENDBRANCH   2  16
TORSDOF 3
ENDMDL
MODEL 10
REMARK VINA RESULT:      -8.4     15.284     18.993
REMARK  3 active torsions:
REMARK  status: ('A' for Active; 'I' for Inactive)
REMARK    1  A    between atoms: C1_5  and  N1_4 
REMARK       I    between atoms: C9_13  and  N1_4 
REMARK    2  A    between atoms: C1_5  and  C2_6 
REMARK    3  A    between atoms: C10_14  and  C9_13 
ROOT
HETATM    1  O2  UNK     1      17.568  -3.044  15.811  1.00  0.00    -0.267 OA
HETATM    2  N1  UNK     1      19.866  -3.182  15.445  1.00  0.00    -0.348 N 
HETATM    3  C9  UNK     1      18.689  -2.541  15.786  1.00  0.00     0.258 C 
HETATM    4  H3  UNK     1      20.747  -2.683  15.519  1.00  0.00     0.163 HD
ENDROOT
BRANCH   3   5
HETATM    5  C10 UNK     1      18.891  -1.131  16.141  1.00  0.00     0.108 A 
HETATM    6  C14 UNK     1      18.747  -0.821  17.435  1.00  0.00     0.037 A 
HETATM    7  C13 UNK     1      18.927   0.552  17.885  1.00  0.00    -0.001 A 
HETATM    8  C15 UNK     1      19.248   1.530  16.949  1.00  0.00     0.089 A 
HETATM    9  C17 UNK     1      18.788   0.920  19.225  1.00  0.00     0.014 A 
HETATM   10  O1  UNK     1      19.397   1.196  15.588  1.00  0.00    -0.274 OA
HETATM   11  C18 UNK     1      19.433   2.862  17.313  1.00  0.00     0.038 A 
HETATM   12  C16 UNK     1      19.232  -0.107  15.128  1.00  0.00     0.304 A 
HETATM   13  O3  UNK     1      19.365  -0.387  13.942  1.00  0.00    -0.259 OA
HETATM   14  C20 UNK     1      19.292   3.221  18.652  1.00  0.00     0.003 A 
HETATM   15  C19 UNK     1      18.970   2.253  19.606  1.00  0.00     0.001 A 
ENDBRANCH   3   5
BRANCH   2  16
HETATM   16  C1  UNK     1      19.921  -4.575  15.061  1.00  0.00     0.114 C 
HETATM   17  C5  UNK     1      21.213  -5.209  15.572  1.00  0.00     0.037 C 
BRANCH  16  18
HETATM   18  C2  UNK     1      19.741  -4.745  13.567  1.00  0.00    -0.035 A 
HETATM   19  C3  UNK     1      20.273  -3.798  12.710  1.00  0.00     0.016 A 
HETATM   20  C4  UNK     1      20.107  -3.955  11.335  1.00  0.00    -0.056 A 
HETATM   21  C11 UNK     1      20.683  -2.931  10.413  1.00  0.00     0.049 C 
HETATM   22  C7  UNK     1      19.411  -5.057  10.838  1.00  0.00    -0.056 A 
HETATM   23  C12 UNK     1      19.220  -5.248   9.368  1.00  0.00     0.049 C 
HETATM   24  C8  UNK     1      18.881  -6.002  11.716  1.00  0.00     0.008 A 
HETATM   25  C6  UNK     1      19.047  -5.845  13.092  1.00  0.00     0.010 A 
ENDBRANCH  16  18
ENDBRANCH   2  16
TORSDOF 3
ENDMDL
