MODEL 1
REMARK VINA RESULT:      -7.6      0.000      0.000
REMARK  5 active torsions:
REMARK  status: ('A' for Active; 'I' for Inactive)
REMARK    1  A    between atoms: C7_10  and  O1_1 
REMARK    2  A    between atoms: C8_11  and  O2_2 
REMARK    3  A    between atoms: C14_17  and  O3_3 
REMARK    4  A    between atoms: C1_4  and  C3_6 
REMARK    5  A    between atoms: C2_5  and  C4_7 
ROOT
HETATM    1  C1  UNK     1      18.408   5.909  32.046  1.00  0.00    -0.031 A 
HETATM    2  C5  UNK     1      17.520   6.864  31.579  1.00  0.00     0.048 A 
HETATM    3  C6  UNK     1      18.979   6.010  33.304  1.00  0.00     0.048 A 
HETATM    4  C7  UNK     1      18.653   7.095  34.118  1.00  0.00     0.069 A 
HETATM    5  C8  UNK     1      17.193   7.949  32.392  1.00  0.00     0.069 A 
HETATM    6  C11 UNK     1      17.760   8.065  33.661  1.00  0.00     0.073 A 
ENDROOT
BRANCH   1   7
HETATM    7  C3  UNK     1      18.754   4.763  31.186  1.00  0.00     0.012 C 
HETATM    8  C4  UNK     1      18.202   3.529  31.272  1.00  0.00     0.012 C 
BRANCH   8   9
HETATM    9  C2  UNK     1      18.529   2.403  30.411  1.00  0.00    -0.036 A 
HETATM   10  C10 UNK     1      19.432   1.432  30.846  1.00  0.00     0.014 A 
HETATM   11  C13 UNK     1      19.745   0.352  30.022  1.00  0.00     0.037 A 
HETATM   12  C14 UNK     1      19.155   0.242  28.762  1.00  0.00     0.065 A 
HETATM   13  C12 UNK     1      18.252   1.212  28.328  1.00  0.00     0.037 A 
HETATM   14  C9  UNK     1      17.939   2.292  29.153  1.00  0.00     0.014 A 
BRANCH  12  15
HETATM   15  O3  UNK     1      19.460  -0.813  27.958  1.00  0.00    -0.361 OA
HETATM   16  H12 UNK     1      20.425  -0.929  27.944  1.00  0.00     0.217 HD
ENDBRANCH  12  15
ENDBRANCH   8   9
ENDBRANCH   1   7
BRANCH   5  17
HETATM   17  O2  UNK     1      16.322   8.896  31.947  1.00  0.00    -0.361 OA
HETATM   18  H11 UNK     1      15.414   8.568  32.060  1.00  0.00     0.217 HD
ENDBRANCH   5  17
BRANCH   4  19
HETATM   19  O1  UNK     1      19.205   7.208  35.357  1.00  0.00    -0.361 OA
HETATM   20  H10 UNK     1      19.479   6.326  35.661  1.00  0.00     0.217 HD
ENDBRANCH   4  19
TORSDOF 5
ENDMDL
MODEL 2
REMARK VINA RESULT:      -7.6      0.094      2.016
REMARK  5 active torsions:
REMARK  status: ('A' for Active; 'I' for Inactive)
REMARK    1  A    between atoms: C7_10  and  O1_1 
REMARK    2  A    between atoms: C8_11  and  O2_2 
REMARK    3  A    between atoms: C14_17  and  O3_3 
REMARK    4  A    between atoms: C1_4  and  C3_6 
REMARK    5  A    between atoms: C2_5  and  C4_7 
ROOT
HETATM    1  C1  UNK     1      18.443   5.844  31.989  1.00  0.00    -0.031 A 
HETATM    2  C5  UNK     1      19.027   5.942  33.242  1.00  0.00     0.048 A 
HETATM    3  C6  UNK     1      17.555   6.802  31.530  1.00  0.00     0.048 A 
HETATM    4  C7  UNK     1      17.241   7.889  32.347  1.00  0.00     0.069 A 
HETATM    5  C8  UNK     1      18.714   7.027  34.058  1.00  0.00     0.069 A 
HETATM    6  C11 UNK     1      17.820   8.001  33.611  1.00  0.00     0.073 A 
ENDROOT
BRANCH   1   7
HETATM    7  C3  UNK     1      18.774   4.695  31.126  1.00  0.00     0.012 C 
HETATM    8  C4  UNK     1      18.238   3.457  31.237  1.00  0.00     0.012 C 
BRANCH   8   9
HETATM    9  C2  UNK     1      18.550   2.328  30.374  1.00  0.00    -0.036 A 
HETATM   10  C10 UNK     1      19.452   1.353  30.799  1.00  0.00     0.014 A 
HETATM   11  C13 UNK     1      19.751   0.270  29.972  1.00  0.00     0.037 A 
HETATM   12  C14 UNK     1      19.147   0.163  28.720  1.00  0.00     0.065 A 
HETATM   13  C12 UNK     1      18.244   1.137  28.295  1.00  0.00     0.037 A 
HETATM   14  C9  UNK     1      17.946   2.219  29.122  1.00  0.00     0.014 A 
BRANCH  12  15
HETATM   15  O3  UNK     1      19.437  -0.894  27.913  1.00  0.00    -0.361 OA
HETATM   16  H12 UNK     1      18.607  -1.261  27.564  1.00  0.00     0.217 HD
ENDBRANCH  12  15
ENDBRANCH   8   9
ENDBRANCH   1   7
BRANCH   5  17
HETATM   17  O2  UNK     1      19.277   7.137  35.293  1.00  0.00    -0.361 OA
HETATM   18  H11 UNK     1      19.461   6.247  35.636  1.00  0.00     0.217 HD
ENDBRANCH   5  17
BRANCH   4  19
HETATM   19  O1  UNK     1      16.370   8.839  31.911  1.00  0.00    -0.361 OA
HETATM   20  H10 UNK     1      16.703   9.214  31.077  1.00  0.00     0.217 HD
ENDBRANCH   4  19
TORSDOF 5
ENDMDL
MODEL 3
REMARK VINA RESULT:      -7.4      1.468      7.546
REMARK  5 active torsions:
REMARK  status: ('A' for Active; 'I' for Inactive)
REMARK    1  A    between atoms: C7_10  and  O1_1 
REMARK    2  A    between atoms: C8_11  and  O2_2 
REMARK    3  A    between atoms: C14_17  and  O3_3 
REMARK    4  A    between atoms: C1_4  and  C3_6 
REMARK    5  A    between atoms: C2_5  and  C4_7 
ROOT
HETATM    1  C1  UNK     1      18.954   1.564  30.027  1.00  0.00    -0.031 A 
HETATM    2  C5  UNK     1      19.815   0.967  30.935  1.00  0.00     0.048 A 
HETATM    3  C6  UNK     1      18.667   0.971  28.809  1.00  0.00     0.048 A 
HETATM    4  C7  UNK     1      19.257  -0.253  28.489  1.00  0.00     0.069 A 
HETATM    5  C8  UNK     1      20.403  -0.256  30.616  1.00  0.00     0.069 A 
HETATM    6  C11 UNK     1      20.125  -0.866  29.393  1.00  0.00     0.073 A 
ENDROOT
BRANCH   1   7
HETATM    7  C3  UNK     1      18.333   2.857  30.364  1.00  0.00     0.012 C 
HETATM    8  C4  UNK     1      18.868   3.789  31.188  1.00  0.00     0.012 C 
BRANCH   8   9
HETATM    9  C2  UNK     1      18.264   5.073  31.506  1.00  0.00    -0.036 A 
HETATM   10  C10 UNK     1      17.604   5.251  32.721  1.00  0.00     0.014 A 
HETATM   11  C13 UNK     1      17.025   6.483  33.027  1.00  0.00     0.037 A 
HETATM   12  C14 UNK     1      17.107   7.537  32.116  1.00  0.00     0.065 A 
HETATM   13  C12 UNK     1      17.768   7.359  30.902  1.00  0.00     0.037 A 
HETATM   14  C9  UNK     1      18.347   6.127  30.596  1.00  0.00     0.014 A 
BRANCH  12  15
HETATM   15  O3  UNK     1      16.543   8.739  32.415  1.00  0.00    -0.361 OA
HETATM   16  H12 UNK     1      16.330   9.201  31.586  1.00  0.00     0.217 HD
ENDBRANCH  12  15
ENDBRANCH   8   9
ENDBRANCH   1   7
BRANCH   5  17
HETATM   17  O2  UNK     1      21.252  -0.854  31.497  1.00  0.00    -0.361 OA
HETATM   18  H11 UNK     1      22.097  -1.030  31.050  1.00  0.00     0.217 HD
ENDBRANCH   5  17
BRANCH   4  19
HETATM   19  O1  UNK     1      18.984  -0.849  27.296  1.00  0.00    -0.361 OA
HETATM   20  H10 UNK     1      18.244  -1.469  27.415  1.00  0.00     0.217 HD
ENDBRANCH   4  19
TORSDOF 5
ENDMDL
MODEL 4
REMARK VINA RESULT:      -7.4      1.448      7.349
REMARK  5 active torsions:
REMARK  status: ('A' for Active; 'I' for Inactive)
REMARK    1  A    between atoms: C7_10  and  O1_1 
REMARK    2  A    between atoms: C8_11  and  O2_2 
REMARK    3  A    between atoms: C14_17  and  O3_3 
REMARK    4  A    between atoms: C1_4  and  C3_6 
REMARK    5  A    between atoms: C2_5  and  C4_7 
ROOT
HETATM    1  C1  UNK     1      18.978   1.589  29.996  1.00  0.00    -0.031 A 
HETATM    2  C5  UNK     1      18.680   0.984  28.785  1.00  0.00     0.048 A 
HETATM    3  C6  UNK     1      19.827   0.990  30.912  1.00  0.00     0.048 A 
HETATM    4  C7  UNK     1      20.395  -0.248  30.609  1.00  0.00     0.069 A 
HETATM    5  C8  UNK     1      19.247  -0.253  28.482  1.00  0.00     0.069 A 
HETATM    6  C11 UNK     1      20.104  -0.869  29.394  1.00  0.00     0.073 A 
ENDROOT
BRANCH   1   7
HETATM    7  C3  UNK     1      18.378   2.896  30.316  1.00  0.00     0.012 C 
HETATM    8  C4  UNK     1      18.829   3.750  31.266  1.00  0.00     0.012 C 
BRANCH   8   9
HETATM    9  C2  UNK     1      18.249   5.049  31.570  1.00  0.00    -0.036 A 
HETATM   10  C10 UNK     1      18.324   6.082  30.636  1.00  0.00     0.014 A 
HETATM   11  C13 UNK     1      17.768   7.327  30.926  1.00  0.00     0.037 A 
HETATM   12  C14 UNK     1      17.135   7.539  32.151  1.00  0.00     0.065 A 
HETATM   13  C12 UNK     1      17.058   6.506  33.085  1.00  0.00     0.037 A 
HETATM   14  C9  UNK     1      17.616   5.261  32.794  1.00  0.00     0.014 A 
BRANCH  12  15
HETATM   15  O3  UNK     1      16.591   8.754  32.434  1.00  0.00    -0.361 OA
HETATM   16  H12 UNK     1      15.633   8.647  32.564  1.00  0.00     0.217 HD
ENDBRANCH  12  15
ENDBRANCH   8   9
ENDBRANCH   1   7
BRANCH   5  17
HETATM   17  O2  UNK     1      18.964  -0.861  27.297  1.00  0.00    -0.361 OA
HETATM   18  H11 UNK     1      19.041  -1.823  27.410  1.00  0.00     0.217 HD
ENDBRANCH   5  17
BRANCH   4  19
HETATM   19  O1  UNK     1      21.231  -0.850  31.498  1.00  0.00    -0.361 OA
HETATM   20  H10 UNK     1      21.322  -1.789  31.261  1.00  0.00     0.217 HD
ENDBRANCH   4  19
TORSDOF 5
ENDMDL
MODEL 5
REMARK VINA RESULT:      -7.3     12.096     15.479
REMARK  5 active torsions:
REMARK  status: ('A' for Active; 'I' for Inactive)
REMARK    1  A    between atoms: C7_10  and  O1_1 
REMARK    2  A    between atoms: C8_11  and  O2_2 
REMARK    3  A    between atoms: C14_17  and  O3_3 
REMARK    4  A    between atoms: C1_4  and  C3_6 
REMARK    5  A    between atoms: C2_5  and  C4_7 
ROOT
HETATM    1  C1  UNK     1      18.978   0.218  18.085  1.00  0.00    -0.031 A 
HETATM    2  C5  UNK     1      18.778   0.434  19.439  1.00  0.00     0.048 A 
HETATM    3  C6  UNK     1      19.094   1.275  17.196  1.00  0.00     0.048 A 
HETATM    4  C7  UNK     1      19.008   2.582  17.674  1.00  0.00     0.069 A 
HETATM    5  C8  UNK     1      18.693   1.740  19.917  1.00  0.00     0.069 A 
HETATM    6  C11 UNK     1      18.807   2.815  19.035  1.00  0.00     0.073 A 
ENDROOT
BRANCH   1   7
HETATM    7  C3  UNK     1      19.067  -1.163  17.579  1.00  0.00     0.012 C 
HETATM    8  C4  UNK     1      18.884  -1.536  16.290  1.00  0.00     0.012 C 
BRANCH   8   9
HETATM    9  C2  UNK     1      18.991  -2.896  15.786  1.00  0.00    -0.036 A 
HETATM   10  C10 UNK     1      17.842  -3.595  15.416  1.00  0.00     0.014 A 
HETATM   11  C13 UNK     1      17.945  -4.899  14.932  1.00  0.00     0.037 A 
HETATM   12  C14 UNK     1      19.196  -5.504  14.820  1.00  0.00     0.065 A 
HETATM   13  C12 UNK     1      20.345  -4.805  15.189  1.00  0.00     0.037 A 
HETATM   14  C9  UNK     1      20.242  -3.501  15.672  1.00  0.00     0.014 A 
BRANCH  12  15
HETATM   15  O3  UNK     1      19.297  -6.776  14.347  1.00  0.00    -0.361 OA
HETATM   16  H12 UNK     1      19.900  -6.782  13.584  1.00  0.00     0.217 HD
ENDBRANCH  12  15
ENDBRANCH   8   9
ENDBRANCH   1   7
BRANCH   5  17
HETATM   17  O2  UNK     1      18.495   1.968  21.245  1.00  0.00    -0.361 OA
HETATM   18  H11 UNK     1      17.648   1.571  21.511  1.00  0.00     0.217 HD
ENDBRANCH   5  17
BRANCH   4  19
HETATM   19  O1  UNK     1      19.121   3.631  16.814  1.00  0.00    -0.361 OA
HETATM   20  H10 UNK     1      20.063   3.849  16.704  1.00  0.00     0.217 HD
ENDBRANCH   4  19
TORSDOF 5
ENDMDL
MODEL 6
REMARK VINA RESULT:      -7.3     12.136     15.397
REMARK  5 active torsions:
REMARK  status: ('A' for Active; 'I' for Inactive)
REMARK    1  A    between atoms: C7_10  and  O1_1 
REMARK    2  A    between atoms: C8_11  and  O2_2 
REMARK    3  A    between atoms: C14_17  and  O3_3 
REMARK    4  A    between atoms: C1_4  and  C3_6 
REMARK    5  A    between atoms: C2_5  and  C4_7 
ROOT
HETATM    1  C1  UNK     1      18.951   0.198  18.054  1.00  0.00    -0.031 A 
HETATM    2  C5  UNK     1      19.067   1.256  17.166  1.00  0.00     0.048 A 
HETATM    3  C6  UNK     1      18.778   0.412  19.411  1.00  0.00     0.048 A 
HETATM    4  C7  UNK     1      18.720   1.719  19.895  1.00  0.00     0.069 A 
HETATM    5  C8  UNK     1      19.007   2.562  17.648  1.00  0.00     0.069 A 
HETATM    6  C11 UNK     1      18.834   2.794  19.013  1.00  0.00     0.073 A 
ENDROOT
BRANCH   1   7
HETATM    7  C3  UNK     1      19.014  -1.183  17.543  1.00  0.00     0.012 C 
HETATM    8  C4  UNK     1      18.982  -1.534  16.236  1.00  0.00     0.012 C 
BRANCH   8   9
HETATM    9  C2  UNK     1      19.064  -2.895  15.730  1.00  0.00    -0.036 A 
HETATM   10  C10 UNK     1      20.297  -3.545  15.673  1.00  0.00     0.014 A 
HETATM   11  C13 UNK     1      20.376  -4.851  15.190  1.00  0.00     0.037 A 
HETATM   12  C14 UNK     1      19.221  -5.507  14.764  1.00  0.00     0.065 A 
HETATM   13  C12 UNK     1      17.988  -4.858  14.822  1.00  0.00     0.037 A 
HETATM   14  C9  UNK     1      17.910  -3.552  15.306  1.00  0.00     0.014 A 
BRANCH  12  15
HETATM   15  O3  UNK     1      19.298  -6.782  14.293  1.00  0.00    -0.361 OA
HETATM   16  H12 UNK     1      19.298  -6.759  13.321  1.00  0.00     0.217 HD
ENDBRANCH  12  15
ENDBRANCH   8   9
ENDBRANCH   1   7
BRANCH   5  17
HETATM   17  O2  UNK     1      19.121   3.612  16.789  1.00  0.00    -0.361 OA
HETATM   18  H11 UNK     1      18.744   3.359  15.930  1.00  0.00     0.217 HD
ENDBRANCH   5  17
BRANCH   4  19
HETATM   19  O1  UNK     1      18.550   1.946  21.226  1.00  0.00    -0.361 OA
HETATM   20  H10 UNK     1      19.184   1.401  21.722  1.00  0.00     0.217 HD
ENDBRANCH   4  19
TORSDOF 5
ENDMDL
MODEL 7
REMARK VINA RESULT:      -7.3      4.694      6.662
REMARK  5 active torsions:
REMARK  status: ('A' for Active; 'I' for Inactive)
REMARK    1  A    between atoms: C7_10  and  O1_1 
REMARK    2  A    between atoms: C8_11  and  O2_2 
REMARK    3  A    between atoms: C14_17  and  O3_3 
REMARK    4  A    between atoms: C1_4  and  C3_6 
REMARK    5  A    between atoms: C2_5  and  C4_7 
ROOT
HETATM    1  C1  UNK     1      17.999   1.039  35.207  1.00  0.00    -0.031 A 
HETATM    2  C5  UNK     1      17.798  -0.326  35.073  1.00  0.00     0.048 A 
HETATM    3  C6  UNK     1      18.011   1.648  36.451  1.00  0.00     0.048 A 
HETATM    4  C7  UNK     1      17.815   0.871  37.593  1.00  0.00     0.069 A 
HETATM    5  C8  UNK     1      17.603  -1.102  36.214  1.00  0.00     0.069 A 
HETATM    6  C11 UNK     1      17.612  -0.504  37.475  1.00  0.00     0.073 A 
ENDROOT
BRANCH   1   7
HETATM    7  C3  UNK     1      18.205   1.860  34.000  1.00  0.00     0.012 C 
HETATM    8  C4  UNK     1      18.183   3.213  33.964  1.00  0.00     0.012 C 
BRANCH   8   9
HETATM    9  C2  UNK     1      18.405   4.025  32.777  1.00  0.00    -0.036 A 
HETATM   10  C10 UNK     1      18.558   5.406  32.896  1.00  0.00     0.014 A 
HETATM   11  C13 UNK     1      18.771   6.184  31.758  1.00  0.00     0.037 A 
HETATM   12  C14 UNK     1      18.832   5.581  30.502  1.00  0.00     0.065 A 
HETATM   13  C12 UNK     1      18.680   4.199  30.384  1.00  0.00     0.037 A 
HETATM   14  C9  UNK     1      18.466   3.422  31.522  1.00  0.00     0.014 A 
BRANCH  12  15
HETATM   15  O3  UNK     1      19.041   6.339  29.392  1.00  0.00    -0.361 OA
HETATM   16  H12 UNK     1      18.462   7.120  29.431  1.00  0.00     0.217 HD
ENDBRANCH  12  15
ENDBRANCH   8   9
ENDBRANCH   1   7
BRANCH   5  17
HETATM   17  O2  UNK     1      17.403  -2.444  36.100  1.00  0.00    -0.361 OA
HETATM   18  H11 UNK     1      18.023  -2.907  36.688  1.00  0.00     0.217 HD
ENDBRANCH   5  17
BRANCH   4  19
HETATM   19  O1  UNK     1      17.825   1.454  38.823  1.00  0.00    -0.361 OA
HETATM   20  H10 UNK     1      17.040   2.023  38.908  1.00  0.00     0.217 HD
ENDBRANCH   4  19
TORSDOF 5
ENDMDL
MODEL 8
REMARK VINA RESULT:      -7.3      4.690      6.732
REMARK  5 active torsions:
REMARK  status: ('A' for Active; 'I' for Inactive)
REMARK    1  A    between atoms: C7_10  and  O1_1 
REMARK    2  A    between atoms: C8_11  and  O2_2 
REMARK    3  A    between atoms: C14_17  and  O3_3 
REMARK    4  A    between atoms: C1_4  and  C3_6 
REMARK    5  A    between atoms: C2_5  and  C4_7 
ROOT
HETATM    1  C1  UNK     1      17.998   1.035  35.199  1.00  0.00    -0.031 A 
HETATM    2  C5  UNK     1      18.008   1.639  36.446  1.00  0.00     0.048 A 
HETATM    3  C6  UNK     1      17.794  -0.328  35.059  1.00  0.00     0.048 A 
HETATM    4  C7  UNK     1      17.596  -1.109  36.197  1.00  0.00     0.069 A 
HETATM    5  C8  UNK     1      17.809   0.859  37.584  1.00  0.00     0.069 A 
HETATM    6  C11 UNK     1      17.603  -0.516  37.460  1.00  0.00     0.073 A 
ENDROOT
BRANCH   1   7
HETATM    7  C3  UNK     1      18.209   1.860  33.996  1.00  0.00     0.012 C 
HETATM    8  C4  UNK     1      18.178   3.214  33.962  1.00  0.00     0.012 C 
BRANCH   8   9
HETATM    9  C2  UNK     1      18.406   4.029  32.779  1.00  0.00    -0.036 A 
HETATM   10  C10 UNK     1      18.471   3.429  31.522  1.00  0.00     0.014 A 
HETATM   11  C13 UNK     1      18.689   4.210  30.387  1.00  0.00     0.037 A 
HETATM   12  C14 UNK     1      18.840   5.591  30.510  1.00  0.00     0.065 A 
HETATM   13  C12 UNK     1      18.772   6.191  31.767  1.00  0.00     0.037 A 
HETATM   14  C9  UNK     1      18.556   5.409  32.902  1.00  0.00     0.014 A 
BRANCH  12  15
HETATM   15  O3  UNK     1      19.050   6.354  29.403  1.00  0.00    -0.361 OA
HETATM   16  H12 UNK     1      19.055   5.777  28.619  1.00  0.00     0.217 HD
ENDBRANCH  12  15
ENDBRANCH   8   9
ENDBRANCH   1   7
BRANCH   5  17
HETATM   17  O2  UNK     1      17.818   1.436  38.817  1.00  0.00    -0.361 OA
HETATM   18  H11 UNK     1      18.675   1.262  39.241  1.00  0.00     0.217 HD
ENDBRANCH   5  17
BRANCH   4  19
HETATM   19  O1  UNK     1      17.394  -2.450  36.077  1.00  0.00    -0.361 OA
HETATM   20  H10 UNK     1      17.207  -2.658  35.145  1.00  0.00     0.217 HD
ENDBRANCH   4  19
TORSDOF 5
ENDMDL
MODEL 9
REMARK VINA RESULT:      -6.9     12.372     17.205
REMARK  5 active torsions:
REMARK  status: ('A' for Active; 'I' for Inactive)
REMARK    1  A    between atoms: C7_10  and  O1_1 
REMARK    2  A    between atoms: C8_11  and  O2_2 
REMARK    3  A    between atoms: C14_17  and  O3_3 
REMARK    4  A    between atoms: C1_4  and  C3_6 
REMARK    5  A    between atoms: C2_5  and  C4_7 
ROOT
HETATM    1  C1  UNK     1      18.895  -2.148  15.410  1.00  0.00    -0.031 A 
HETATM    2  C5  UNK     1      18.851  -3.533  15.375  1.00  0.00     0.048 A 
HETATM    3  C6  UNK     1      18.918  -1.398  14.245  1.00  0.00     0.048 A 
HETATM    4  C7  UNK     1      18.897  -2.050  13.012  1.00  0.00     0.069 A 
HETATM    5  C8  UNK     1      18.830  -4.185  14.143  1.00  0.00     0.069 A 
HETATM    6  C11 UNK     1      18.853  -3.444  12.962  1.00  0.00     0.073 A 
ENDROOT
BRANCH   1   7
HETATM    7  C3  UNK     1      18.918  -1.459  16.712  1.00  0.00     0.012 C 
HETATM    8  C4  UNK     1      19.025  -0.120  16.885  1.00  0.00     0.012 C 
BRANCH   8   9
HETATM    9  C2  UNK     1      19.029   0.562  18.169  1.00  0.00    -0.036 A 
HETATM   10  C10 UNK     1      19.028  -0.177  19.352  1.00  0.00     0.014 A 
HETATM   11  C13 UNK     1      19.032   0.476  20.584  1.00  0.00     0.037 A 
HETATM   12  C14 UNK     1      19.037   1.870  20.633  1.00  0.00     0.065 A 
HETATM   13  C12 UNK     1      19.039   2.610  19.450  1.00  0.00     0.037 A 
HETATM   14  C9  UNK     1      19.035   1.956  18.219  1.00  0.00     0.014 A 
BRANCH  12  15
HETATM   15  O3  UNK     1      19.042   2.509  21.835  1.00  0.00    -0.361 OA
HETATM   16  H12 UNK     1      19.944   2.490  22.197  1.00  0.00     0.217 HD
ENDBRANCH  12  15
ENDBRANCH   8   9
ENDBRANCH   1   7
BRANCH   5  17
HETATM   17  O2  UNK     1      18.789  -5.545  14.092  1.00  0.00    -0.361 OA
HETATM   18  H11 UNK     1      19.409  -5.904  14.749  1.00  0.00     0.217 HD
ENDBRANCH   5  17
BRANCH   4  19
HETATM   19  O1  UNK     1      18.919  -1.327  11.859  1.00  0.00    -0.361 OA
HETATM   20  H10 UNK     1      18.936  -0.381  12.081  1.00  0.00     0.217 HD
ENDBRANCH   4  19
TORSDOF 5
ENDMDL
MODEL 10
REMARK VINA RESULT:      -6.9     12.402     17.181
REMARK  5 active torsions:
REMARK  status: ('A' for Active; 'I' for Inactive)
REMARK    1  A    between atoms: C7_10  and  O1_1 
REMARK    2  A    between atoms: C8_11  and  O2_2 
REMARK    3  A    between atoms: C14_17  and  O3_3 
REMARK    4  A    between atoms: C1_4  and  C3_6 
REMARK    5  A    between atoms: C2_5  and  C4_7 
ROOT
HETATM    1  C1  UNK     1      18.962  -2.135  15.374  1.00  0.00    -0.031 A 
HETATM    2  C5  UNK     1      18.951  -1.382  14.211  1.00  0.00     0.048 A 
HETATM    3  C6  UNK     1      18.944  -3.520  15.337  1.00  0.00     0.048 A 
HETATM    4  C7  UNK     1      18.916  -4.170  14.102  1.00  0.00     0.069 A 
HETATM    5  C8  UNK     1      18.923  -2.031  12.977  1.00  0.00     0.069 A 
HETATM    6  C11 UNK     1      18.905  -3.425  12.923  1.00  0.00     0.073 A 
ENDROOT
BRANCH   1   7
HETATM    7  C3  UNK     1      18.991  -1.449  16.678  1.00  0.00     0.012 C 
HETATM    8  C4  UNK     1      19.002  -0.106  16.853  1.00  0.00     0.012 C 
BRANCH   8   9
HETATM    9  C2  UNK     1      19.011   0.571  18.140  1.00  0.00    -0.036 A 
HETATM   10  C10 UNK     1      19.045   1.965  18.193  1.00  0.00     0.014 A 
HETATM   11  C13 UNK     1      19.054   2.616  19.427  1.00  0.00     0.037 A 
HETATM   12  C14 UNK     1      19.028   1.872  20.607  1.00  0.00     0.065 A 
HETATM   13  C12 UNK     1      18.992   0.479  20.553  1.00  0.00     0.037 A 
HETATM   14  C9  UNK     1      18.984  -0.171  19.319  1.00  0.00     0.014 A 
BRANCH  12  15
HETATM   15  O3  UNK     1      19.034   2.507  21.811  1.00  0.00    -0.361 OA
HETATM   16  H12 UNK     1      18.972   3.466  21.662  1.00  0.00     0.217 HD
ENDBRANCH  12  15
ENDBRANCH   8   9
ENDBRANCH   1   7
BRANCH   5  17
HETATM   17  O2  UNK     1      18.911  -1.306  11.825  1.00  0.00    -0.361 OA
HETATM   18  H11 UNK     1      19.807  -1.295  11.450  1.00  0.00     0.217 HD
ENDBRANCH   5  17
BRANCH   4  19
HETATM   19  O1  UNK     1      18.899  -5.530  14.049  1.00  0.00    -0.361 OA
HETATM   20  H10 UNK     1      19.522  -5.879  14.709  1.00  0.00     0.217 HD
ENDBRANCH   4  19
TORSDOF 5
ENDMDL
