MODEL 1
REMARK VINA RESULT:      -9.8      0.000      0.000
REMARK  3 active torsions:
REMARK  status: ('A' for Active; 'I' for Inactive)
REMARK    1  A    between atoms: C1_8  and  N1_6 
REMARK       I    between atoms: C7_14  and  N1_6 
REMARK    2  A    between atoms: C10_17  and  N2_7 
REMARK    3  A    between atoms: C4_11  and  C7_14 
ROOT
HETATM    1  O2  UNK     1      17.623   3.117  33.013  1.00  0.00    -0.267 OA
HETATM    2  N1  UNK     1      18.592   4.682  31.544  1.00  0.00    -0.322 N 
HETATM    3  C7  UNK     1      18.241   3.416  31.993  1.00  0.00     0.262 C 
HETATM    4  H2  UNK     1      19.087   4.745  30.660  1.00  0.00     0.169 HD
ENDROOT
BRANCH   3   5
HETATM    5  C4  UNK     1      18.702   2.360  31.084  1.00  0.00     0.108 A 
HETATM    6  C12 UNK     1      18.732   2.544  29.616  1.00  0.00     0.304 A 
HETATM    7  O1  UNK     1      19.191   1.469  28.861  1.00  0.00    -0.274 OA
HETATM    8  O3  UNK     1      18.371   3.590  29.087  1.00  0.00    -0.259 OA
HETATM    9  C5  UNK     1      19.607   0.264  29.459  1.00  0.00     0.089 A 
HETATM   10  C15 UNK     1      20.051  -0.757  28.619  1.00  0.00     0.038 A 
HETATM   11  C3  UNK     1      19.572   0.112  30.841  1.00  0.00    -0.001 A 
HETATM   12  C17 UNK     1      20.470  -1.960  29.183  1.00  0.00     0.003 A 
HETATM   13  C16 UNK     1      20.441  -2.132  30.568  1.00  0.00     0.001 A 
HETATM   14  C14 UNK     1      19.993  -1.099  31.397  1.00  0.00     0.014 A 
HETATM   15  C6  UNK     1      19.098   1.217  31.659  1.00  0.00     0.037 A 
ENDBRANCH   3   5
BRANCH   2  16
HETATM   16  C1  UNK     1      18.313   5.926  32.161  1.00  0.00     0.041 A 
HETATM   17  C2  UNK     1      19.340   6.678  32.707  1.00  0.00    -0.033 A 
HETATM   18  C13 UNK     1      20.761   6.219  32.667  1.00  0.00     0.050 C 
HETATM   19  C8  UNK     1      19.045   7.900  33.312  1.00  0.00     0.045 A 
HETATM   20  C10 UNK     1      17.726   8.352  33.364  1.00  0.00     0.103 A 
HETATM   21  C11 UNK     1      16.702   7.583  32.810  1.00  0.00     0.038 A 
HETATM   22  C9  UNK     1      16.997   6.361  32.204  1.00  0.00     0.032 A 
BRANCH  20  23
HETATM   23  N2  UNK     1      17.424   9.594  33.981  1.00  0.00    -0.116 N 
HETATM   24  O4  UNK     1      18.053  10.619  33.624  1.00  0.00    -0.532 OA
HETATM   25  O5  UNK     1      16.535   9.633  34.867  1.00  0.00    -0.532 OA
ENDBRANCH  20  23
ENDBRANCH   2  16
TORSDOF 3
ENDMDL
MODEL 2
REMARK VINA RESULT:      -9.7      8.980     12.979
REMARK  3 active torsions:
REMARK  status: ('A' for Active; 'I' for Inactive)
REMARK    1  A    between atoms: C1_8  and  N1_6 
REMARK       I    between atoms: C7_14  and  N1_6 
REMARK    2  A    between atoms: C10_17  and  N2_7 
REMARK    3  A    between atoms: C4_11  and  C7_14 
ROOT
HETATM    1  O2  UNK     1      21.356  -4.532  37.031  1.00  0.00    -0.267 OA
HETATM    2  N1  UNK     1      19.102  -5.212  37.026  1.00  0.00    -0.322 N 
HETATM    3  C7  UNK     1      20.157  -4.326  36.857  1.00  0.00     0.262 C 
HETATM    4  H2  UNK     1      18.168  -4.876  36.813  1.00  0.00     0.169 HD
ENDROOT
BRANCH   3   5
HETATM    5  C4  UNK     1      19.701  -3.003  36.415  1.00  0.00     0.108 A 
HETATM    6  C12 UNK     1      19.998  -2.480  35.063  1.00  0.00     0.304 A 
HETATM    7  O1  UNK     1      19.512  -1.211  34.762  1.00  0.00    -0.274 OA
HETATM    8  O3  UNK     1      20.642  -3.129  34.245  1.00  0.00    -0.259 OA
HETATM    9  C5  UNK     1      18.772  -0.459  35.694  1.00  0.00     0.089 A 
HETATM   10  C15 UNK     1      18.326   0.802  35.301  1.00  0.00     0.038 A 
HETATM   11  C3  UNK     1      18.502  -0.969  36.960  1.00  0.00    -0.001 A 
HETATM   12  C17 UNK     1      17.590   1.569  36.201  1.00  0.00     0.003 A 
HETATM   13  C16 UNK     1      17.311   1.075  37.477  1.00  0.00     0.001 A 
HETATM   14  C14 UNK     1      17.766  -0.192  37.857  1.00  0.00     0.014 A 
HETATM   15  C6  UNK     1      18.997  -2.292  37.305  1.00  0.00     0.037 A 
ENDBRANCH   3   5
BRANCH   2  16
HETATM   16  C1  UNK     1      19.168  -6.566  37.439  1.00  0.00     0.041 A 
HETATM   17  C2  UNK     1      18.716  -7.572  36.602  1.00  0.00    -0.033 A 
HETATM   18  C13 UNK     1      18.149  -7.278  35.250  1.00  0.00     0.050 C 
HETATM   19  C8  UNK     1      18.788  -8.898  37.026  1.00  0.00     0.045 A 
HETATM   20  C10 UNK     1      19.312  -9.201  38.284  1.00  0.00     0.103 A 
HETATM   21  C11 UNK     1      19.765  -8.176  39.116  1.00  0.00     0.038 A 
HETATM   22  C9  UNK     1      19.692  -6.849  38.691  1.00  0.00     0.032 A 
BRANCH  20  23
HETATM   23  N2  UNK     1      19.386 -10.550  38.718  1.00  0.00    -0.116 N 
HETATM   24  O4  UNK     1      19.365 -10.796  39.948  1.00  0.00    -0.532 OA
HETATM   25  O5  UNK     1      19.469 -11.461  37.858  1.00  0.00    -0.532 OA
ENDBRANCH  20  23
ENDBRANCH   2  16
TORSDOF 3
ENDMDL
MODEL 3
REMARK VINA RESULT:      -9.5      1.128      1.973
REMARK  3 active torsions:
REMARK  status: ('A' for Active; 'I' for Inactive)
REMARK    1  A    between atoms: C1_8  and  N1_6 
REMARK       I    between atoms: C7_14  and  N1_6 
REMARK    2  A    between atoms: C10_17  and  N2_7 
REMARK    3  A    between atoms: C4_11  and  C7_14 
ROOT
HETATM    1  O2  UNK     1      18.006   4.537  30.466  1.00  0.00    -0.267 OA
HETATM    2  N1  UNK     1      18.362   4.616  32.792  1.00  0.00    -0.322 N 
HETATM    3  C7  UNK     1      18.293   4.017  31.542  1.00  0.00     0.262 C 
HETATM    4  H2  UNK     1      18.640   4.035  33.576  1.00  0.00     0.169 HD
ENDROOT
BRANCH   3   5
HETATM    5  C4  UNK     1      18.618   2.587  31.596  1.00  0.00     0.108 A 
HETATM    6  C12 UNK     1      18.325   1.759  32.788  1.00  0.00     0.304 A 
HETATM    7  O1  UNK     1      18.679   0.415  32.718  1.00  0.00    -0.274 OA
HETATM    8  O3  UNK     1      17.798   2.230  33.790  1.00  0.00    -0.259 OA
HETATM    9  C5  UNK     1      19.285  -0.135  31.572  1.00  0.00     0.089 A 
HETATM   10  C15 UNK     1      19.603  -1.492  31.595  1.00  0.00     0.038 A 
HETATM   11  C3  UNK     1      19.550   0.660  30.462  1.00  0.00    -0.001 A 
HETATM   12  C17 UNK     1      20.202  -2.065  30.476  1.00  0.00     0.003 A 
HETATM   13  C16 UNK     1      20.478  -1.282  29.352  1.00  0.00     0.001 A 
HETATM   14  C14 UNK     1      20.153   0.077  29.344  1.00  0.00     0.014 A 
HETATM   15  C6  UNK     1      19.192   2.069  30.503  1.00  0.00     0.037 A 
ENDBRANCH   3   5
BRANCH   2  16
HETATM   16  C1  UNK     1      18.116   5.974  33.114  1.00  0.00     0.041 A 
HETATM   17  C2  UNK     1      19.169   6.867  33.215  1.00  0.00    -0.033 A 
HETATM   18  C13 UNK     1      20.585   6.445  32.991  1.00  0.00     0.050 C 
HETATM   19  C8  UNK     1      18.907   8.199  33.534  1.00  0.00     0.045 A 
HETATM   20  C10 UNK     1      17.594   8.620  33.748  1.00  0.00     0.103 A 
HETATM   21  C11 UNK     1      16.543   7.708  33.642  1.00  0.00     0.038 A 
HETATM   22  C9  UNK     1      16.806   6.376  33.323  1.00  0.00     0.032 A 
BRANCH  20  23
HETATM   23  N2  UNK     1      17.326   9.975  34.074  1.00  0.00    -0.116 N 
HETATM   24  O4  UNK     1      18.047  10.875  33.578  1.00  0.00    -0.532 OA
HETATM   25  O5  UNK     1      16.375  10.237  34.850  1.00  0.00    -0.532 OA
ENDBRANCH  20  23
ENDBRANCH   2  16
TORSDOF 3
ENDMDL
MODEL 4
REMARK VINA RESULT:      -9.1      8.056     10.215
REMARK  3 active torsions:
REMARK  status: ('A' for Active; 'I' for Inactive)
REMARK    1  A    between atoms: C1_8  and  N1_6 
REMARK       I    between atoms: C7_14  and  N1_6 
REMARK    2  A    between atoms: C10_17  and  N2_7 
REMARK    3  A    between atoms: C4_11  and  C7_14 
ROOT
HETATM    1  O2  UNK     1      21.089  -4.008  37.739  1.00  0.00    -0.267 OA
HETATM    2  N1  UNK     1      19.043  -3.894  36.579  1.00  0.00    -0.322 N 
HETATM    3  C7  UNK     1      20.135  -4.524  37.160  1.00  0.00     0.262 C 
HETATM    4  H2  UNK     1      18.330  -4.483  36.161  1.00  0.00     0.169 HD
ENDROOT
BRANCH   3   5
HETATM    5  C4  UNK     1      20.067  -5.984  37.026  1.00  0.00     0.108 A 
HETATM    6  C12 UNK     1      20.176  -6.658  35.713  1.00  0.00     0.304 A 
HETATM    7  O1  UNK     1      20.098  -8.048  35.715  1.00  0.00    -0.274 OA
HETATM    8  O3  UNK     1      20.327  -6.027  34.671  1.00  0.00    -0.259 OA
HETATM    9  C5  UNK     1      19.925  -8.780  36.905  1.00  0.00     0.089 A 
HETATM   10  C15 UNK     1      19.858 -10.169  36.806  1.00  0.00     0.038 A 
HETATM   11  C3  UNK     1      19.826  -8.127  38.129  1.00  0.00    -0.001 A 
HETATM   12  C17 UNK     1      19.688 -10.921  37.966  1.00  0.00     0.003 A 
HETATM   13  C16 UNK     1      19.585 -10.283  39.205  1.00  0.00     0.001 A 
HETATM   14  C14 UNK     1      19.654  -8.889  39.287  1.00  0.00     0.014 A 
HETATM   15  C6  UNK     1      19.904  -6.675  38.160  1.00  0.00     0.037 A 
ENDBRANCH   3   5
BRANCH   2  16
HETATM   16  C1  UNK     1      18.777  -2.504  36.521  1.00  0.00     0.041 A 
HETATM   17  C2  UNK     1      19.290  -1.740  35.486  1.00  0.00    -0.033 A 
HETATM   18  C13 UNK     1      20.129  -2.340  34.404  1.00  0.00     0.050 C 
HETATM   19  C8  UNK     1      19.019  -0.373  35.447  1.00  0.00     0.045 A 
HETATM   20  C10 UNK     1      18.239   0.213  36.445  1.00  0.00     0.103 A 
HETATM   21  C11 UNK     1      17.729  -0.571  37.481  1.00  0.00     0.038 A 
HETATM   22  C9  UNK     1      18.000  -1.938  37.520  1.00  0.00     0.032 A 
BRANCH  20  23
HETATM   23  N2  UNK     1      17.964   1.605  36.407  1.00  0.00    -0.116 N 
HETATM   24  O4  UNK     1      18.612   2.332  35.617  1.00  0.00    -0.532 OA
HETATM   25  O5  UNK     1      17.078   2.070  37.166  1.00  0.00    -0.532 OA
ENDBRANCH  20  23
ENDBRANCH   2  16
TORSDOF 3
ENDMDL
MODEL 5
REMARK VINA RESULT:      -9.0     14.697     19.379
REMARK  3 active torsions:
REMARK  status: ('A' for Active; 'I' for Inactive)
REMARK    1  A    between atoms: C1_8  and  N1_6 
REMARK       I    between atoms: C7_14  and  N1_6 
REMARK    2  A    between atoms: C10_17  and  N2_7 
REMARK    3  A    between atoms: C4_11  and  C7_14 
ROOT
HETATM    1  O2  UNK     1      17.880  -3.192  15.814  1.00  0.00    -0.267 OA
HETATM    2  N1  UNK     1      20.119  -3.025  15.105  1.00  0.00    -0.322 N 
HETATM    3  C7  UNK     1      18.928  -2.570  15.654  1.00  0.00     0.262 C 
HETATM    4  H2  UNK     1      20.898  -2.376  15.071  1.00  0.00     0.169 HD
ENDROOT
BRANCH   3   5
HETATM    5  C4  UNK     1      19.012  -1.165  16.068  1.00  0.00     0.108 A 
HETATM    6  C12 UNK     1      19.271  -0.074  15.102  1.00  0.00     0.304 A 
HETATM    7  O1  UNK     1      19.327   1.217  15.618  1.00  0.00    -0.274 OA
HETATM    8  O3  UNK     1      19.429  -0.293  13.906  1.00  0.00    -0.259 OA
HETATM    9  C5  UNK     1      19.147   1.478  16.989  1.00  0.00     0.089 A 
HETATM   10  C15 UNK     1      19.221   2.805  17.411  1.00  0.00     0.038 A 
HETATM   11  C3  UNK     1      18.904   0.439  17.881  1.00  0.00    -0.001 A 
HETATM   12  C17 UNK     1      19.045   3.094  18.762  1.00  0.00     0.003 A 
HETATM   13  C16 UNK     1      18.802   2.064  19.673  1.00  0.00     0.001 A 
HETATM   14  C14 UNK     1      18.730   0.738  19.234  1.00  0.00     0.014 A 
HETATM   15  C6  UNK     1      18.839  -0.923  17.374  1.00  0.00     0.037 A 
ENDBRANCH   3   5
BRANCH   2  16
HETATM   16  C1  UNK     1      20.400  -4.320  14.603  1.00  0.00     0.041 A 
HETATM   17  C2  UNK     1      20.092  -4.639  13.291  1.00  0.00    -0.033 A 
HETATM   18  C13 UNK     1      19.463  -3.649  12.365  1.00  0.00     0.050 C 
HETATM   19  C8  UNK     1      20.374  -5.920  12.815  1.00  0.00     0.045 A 
HETATM   20  C10 UNK     1      20.961  -6.864  13.659  1.00  0.00     0.103 A 
HETATM   21  C11 UNK     1      21.266  -6.526  14.978  1.00  0.00     0.038 A 
HETATM   22  C9  UNK     1      20.983  -5.246  15.454  1.00  0.00     0.032 A 
BRANCH  20  23
HETATM   23  N2  UNK     1      21.248  -8.168  13.176  1.00  0.00    -0.116 N 
HETATM   24  O4  UNK     1      22.307  -8.732  13.542  1.00  0.00    -0.532 OA
HETATM   25  O5  UNK     1      20.433  -8.720  12.397  1.00  0.00    -0.532 OA
ENDBRANCH  20  23
ENDBRANCH   2  16
TORSDOF 3
ENDMDL
MODEL 6
REMARK VINA RESULT:      -8.7     14.703     16.344
REMARK  3 active torsions:
REMARK  status: ('A' for Active; 'I' for Inactive)
REMARK    1  A    between atoms: C1_8  and  N1_6 
REMARK       I    between atoms: C7_14  and  N1_6 
REMARK    2  A    between atoms: C10_17  and  N2_7 
REMARK    3  A    between atoms: C4_11  and  C7_14 
ROOT
HETATM    1  O2  UNK     1      25.863  -9.115  39.471  1.00  0.00    -0.267 OA
HETATM    2  N1  UNK     1      24.600  -7.651  38.128  1.00  0.00    -0.322 N 
HETATM    3  C7  UNK     1      25.720  -8.076  38.829  1.00  0.00     0.262 C 
HETATM    4  H2  UNK     1      24.665  -6.769  37.631  1.00  0.00     0.169 HD
ENDROOT
BRANCH   3   5
HETATM    5  C4  UNK     1      26.824  -7.113  38.744  1.00  0.00     0.108 A 
HETATM    6  C12 UNK     1      26.601  -5.652  38.820  1.00  0.00     0.304 A 
HETATM    7  O1  UNK     1      27.728  -4.842  38.728  1.00  0.00    -0.274 OA
HETATM    8  O3  UNK     1      25.479  -5.175  38.958  1.00  0.00    -0.259 OA
HETATM    9  C5  UNK     1      29.020  -5.380  38.570  1.00  0.00     0.089 A 
HETATM   10  C15 UNK     1      30.088  -4.488  38.487  1.00  0.00     0.038 A 
HETATM   11  C3  UNK     1      29.208  -6.757  38.501  1.00  0.00    -0.001 A 
HETATM   12  C17 UNK     1      31.377  -4.992  38.332  1.00  0.00     0.003 A 
HETATM   13  C16 UNK     1      31.586  -6.371  38.259  1.00  0.00     0.001 A 
HETATM   14  C14 UNK     1      30.505  -7.252  38.344  1.00  0.00     0.014 A 
HETATM   15  C6  UNK     1      28.050  -7.631  38.595  1.00  0.00     0.037 A 
ENDBRANCH   3   5
BRANCH   2  16
HETATM   16  C1  UNK     1      23.360  -8.322  37.991  1.00  0.00     0.041 A 
HETATM   17  C2  UNK     1      22.358  -8.131  38.928  1.00  0.00    -0.033 A 
HETATM   18  C13 UNK     1      22.539  -7.223  40.102  1.00  0.00     0.050 C 
HETATM   19  C8  UNK     1      21.145  -8.802  38.777  1.00  0.00     0.045 A 
HETATM   20  C10 UNK     1      20.950  -9.655  37.691  1.00  0.00     0.103 A 
HETATM   21  C11 UNK     1      21.968  -9.837  36.755  1.00  0.00     0.038 A 
HETATM   22  C9  UNK     1      23.182  -9.166  36.906  1.00  0.00     0.032 A 
BRANCH  20  23
HETATM   23  N2  UNK     1      19.716 -10.340  37.537  1.00  0.00    -0.116 N 
HETATM   24  O4  UNK     1      18.761  -9.753  36.973  1.00  0.00    -0.532 OA
HETATM   25  O5  UNK     1      19.614 -11.513  37.970  1.00  0.00    -0.532 OA
ENDBRANCH  20  23
ENDBRANCH   2  16
TORSDOF 3
ENDMDL
MODEL 7
REMARK VINA RESULT:      -8.6      2.321      8.529
REMARK  3 active torsions:
REMARK  status: ('A' for Active; 'I' for Inactive)
REMARK    1  A    between atoms: C1_8  and  N1_6 
REMARK       I    between atoms: C7_14  and  N1_6 
REMARK    2  A    between atoms: C10_17  and  N2_7 
REMARK    3  A    between atoms: C4_11  and  C7_14 
ROOT
HETATM    1  O2  UNK     1      19.725   5.492  31.329  1.00  0.00    -0.267 OA
HETATM    2  N1  UNK     1      18.030   3.942  31.847  1.00  0.00    -0.322 N 
HETATM    3  C7  UNK     1      18.671   5.173  31.875  1.00  0.00     0.262 C 
HETATM    4  H2  UNK     1      17.147   3.862  32.341  1.00  0.00     0.169 HD
ENDROOT
BRANCH   3   5
HETATM    5  C4  UNK     1      17.937   6.161  32.675  1.00  0.00     0.108 A 
HETATM    6  C12 UNK     1      18.486   6.720  33.930  1.00  0.00     0.304 A 
HETATM    7  O1  UNK     1      17.695   7.650  34.599  1.00  0.00    -0.274 OA
HETATM    8  O3  UNK     1      19.584   6.385  34.363  1.00  0.00    -0.259 OA
HETATM    9  C5  UNK     1      16.435   8.042  34.110  1.00  0.00     0.089 A 
HETATM   10  C15 UNK     1      15.716   8.980  34.849  1.00  0.00     0.038 A 
HETATM   11  C3  UNK     1      15.937   7.504  32.927  1.00  0.00    -0.001 A 
HETATM   12  C17 UNK     1      14.466   9.388  34.390  1.00  0.00     0.003 A 
HETATM   13  C16 UNK     1      13.949   8.858  33.206  1.00  0.00     0.001 A 
HETATM   14  C14 UNK     1      14.682   7.918  32.475  1.00  0.00     0.014 A 
HETATM   15  C6  UNK     1      16.739   6.530  32.204  1.00  0.00     0.037 A 
ENDBRANCH   3   5
BRANCH   2  16
HETATM   16  C1  UNK     1      18.447   2.766  31.177  1.00  0.00     0.041 A 
HETATM   17  C2  UNK     1      18.668   1.600  31.891  1.00  0.00    -0.033 A 
HETATM   18  C13 UNK     1      18.477   1.533  33.371  1.00  0.00     0.050 C 
HETATM   19  C8  UNK     1      19.079   0.452  31.213  1.00  0.00     0.045 A 
HETATM   20  C10 UNK     1      19.266   0.487  29.831  1.00  0.00     0.103 A 
HETATM   21  C11 UNK     1      19.038   1.670  29.126  1.00  0.00     0.038 A 
HETATM   22  C9  UNK     1      18.626   2.817  29.804  1.00  0.00     0.032 A 
BRANCH  20  23
HETATM   23  N2  UNK     1      19.686  -0.680  29.140  1.00  0.00    -0.116 N 
HETATM   24  O4  UNK     1      19.505  -0.752  27.901  1.00  0.00    -0.532 OA
HETATM   25  O5  UNK     1      20.227  -1.608  29.789  1.00  0.00    -0.532 OA
ENDBRANCH  20  23
ENDBRANCH   2  16
TORSDOF 3
ENDMDL
MODEL 8
REMARK VINA RESULT:      -8.5      7.494     11.580
REMARK  3 active torsions:
REMARK  status: ('A' for Active; 'I' for Inactive)
REMARK    1  A    between atoms: C1_8  and  N1_6 
REMARK       I    between atoms: C7_14  and  N1_6 
REMARK    2  A    between atoms: C10_17  and  N2_7 
REMARK    3  A    between atoms: C4_11  and  C7_14 
ROOT
HETATM    1  O2  UNK     1      21.070  -3.131  36.429  1.00  0.00    -0.267 OA
HETATM    2  N1  UNK     1      19.712  -4.677  35.283  1.00  0.00    -0.322 N 
HETATM    3  C7  UNK     1      20.326  -3.451  35.504  1.00  0.00     0.262 C 
HETATM    4  H2  UNK     1      19.144  -4.772  34.447  1.00  0.00     0.169 HD
ENDROOT
BRANCH   3   5
HETATM    5  C4  UNK     1      19.997  -2.472  34.462  1.00  0.00     0.108 A 
HETATM    6  C12 UNK     1      19.164  -1.280  34.738  1.00  0.00     0.304 A 
HETATM    7  O1  UNK     1      18.922  -0.425  33.666  1.00  0.00    -0.274 OA
HETATM    8  O3  UNK     1      18.707  -1.054  35.853  1.00  0.00    -0.259 OA
HETATM    9  C5  UNK     1      19.443  -0.676  32.383  1.00  0.00     0.089 A 
HETATM   10  C15 UNK     1      19.147   0.238  31.373  1.00  0.00     0.038 A 
HETATM   11  C3  UNK     1      20.225  -1.802  32.145  1.00  0.00    -0.001 A 
HETATM   12  C17 UNK     1      19.649   0.016  30.093  1.00  0.00     0.003 A 
HETATM   13  C16 UNK     1      20.434  -1.109  29.834  1.00  0.00     0.001 A 
HETATM   14  C14 UNK     1      20.722  -2.017  30.857  1.00  0.00     0.014 A 
HETATM   15  C6  UNK     1      20.496  -2.716  33.243  1.00  0.00     0.037 A 
ENDBRANCH   3   5
BRANCH   2  16
HETATM   16  C1  UNK     1      19.806  -5.845  36.078  1.00  0.00     0.041 A 
HETATM   17  C2  UNK     1      20.178  -7.049  35.504  1.00  0.00    -0.033 A 
HETATM   18  C13 UNK     1      20.494  -7.165  34.048  1.00  0.00     0.050 C 
HETATM   19  C8  UNK     1      20.263  -8.190  36.303  1.00  0.00     0.045 A 
HETATM   20  C10 UNK     1      19.973  -8.110  37.665  1.00  0.00     0.103 A 
HETATM   21  C11 UNK     1      19.600  -6.889  38.229  1.00  0.00     0.038 A 
HETATM   22  C9  UNK     1      19.515  -5.749  37.430  1.00  0.00     0.032 A 
BRANCH  20  23
HETATM   23  N2  UNK     1      20.058  -9.270  38.479  1.00  0.00    -0.116 N 
HETATM   24  O4  UNK     1      19.382 -10.281  38.171  1.00  0.00    -0.532 OA
HETATM   25  O5  UNK     1      20.808  -9.252  39.486  1.00  0.00    -0.532 OA
ENDBRANCH  20  23
ENDBRANCH   2  16
TORSDOF 3
ENDMDL
MODEL 9
REMARK VINA RESULT:      -8.5      7.453      9.661
REMARK  3 active torsions:
REMARK  status: ('A' for Active; 'I' for Inactive)
REMARK    1  A    between atoms: C1_8  and  N1_6 
REMARK       I    between atoms: C7_14  and  N1_6 
REMARK    2  A    between atoms: C10_17  and  N2_7 
REMARK    3  A    between atoms: C4_11  and  C7_14 
ROOT
HETATM    1  O2  UNK     1      21.307  -3.118  36.174  1.00  0.00    -0.267 OA
HETATM    2  N1  UNK     1      18.964  -2.914  36.278  1.00  0.00    -0.322 N 
HETATM    3  C7  UNK     1      20.189  -3.538  36.467  1.00  0.00     0.262 C 
HETATM    4  H2  UNK     1      18.135  -3.400  36.603  1.00  0.00     0.169 HD
ENDROOT
BRANCH   3   5
HETATM    5  C4  UNK     1      20.047  -4.854  37.099  1.00  0.00     0.108 A 
HETATM    6  C12 UNK     1      18.807  -5.653  36.981  1.00  0.00     0.304 A 
HETATM    7  O1  UNK     1      18.794  -6.887  37.625  1.00  0.00    -0.274 OA
HETATM    8  O3  UNK     1      17.836  -5.252  36.348  1.00  0.00    -0.259 OA
HETATM    9  C5  UNK     1      19.904  -7.357  38.354  1.00  0.00     0.089 A 
HETATM   10  C15 UNK     1      19.797  -8.605  38.964  1.00  0.00     0.038 A 
HETATM   11  C3  UNK     1      21.061  -6.590  38.452  1.00  0.00    -0.001 A 
HETATM   12  C17 UNK     1      20.879  -9.096  39.691  1.00  0.00     0.003 A 
HETATM   13  C16 UNK     1      22.048  -8.341  39.802  1.00  0.00     0.001 A 
HETATM   14  C14 UNK     1      22.140  -7.090  39.184  1.00  0.00     0.014 A 
HETATM   15  C6  UNK     1      21.106  -5.296  37.790  1.00  0.00     0.037 A 
ENDBRANCH   3   5
BRANCH   2  16
HETATM   16  C1  UNK     1      18.722  -1.643  35.701  1.00  0.00     0.041 A 
HETATM   17  C2  UNK     1      18.281  -0.593  36.491  1.00  0.00    -0.033 A 
HETATM   18  C13 UNK     1      18.047  -0.754  37.958  1.00  0.00     0.050 C 
HETATM   19  C8  UNK     1      18.047   0.651  35.905  1.00  0.00     0.045 A 
HETATM   20  C10 UNK     1      18.256   0.828  34.537  1.00  0.00     0.103 A 
HETATM   21  C11 UNK     1      18.701  -0.239  33.755  1.00  0.00     0.038 A 
HETATM   22  C9  UNK     1      18.935  -1.483  34.341  1.00  0.00     0.032 A 
BRANCH  20  23
HETATM   23  N2  UNK     1      18.017   2.093  33.939  1.00  0.00    -0.116 N 
HETATM   24  O4  UNK     1      17.526   2.139  32.786  1.00  0.00    -0.532 OA
HETATM   25  O5  UNK     1      18.305   3.133  34.582  1.00  0.00    -0.532 OA
ENDBRANCH  20  23
ENDBRANCH   2  16
TORSDOF 3
ENDMDL
MODEL 10
REMARK VINA RESULT:      -8.5     14.855     19.441
REMARK  3 active torsions:
REMARK  status: ('A' for Active; 'I' for Inactive)
REMARK    1  A    between atoms: C1_8  and  N1_6 
REMARK       I    between atoms: C7_14  and  N1_6 
REMARK    2  A    between atoms: C10_17  and  N2_7 
REMARK    3  A    between atoms: C4_11  and  C7_14 
ROOT
HETATM    1  O2  UNK     1      20.353  -3.471  16.166  1.00  0.00    -0.267 OA
HETATM    2  N1  UNK     1      18.341  -3.241  14.965  1.00  0.00    -0.322 N 
HETATM    3  C7  UNK     1      19.401  -2.812  15.752  1.00  0.00     0.262 C 
HETATM    4  H2  UNK     1      17.649  -2.550  14.695  1.00  0.00     0.169 HD
ENDROOT
BRANCH   3   5
HETATM    5  C4  UNK     1      19.300  -1.387  16.087  1.00  0.00     0.108 A 
HETATM    6  C12 UNK     1      19.361  -0.330  15.054  1.00  0.00     0.304 A 
HETATM    7  O1  UNK     1      19.253   0.985  15.497  1.00  0.00    -0.274 OA
HETATM    8  O3  UNK     1      19.501  -0.594  13.864  1.00  0.00    -0.259 OA
HETATM    9  C5  UNK     1      19.092   1.299  16.860  1.00  0.00     0.089 A 
HETATM   10  C15 UNK     1      18.992   2.645  17.208  1.00  0.00     0.038 A 
HETATM   11  C3  UNK     1      19.036   0.290  17.816  1.00  0.00    -0.001 A 
HETATM   12  C17 UNK     1      18.831   2.986  18.548  1.00  0.00     0.003 A 
HETATM   13  C16 UNK     1      18.774   1.987  19.523  1.00  0.00     0.001 A 
HETATM   14  C14 UNK     1      18.876   0.641  19.158  1.00  0.00     0.014 A 
HETATM   15  C6  UNK     1      19.146  -1.095  17.385  1.00  0.00     0.037 A 
ENDBRANCH   3   5
BRANCH   2  16
HETATM   16  C1  UNK     1      18.114  -4.543  14.456  1.00  0.00     0.041 A 
HETATM   17  C2  UNK     1      18.570  -4.885  13.193  1.00  0.00    -0.033 A 
HETATM   18  C13 UNK     1      19.308  -3.913  12.331  1.00  0.00     0.050 C 
HETATM   19  C8  UNK     1      18.336  -6.172  12.708  1.00  0.00     0.045 A 
HETATM   20  C10 UNK     1      17.649  -7.099  13.493  1.00  0.00     0.103 A 
HETATM   21  C11 UNK     1      17.197  -6.739  14.763  1.00  0.00     0.038 A 
HETATM   22  C9  UNK     1      17.431  -5.452  15.248  1.00  0.00     0.032 A 
BRANCH  20  23
HETATM   23  N2  UNK     1      17.409  -8.408  13.000  1.00  0.00    -0.116 N 
HETATM   24  O4  UNK     1      18.380  -9.096  12.602  1.00  0.00    -0.532 OA
HETATM   25  O5  UNK     1      16.232  -8.842  12.977  1.00  0.00    -0.532 OA
ENDBRANCH  20  23
ENDBRANCH   2  16
TORSDOF 3
ENDMDL
