MODEL 1
REMARK VINA RESULT:      -8.8      0.000      0.000
REMARK  3 active torsions:
REMARK  status: ('A' for Active; 'I' for Inactive)
REMARK    1  A    between atoms: C1_6  and  N1_4 
REMARK       I    between atoms: C5_10  and  N1_4 
REMARK    2  A    between atoms: C1_6  and  C2_7 
REMARK    3  A    between atoms: C4_9  and  C5_10 
ROOT
HETATM    1  O2  UNK     1      18.771   4.882  29.859  1.00  0.00    -0.267 OA
HETATM    2  N1  UNK     1      17.655   4.933  31.904  1.00  0.00    -0.348 N 
HETATM    3  C5  UNK     1      18.379   4.336  30.888  1.00  0.00     0.258 C 
HETATM    4  H2  UNK     1      17.329   4.368  32.683  1.00  0.00     0.163 HD
ENDROOT
BRANCH   3   5
HETATM    5  C4  UNK     1      18.662   2.918  31.144  1.00  0.00     0.108 A 
HETATM    6  C11 UNK     1      18.382   2.287  32.453  1.00  0.00     0.304 A 
HETATM    7  O1  UNK     1      18.692   0.935  32.574  1.00  0.00    -0.274 OA
HETATM    8  O3  UNK     1      17.898   2.917  33.388  1.00  0.00    -0.259 OA
HETATM    9  C8  UNK     1      19.247   0.202  31.506  1.00  0.00     0.089 A 
HETATM   10  C13 UNK     1      19.525  -1.146  31.723  1.00  0.00     0.038 A 
HETATM   11  C6  UNK     1      19.502   0.815  30.285  1.00  0.00    -0.001 A 
HETATM   12  C17 UNK     1      20.074  -1.898  30.686  1.00  0.00     0.003 A 
HETATM   13  C16 UNK     1      20.338  -1.299  29.453  1.00  0.00     0.001 A 
HETATM   14  C12 UNK     1      20.053   0.055  29.251  1.00  0.00     0.014 A 
HETATM   15  C7  UNK     1      19.187   2.227  30.127  1.00  0.00     0.037 A 
ENDBRANCH   3   5
BRANCH   2  16
HETATM   16  C1  UNK     1      17.259   6.322  31.878  1.00  0.00     0.114 C 
HETATM   17  C3  UNK     1      15.786   6.469  32.257  1.00  0.00     0.037 C 
BRANCH  16  18
HETATM   18  C2  UNK     1      18.166   7.169  32.745  1.00  0.00    -0.033 A 
HETATM   19  C10 UNK     1      17.722   8.396  33.191  1.00  0.00     0.028 A 
HETATM   20  C15 UNK     1      18.591   9.133  33.981  1.00  0.00     0.116 A 
HETATM   21  N2  UNK     1      19.830   8.721  34.330  1.00  0.00    -0.273 NA
HETATM   22  C14 UNK     1      20.214   7.511  33.866  1.00  0.00     0.116 A 
HETATM   23  C9  UNK     1      19.421   6.698  33.071  1.00  0.00     0.028 A 
ENDBRANCH  16  18
ENDBRANCH   2  16
TORSDOF 3
ENDMDL
MODEL 2
REMARK VINA RESULT:      -8.8     13.809     17.544
REMARK  3 active torsions:
REMARK  status: ('A' for Active; 'I' for Inactive)
REMARK    1  A    between atoms: C1_6  and  N1_4 
REMARK       I    between atoms: C5_10  and  N1_4 
REMARK    2  A    between atoms: C1_6  and  C2_7 
REMARK    3  A    between atoms: C4_9  and  C5_10 
ROOT
HETATM    1  O2  UNK     1      17.679  -2.110  15.893  1.00  0.00    -0.267 OA
HETATM    2  N1  UNK     1      19.834  -1.767  15.075  1.00  0.00    -0.348 N 
HETATM    3  C5  UNK     1      18.751  -1.510  15.897  1.00  0.00     0.258 C 
HETATM    4  H2  UNK     1      20.651  -1.166  15.123  1.00  0.00     0.163 HD
ENDROOT
BRANCH   3   5
HETATM    5  C4  UNK     1      18.993  -0.403  16.830  1.00  0.00     0.108 A 
HETATM    6  C11 UNK     1      19.222   0.982  16.362  1.00  0.00     0.304 A 
HETATM    7  O1  UNK     1      19.438   1.945  17.344  1.00  0.00    -0.274 OA
HETATM    8  O3  UNK     1      19.220   1.273  15.171  1.00  0.00    -0.259 OA
HETATM    9  C8  UNK     1      19.441   1.621  18.715  1.00  0.00     0.089 A 
HETATM   10  C13 UNK     1      19.668   2.654  19.623  1.00  0.00     0.038 A 
HETATM   11  C6  UNK     1      19.224   0.313  19.132  1.00  0.00    -0.001 A 
HETATM   12  C17 UNK     1      19.677   2.365  20.986  1.00  0.00     0.003 A 
HETATM   13  C16 UNK     1      19.462   1.057  21.424  1.00  0.00     0.001 A 
HETATM   14  C12 UNK     1      19.236   0.032  20.500  1.00  0.00     0.014 A 
HETATM   15  C7  UNK     1      18.994  -0.717  18.131  1.00  0.00     0.037 A 
ENDBRANCH   3   5
BRANCH   2  16
HETATM   16  C1  UNK     1      19.834  -2.812  14.076  1.00  0.00     0.114 C 
HETATM   17  C3  UNK     1      20.415  -2.297  12.760  1.00  0.00     0.037 C 
BRANCH  16  18
HETATM   18  C2  UNK     1      20.545  -4.051  14.577  1.00  0.00    -0.033 A 
HETATM   19  C10 UNK     1      20.259  -5.272  14.003  1.00  0.00     0.028 A 
HETATM   20  C15 UNK     1      20.936  -6.376  14.497  1.00  0.00     0.116 A 
HETATM   21  N2  UNK     1      21.845  -6.321  15.496  1.00  0.00    -0.273 NA
HETATM   22  C14 UNK     1      22.086  -5.100  16.022  1.00  0.00     0.116 A 
HETATM   23  C9  UNK     1      21.464  -3.936  15.599  1.00  0.00     0.028 A 
ENDBRANCH  16  18
ENDBRANCH   2  16
TORSDOF 3
ENDMDL
MODEL 3
REMARK VINA RESULT:      -8.8      6.844     11.311
REMARK  3 active torsions:
REMARK  status: ('A' for Active; 'I' for Inactive)
REMARK    1  A    between atoms: C1_6  and  N1_4 
REMARK       I    between atoms: C5_10  and  N1_4 
REMARK    2  A    between atoms: C1_6  and  C2_7 
REMARK    3  A    between atoms: C4_9  and  C5_10 
ROOT
HETATM    1  O2  UNK     1      20.873  -4.228  37.527  1.00  0.00    -0.267 OA
HETATM    2  N1  UNK     1      18.869  -4.947  36.579  1.00  0.00    -0.348 N 
HETATM    3  C5  UNK     1      19.829  -4.010  36.917  1.00  0.00     0.258 C 
HETATM    4  H2  UNK     1      18.012  -4.643  36.126  1.00  0.00     0.163 HD
ENDROOT
BRANCH   3   5
HETATM    5  C4  UNK     1      19.489  -2.656  36.464  1.00  0.00     0.108 A 
HETATM    6  C11 UNK     1      19.977  -2.113  35.176  1.00  0.00     0.304 A 
HETATM    7  O1  UNK     1      19.586  -0.816  34.856  1.00  0.00    -0.274 OA
HETATM    8  O3  UNK     1      20.690  -2.769  34.424  1.00  0.00    -0.259 OA
HETATM    9  C8  UNK     1      18.766  -0.054  35.712  1.00  0.00     0.089 A 
HETATM   10  C13 UNK     1      18.428   1.235  35.305  1.00  0.00     0.038 A 
HETATM   11  C6  UNK     1      18.318  -0.584  36.917  1.00  0.00    -0.001 A 
HETATM   12  C17 UNK     1      17.619   2.013  36.131  1.00  0.00     0.003 A 
HETATM   13  C16 UNK     1      17.160   1.499  37.345  1.00  0.00     0.001 A 
HETATM   14  C12 UNK     1      17.509   0.203  37.739  1.00  0.00     0.014 A 
HETATM   15  C7  UNK     1      18.709  -1.937  37.280  1.00  0.00     0.037 A 
ENDBRANCH   3   5
BRANCH   2  16
HETATM   16  C1  UNK     1      18.983  -6.348  36.916  1.00  0.00     0.114 C 
HETATM   17  C3  UNK     1      17.600  -6.974  37.087  1.00  0.00     0.037 C 
BRANCH  16  18
HETATM   18  C2  UNK     1      19.833  -7.088  35.906  1.00  0.00    -0.033 A 
HETATM   19  C10 UNK     1      20.517  -8.220  36.299  1.00  0.00     0.028 A 
HETATM   20  C15 UNK     1      21.282  -8.861  35.337  1.00  0.00     0.116 A 
HETATM   21  N2  UNK     1      21.392  -8.444  34.056  1.00  0.00    -0.273 NA
HETATM   22  C14 UNK     1      20.701  -7.330  33.726  1.00  0.00     0.116 A 
HETATM   23  C9  UNK     1      19.908  -6.618  34.612  1.00  0.00     0.028 A 
ENDBRANCH  16  18
ENDBRANCH   2  16
TORSDOF 3
ENDMDL
MODEL 4
REMARK VINA RESULT:      -8.7      1.695      2.838
REMARK  3 active torsions:
REMARK  status: ('A' for Active; 'I' for Inactive)
REMARK    1  A    between atoms: C1_6  and  N1_4 
REMARK       I    between atoms: C5_10  and  N1_4 
REMARK    2  A    between atoms: C1_6  and  C2_7 
REMARK    3  A    between atoms: C4_9  and  C5_10 
ROOT
HETATM    1  O2  UNK     1      17.527   2.524  33.712  1.00  0.00    -0.267 OA
HETATM    2  N1  UNK     1      18.512   4.283  32.544  1.00  0.00    -0.348 N 
HETATM    3  C5  UNK     1      18.176   2.960  32.764  1.00  0.00     0.258 C 
HETATM    4  H2  UNK     1      19.107   4.523  31.756  1.00  0.00     0.163 HD
ENDROOT
BRANCH   3   5
HETATM    5  C4  UNK     1      18.682   2.061  31.719  1.00  0.00     0.108 A 
HETATM    6  C11 UNK     1      18.804   2.488  30.308  1.00  0.00     0.304 A 
HETATM    7  O1  UNK     1      19.297   1.546  29.410  1.00  0.00    -0.274 OA
HETATM    8  O3  UNK     1      18.489   3.616  29.942  1.00  0.00    -0.259 OA
HETATM    9  C8  UNK     1      19.663   0.249  29.820  1.00  0.00     0.089 A 
HETATM   10  C13 UNK     1      20.146  -0.625  28.848  1.00  0.00     0.038 A 
HETATM   11  C6  UNK     1      19.540  -0.132  31.152  1.00  0.00    -0.001 A 
HETATM   12  C17 UNK     1      20.515  -1.915  29.223  1.00  0.00     0.003 A 
HETATM   13  C16 UNK     1      20.398  -2.316  30.555  1.00  0.00     0.001 A 
HETATM   14  C12 UNK     1      19.911  -1.427  31.519  1.00  0.00     0.014 A 
HETATM   15  C7  UNK     1      19.028   0.831  32.115  1.00  0.00     0.037 A 
ENDBRANCH   3   5
BRANCH   2  16
HETATM   16  C1  UNK     1      18.124   5.353  33.435  1.00  0.00     0.114 C 
HETATM   17  C3  UNK     1      19.342   5.907  34.172  1.00  0.00     0.037 C 
BRANCH  16  18
HETATM   18  C2  UNK     1      17.355   6.429  32.699  1.00  0.00    -0.033 A 
HETATM   19  C10 UNK     1      16.340   7.099  33.351  1.00  0.00     0.028 A 
HETATM   20  C15 UNK     1      15.665   8.074  32.633  1.00  0.00     0.116 A 
HETATM   21  N2  UNK     1      15.943   8.398  31.351  1.00  0.00    -0.273 NA
HETATM   22  C14 UNK     1      16.946   7.711  30.761  1.00  0.00     0.116 A 
HETATM   23  C9  UNK     1      17.681   6.719  31.391  1.00  0.00     0.028 A 
ENDBRANCH  16  18
ENDBRANCH   2  16
TORSDOF 3
ENDMDL
MODEL 5
REMARK VINA RESULT:      -8.6      2.267      7.451
REMARK  3 active torsions:
REMARK  status: ('A' for Active; 'I' for Inactive)
REMARK    1  A    between atoms: C1_6  and  N1_4 
REMARK       I    between atoms: C5_10  and  N1_4 
REMARK    2  A    between atoms: C1_6  and  C2_7 
REMARK    3  A    between atoms: C4_9  and  C5_10 
ROOT
HETATM    1  O2  UNK     1      16.912   2.729  30.744  1.00  0.00    -0.267 OA
HETATM    2  N1  UNK     1      19.162   2.145  30.908  1.00  0.00    -0.348 N 
HETATM    3  C5  UNK     1      18.075   2.989  31.043  1.00  0.00     0.258 C 
HETATM    4  H2  UNK     1      20.091   2.488  31.131  1.00  0.00     0.163 HD
ENDROOT
BRANCH   3   5
HETATM    5  C4  UNK     1      18.434   4.296  31.606  1.00  0.00     0.108 A 
HETATM    6  C11 UNK     1      19.483   5.150  31.003  1.00  0.00     0.304 A 
HETATM    7  O1  UNK     1      19.732   6.368  31.628  1.00  0.00    -0.274 OA
HETATM    8  O3  UNK     1      20.102   4.806  30.002  1.00  0.00    -0.259 OA
HETATM    9  C8  UNK     1      19.025   6.773  32.777  1.00  0.00     0.089 A 
HETATM   10  C13 UNK     1      19.347   8.010  33.332  1.00  0.00     0.038 A 
HETATM   11  C6  UNK     1      18.044   5.956  33.327  1.00  0.00    -0.001 A 
HETATM   12  C17 UNK     1      18.665   8.438  34.469  1.00  0.00     0.003 A 
HETATM   13  C16 UNK     1      17.677   7.630  35.037  1.00  0.00     0.001 A 
HETATM   14  C12 UNK     1      17.366   6.391  34.468  1.00  0.00     0.014 A 
HETATM   15  C7  UNK     1      17.759   4.676  32.697  1.00  0.00     0.037 A 
ENDBRANCH   3   5
BRANCH   2  16
HETATM   16  C1  UNK     1      19.056   0.804  30.378  1.00  0.00     0.114 C 
HETATM   17  C3  UNK     1      19.882   0.664  29.101  1.00  0.00     0.037 C 
BRANCH  16  18
HETATM   18  C2  UNK     1      19.424  -0.229  31.421  1.00  0.00    -0.033 A 
HETATM   19  C10 UNK     1      20.437  -1.127  31.155  1.00  0.00     0.028 A 
HETATM   20  C15 UNK     1      20.735  -2.053  32.142  1.00  0.00     0.116 A 
HETATM   21  N2  UNK     1      20.096  -2.124  33.332  1.00  0.00    -0.273 NA
HETATM   22  C14 UNK     1      19.112  -1.220  33.540  1.00  0.00     0.116 A 
HETATM   23  C9  UNK     1      18.739  -0.254  32.618  1.00  0.00     0.028 A 
ENDBRANCH  16  18
ENDBRANCH   2  16
TORSDOF 3
ENDMDL
MODEL 6
REMARK VINA RESULT:      -8.4      2.610      7.593
REMARK  3 active torsions:
REMARK  status: ('A' for Active; 'I' for Inactive)
REMARK    1  A    between atoms: C1_6  and  N1_4 
REMARK       I    between atoms: C5_10  and  N1_4 
REMARK    2  A    between atoms: C1_6  and  C2_7 
REMARK    3  A    between atoms: C4_9  and  C5_10 
ROOT
HETATM    1  O2  UNK     1      17.749   1.474  29.493  1.00  0.00    -0.267 OA
HETATM    2  N1  UNK     1      19.392   0.631  30.914  1.00  0.00    -0.348 N 
HETATM    3  C5  UNK     1      18.440   1.547  30.507  1.00  0.00     0.258 C 
HETATM    4  H2  UNK     1      19.950   0.825  31.741  1.00  0.00     0.163 HD
ENDROOT
BRANCH   3   5
HETATM    5  C4  UNK     1      18.305   2.681  31.430  1.00  0.00     0.108 A 
HETATM    6  C11 UNK     1      18.096   2.489  32.883  1.00  0.00     0.304 A 
HETATM    7  O1  UNK     1      17.984   3.642  33.655  1.00  0.00    -0.274 OA
HETATM    8  O3  UNK     1      18.026   1.373  33.386  1.00  0.00    -0.259 OA
HETATM    9  C8  UNK     1      18.065   4.928  33.087  1.00  0.00     0.089 A 
HETATM   10  C13 UNK     1      17.941   6.022  33.941  1.00  0.00     0.038 A 
HETATM   11  C6  UNK     1      18.262   5.085  31.719  1.00  0.00    -0.001 A 
HETATM   12  C17 UNK     1      18.016   7.307  33.409  1.00  0.00     0.003 A 
HETATM   13  C16 UNK     1      18.212   7.485  32.038  1.00  0.00     0.001 A 
HETATM   14  C12 UNK     1      18.335   6.377  31.193  1.00  0.00     0.014 A 
HETATM   15  C7  UNK     1      18.384   3.900  30.884  1.00  0.00     0.037 A 
ENDBRANCH   3   5
BRANCH   2  16
HETATM   16  C1  UNK     1      19.702  -0.568  30.170  1.00  0.00     0.114 C 
HETATM   17  C3  UNK     1      20.675  -0.260  29.033  1.00  0.00     0.037 C 
BRANCH  16  18
HETATM   18  C2  UNK     1      20.206  -1.666  31.082  1.00  0.00    -0.033 A 
HETATM   19  C10 UNK     1      20.835  -2.764  30.533  1.00  0.00     0.028 A 
HETATM   20  C15 UNK     1      21.278  -3.742  31.410  1.00  0.00     0.116 A 
HETATM   21  N2  UNK     1      21.129  -3.678  32.752  1.00  0.00    -0.273 NA
HETATM   22  C14 UNK     1      20.505  -2.581  33.236  1.00  0.00     0.116 A 
HETATM   23  C9  UNK     1      20.027  -1.548  32.444  1.00  0.00     0.028 A 
ENDBRANCH  16  18
ENDBRANCH   2  16
TORSDOF 3
ENDMDL
MODEL 7
REMARK VINA RESULT:      -8.3      7.484     11.537
REMARK  3 active torsions:
REMARK  status: ('A' for Active; 'I' for Inactive)
REMARK    1  A    between atoms: C1_6  and  N1_4 
REMARK       I    between atoms: C5_10  and  N1_4 
REMARK    2  A    between atoms: C1_6  and  C2_7 
REMARK    3  A    between atoms: C4_9  and  C5_10 
ROOT
HETATM    1  O2  UNK     1      20.501  -5.156  35.665  1.00  0.00    -0.267 OA
HETATM    2  N1  UNK     1      18.430  -5.192  36.732  1.00  0.00    -0.348 N 
HETATM    3  C5  UNK     1      19.506  -4.587  36.109  1.00  0.00     0.258 C 
HETATM    4  H2  UNK     1      17.687  -4.616  37.116  1.00  0.00     0.163 HD
ENDROOT
BRANCH   3   5
HETATM    5  C4  UNK     1      19.363  -3.130  36.009  1.00  0.00     0.108 A 
HETATM    6  C11 UNK     1      19.989  -2.353  34.916  1.00  0.00     0.304 A 
HETATM    7  O1  UNK     1      19.780  -0.976  34.929  1.00  0.00    -0.274 OA
HETATM    8  O3  UNK     1      20.657  -2.889  34.039  1.00  0.00    -0.259 OA
HETATM    9  C8  UNK     1      19.013  -0.350  35.931  1.00  0.00     0.089 A 
HETATM   10  C13 UNK     1      18.862   1.033  35.860  1.00  0.00     0.038 A 
HETATM   11  C6  UNK     1      18.435  -1.100  36.949  1.00  0.00    -0.001 A 
HETATM   12  C17 UNK     1      18.109   1.681  36.837  1.00  0.00     0.003 A 
HETATM   13  C16 UNK     1      17.521   0.945  37.868  1.00  0.00     0.001 A 
HETATM   14  C12 UNK     1      17.682  -0.442  37.925  1.00  0.00     0.014 A 
HETATM   15  C7  UNK     1      18.633  -2.541  36.963  1.00  0.00     0.037 A 
ENDBRANCH   3   5
BRANCH   2  16
HETATM   16  C1  UNK     1      18.342  -6.619  36.943  1.00  0.00     0.114 C 
HETATM   17  C3  UNK     1      18.115  -7.347  35.620  1.00  0.00     0.037 C 
BRANCH  16  18
HETATM   18  C2  UNK     1      19.551  -7.139  37.691  1.00  0.00    -0.033 A 
HETATM   19  C10 UNK     1      20.278  -8.183  37.156  1.00  0.00     0.028 A 
HETATM   20  C15 UNK     1      21.376  -8.623  37.879  1.00  0.00     0.116 A 
HETATM   21  N2  UNK     1      21.765  -8.094  39.060  1.00  0.00    -0.273 NA
HETATM   22  C14 UNK     1      21.017  -7.075  39.538  1.00  0.00     0.116 A 
HETATM   23  C9  UNK     1      19.903  -6.561  38.892  1.00  0.00     0.028 A 
ENDBRANCH  16  18
ENDBRANCH   2  16
TORSDOF 3
ENDMDL
MODEL 8
REMARK VINA RESULT:      -8.3      3.060      4.470
REMARK  3 active torsions:
REMARK  status: ('A' for Active; 'I' for Inactive)
REMARK    1  A    between atoms: C1_6  and  N1_4 
REMARK       I    between atoms: C5_10  and  N1_4 
REMARK    2  A    between atoms: C1_6  and  C2_7 
REMARK    3  A    between atoms: C4_9  and  C5_10 
ROOT
HETATM    1  O2  UNK     1      17.743   4.010  32.216  1.00  0.00    -0.267 OA
HETATM    2  N1  UNK     1      18.830   4.859  34.095  1.00  0.00    -0.348 N 
HETATM    3  C5  UNK     1      18.233   3.870  33.334  1.00  0.00     0.258 C 
HETATM    4  H2  UNK     1      19.148   4.643  35.035  1.00  0.00     0.163 HD
ENDROOT
BRANCH   3   5
HETATM    5  C4  UNK     1      18.232   2.561  34.000  1.00  0.00     0.108 A 
HETATM    6  C11 UNK     1      18.448   1.301  33.254  1.00  0.00     0.304 A 
HETATM    7  O1  UNK     1      18.425   0.124  33.997  1.00  0.00    -0.274 OA
HETATM    8  O3  UNK     1      18.640   1.289  32.044  1.00  0.00    -0.259 OA
HETATM    9  C8  UNK     1      18.206   0.127  35.389  1.00  0.00     0.089 A 
HETATM   10  C13 UNK     1      18.200  -1.102  36.045  1.00  0.00     0.038 A 
HETATM   11  C6  UNK     1      18.005   1.323  36.069  1.00  0.00    -0.001 A 
HETATM   12  C17 UNK     1      17.985  -1.131  37.422  1.00  0.00     0.003 A 
HETATM   13  C16 UNK     1      17.780   0.060  38.122  1.00  0.00     0.001 A 
HETATM   14  C12 UNK     1      17.789   1.285  37.449  1.00  0.00     0.014 A 
HETATM   15  C7  UNK     1      18.024   2.571  35.322  1.00  0.00     0.037 A 
ENDBRANCH   3   5
BRANCH   2  16
HETATM   16  C1  UNK     1      18.953   6.229  33.649  1.00  0.00     0.114 C 
HETATM   17  C3  UNK     1      19.885   6.321  32.443  1.00  0.00     0.037 C 
BRANCH  16  18
HETATM   18  C2  UNK     1      17.596   6.843  33.380  1.00  0.00    -0.033 A 
HETATM   19  C10 UNK     1      16.658   6.880  34.391  1.00  0.00     0.028 A 
HETATM   20  C15 UNK     1      15.431   7.452  34.094  1.00  0.00     0.116 A 
HETATM   21  N2  UNK     1      15.109   7.966  32.886  1.00  0.00    -0.273 NA
HETATM   22  C14 UNK     1      16.064   7.903  31.932  1.00  0.00     0.116 A 
HETATM   23  C9  UNK     1      17.321   7.353  32.128  1.00  0.00     0.028 A 
ENDBRANCH  16  18
ENDBRANCH   2  16
TORSDOF 3
ENDMDL
MODEL 9
REMARK VINA RESULT:      -8.3      7.659     10.375
REMARK  3 active torsions:
REMARK  status: ('A' for Active; 'I' for Inactive)
REMARK    1  A    between atoms: C1_6  and  N1_4 
REMARK       I    between atoms: C5_10  and  N1_4 
REMARK    2  A    between atoms: C1_6  and  C2_7 
REMARK    3  A    between atoms: C4_9  and  C5_10 
ROOT
HETATM    1  O2  UNK     1      21.314  -4.126  37.290  1.00  0.00    -0.267 OA
HETATM    2  N1  UNK     1      19.786  -3.929  35.541  1.00  0.00    -0.348 N 
HETATM    3  C5  UNK     1      20.442  -4.594  36.561  1.00  0.00     0.258 C 
HETATM    4  H2  UNK     1      19.124  -4.435  34.960  1.00  0.00     0.163 HD
ENDROOT
BRANCH   3   5
HETATM    5  C4  UNK     1      19.992  -5.982  36.720  1.00  0.00     0.108 A 
HETATM    6  C11 UNK     1      18.557  -6.339  36.786  1.00  0.00     0.304 A 
HETATM    7  O1  UNK     1      18.255  -7.690  36.937  1.00  0.00    -0.274 OA
HETATM    8  O3  UNK     1      17.673  -5.492  36.711  1.00  0.00    -0.259 OA
HETATM    9  C8  UNK     1      19.263  -8.671  37.023  1.00  0.00     0.089 A 
HETATM   10  C13 UNK     1      18.862  -9.998  37.173  1.00  0.00     0.038 A 
HETATM   11  C6  UNK     1      20.605  -8.314  36.958  1.00  0.00    -0.001 A 
HETATM   12  C17 UNK     1      19.835 -10.991  37.262  1.00  0.00     0.003 A 
HETATM   13  C16 UNK     1      21.188 -10.651  37.200  1.00  0.00     0.001 A 
HETATM   14  C12 UNK     1      21.574  -9.315  37.048  1.00  0.00     0.014 A 
HETATM   15  C7  UNK     1      20.952  -6.910  36.800  1.00  0.00     0.037 A 
ENDBRANCH   3   5
BRANCH   2  16
HETATM   16  C1  UNK     1      20.057  -2.552  35.196  1.00  0.00     0.114 C 
HETATM   17  C3  UNK     1      20.345  -2.418  33.702  1.00  0.00     0.037 C 
BRANCH  16  18
HETATM   18  C2  UNK     1      18.939  -1.641  35.654  1.00  0.00    -0.033 A 
HETATM   19  C10 UNK     1      18.548  -1.662  36.977  1.00  0.00     0.028 A 
HETATM   20  C15 UNK     1      17.519  -0.810  37.346  1.00  0.00     0.116 A 
HETATM   21  N2  UNK     1      16.888   0.027  36.493  1.00  0.00    -0.273 NA
HETATM   22  C14 UNK     1      17.310   0.007  35.208  1.00  0.00     0.116 A 
HETATM   23  C9  UNK     1      18.330  -0.806  34.740  1.00  0.00     0.028 A 
ENDBRANCH  16  18
ENDBRANCH   2  16
TORSDOF 3
ENDMDL
MODEL 10
REMARK VINA RESULT:      -8.2     12.682     15.472
REMARK  3 active torsions:
REMARK  status: ('A' for Active; 'I' for Inactive)
REMARK    1  A    between atoms: C1_6  and  N1_4 
REMARK       I    between atoms: C5_10  and  N1_4 
REMARK    2  A    between atoms: C1_6  and  C2_7 
REMARK    3  A    between atoms: C4_9  and  C5_10 
ROOT
HETATM    1  O2  UNK     1      26.015  -9.144  39.386  1.00  0.00    -0.267 OA
HETATM    2  N1  UNK     1      24.476  -7.541  38.683  1.00  0.00    -0.348 N 
HETATM    3  C5  UNK     1      25.738  -8.010  39.001  1.00  0.00     0.258 C 
HETATM    4  H2  UNK     1      24.355  -6.564  38.434  1.00  0.00     0.163 HD
ENDROOT
BRANCH   3   5
HETATM    5  C4  UNK     1      26.784  -6.995  38.833  1.00  0.00     0.108 A 
HETATM    6  C11 UNK     1      26.480  -5.546  38.837  1.00  0.00     0.304 A 
HETATM    7  O1  UNK     1      27.557  -4.681  38.670  1.00  0.00    -0.274 OA
HETATM    8  O3  UNK     1      25.338  -5.124  38.982  1.00  0.00    -0.259 OA
HETATM    9  C8  UNK     1      28.873  -5.156  38.504  1.00  0.00     0.089 A 
HETATM   10  C13 UNK     1      29.886  -4.212  38.342  1.00  0.00     0.038 A 
HETATM   11  C6  UNK     1      29.136  -6.521  38.503  1.00  0.00    -0.001 A 
HETATM   12  C17 UNK     1      31.197  -4.651  38.176  1.00  0.00     0.003 A 
HETATM   13  C16 UNK     1      31.481  -6.018  38.171  1.00  0.00     0.001 A 
HETATM   14  C12 UNK     1      30.454  -6.953  38.334  1.00  0.00     0.014 A 
HETATM   15  C7  UNK     1      28.032  -7.452  38.677  1.00  0.00     0.037 A 
ENDBRANCH   3   5
BRANCH   2  16
HETATM   16  C1  UNK     1      23.287  -8.358  38.769  1.00  0.00     0.114 C 
HETATM   17  C3  UNK     1      22.541  -8.089  40.074  1.00  0.00     0.037 C 
BRANCH  16  18
HETATM   18  C2  UNK     1      22.406  -8.175  37.551  1.00  0.00    -0.033 A 
HETATM   19  C10 UNK     1      22.434  -9.123  36.549  1.00  0.00     0.028 A 
HETATM   20  C15 UNK     1      21.610  -8.909  35.455  1.00  0.00     0.116 A 
HETATM   21  N2  UNK     1      20.795  -7.839  35.320  1.00  0.00    -0.273 NA
HETATM   22  C14 UNK     1      20.807  -6.942  36.331  1.00  0.00     0.116 A 
HETATM   23  C9  UNK     1      21.593  -7.064  37.466  1.00  0.00     0.028 A 
ENDBRANCH  16  18
ENDBRANCH   2  16
TORSDOF 3
ENDMDL
