MODEL 1
REMARK VINA RESULT:      -8.2      0.000      0.000
REMARK  6 active torsions:
REMARK  status: ('A' for Active; 'I' for Inactive)
REMARK    1  A    between atoms: C2_9  and  O1_5 
REMARK    2  A    between atoms: C5_12  and  O1_5 
REMARK    3  A    between atoms: C3_10  and  O2_6 
REMARK    4  A    between atoms: C1_8  and  C9_16 
REMARK    5  A    between atoms: C5_12  and  C8_15 
REMARK    6  A    between atoms: C10_17  and  C11_18 
ROOT
HETATM    1  N1  UNK     1      29.347  -6.448  34.774  1.00  0.00    -0.191 NA
HETATM    2  C9  UNK     1      30.716  -7.797  37.636  1.00  0.00     0.036 C 
HETATM    3  C10 UNK     1      31.142  -7.289  36.452  1.00  0.00     0.057 C 
HETATM    4  C23 UNK     1      30.143  -6.826  35.529  1.00  0.00     0.100 C 
ENDROOT
BRANCH   3   5
HETATM    5  C11 UNK     1      32.548  -7.186  36.076  1.00  0.00     0.006 A 
HETATM    6  C14 UNK     1      33.424  -6.306  36.711  1.00  0.00     0.047 A 
HETATM    7 Cl1  UNK     1      32.905  -5.268  37.994  1.00  0.00    -0.083 Cl
HETATM    8  C19 UNK     1      34.761  -6.245  36.316  1.00  0.00     0.048 A 
HETATM    9  C21 UNK     1      35.221  -7.065  35.286  1.00  0.00     0.035 A 
HETATM   10  C20 UNK     1      34.345  -7.945  34.651  1.00  0.00     0.025 A 
HETATM   11 Cl3  UNK     1      36.869  -6.991  34.797  1.00  0.00    -0.084 Cl
HETATM   12  C15 UNK     1      33.009  -8.006  35.046  1.00  0.00     0.016 A 
ENDBRANCH   3   5
BRANCH   2  13
HETATM   13  C1  UNK     1      29.314  -7.917  38.065  1.00  0.00    -0.015 A 
HETATM   14  C4  UNK     1      28.686  -9.137  37.849  1.00  0.00     0.052 A 
HETATM   15  C3  UNK     1      27.358  -9.306  38.236  1.00  0.00     0.102 A 
HETATM   16  C2  UNK     1      26.666  -8.252  38.836  1.00  0.00     0.103 A 
HETATM   17  C7  UNK     1      27.305  -7.031  39.048  1.00  0.00     0.059 A 
HETATM   18  C6  UNK     1      28.634  -6.862  38.661  1.00  0.00     0.024 A 
HETATM   19 Br1  UNK     1      29.444  -5.173  38.979  1.00  0.00    -0.050 Br
BRANCH  15  20
HETATM   20  O2  UNK     1      26.745 -10.503  38.024  1.00  0.00    -0.353 OA
HETATM   21  C22 UNK     1      26.160 -10.714  36.740  1.00  0.00     0.210 C 
ENDBRANCH  15  20
BRANCH  16  22
HETATM   22  O1  UNK     1      25.368  -8.406  39.219  1.00  0.00    -0.344 OA
BRANCH  22  23
HETATM   23  C5  UNK     1      24.428  -7.460  38.714  1.00  0.00     0.214 C 
BRANCH  23  24
HETATM   24  C8  UNK     1      23.114  -8.148  38.488  1.00  0.00    -0.034 A 
HETATM   25  C12 UNK     1      22.194  -8.237  39.527  1.00  0.00     0.011 A 
HETATM   26  C16 UNK     1      20.973  -8.877  39.317  1.00  0.00     0.024 A 
HETATM   27  C18 UNK     1      20.679  -9.425  38.069  1.00  0.00     0.034 A 
HETATM   28  C17 UNK     1      21.606  -9.332  37.030  1.00  0.00     0.024 A 
HETATM   29 Cl2  UNK     1      19.173 -10.215  37.809  1.00  0.00    -0.084 Cl
HETATM   30  C13 UNK     1      22.827  -8.691  37.241  1.00  0.00     0.011 A 
ENDBRANCH  23  24
ENDBRANCH  22  23
ENDBRANCH  16  22
ENDBRANCH   2  13
TORSDOF 6
ENDMDL
MODEL 2
REMARK VINA RESULT:      -8.0      2.895      9.549
REMARK  6 active torsions:
REMARK  status: ('A' for Active; 'I' for Inactive)
REMARK    1  A    between atoms: C2_9  and  O1_5 
REMARK    2  A    between atoms: C5_12  and  O1_5 
REMARK    3  A    between atoms: C3_10  and  O2_6 
REMARK    4  A    between atoms: C1_8  and  C9_16 
REMARK    5  A    between atoms: C5_12  and  C8_15 
REMARK    6  A    between atoms: C10_17  and  C11_18 
ROOT
HETATM    1  N1  UNK     1      27.312 -10.299  39.773  1.00  0.00    -0.191 NA
HETATM    2  C9  UNK     1      27.312  -8.494  36.835  1.00  0.00     0.036 C 
HETATM    3  C10 UNK     1      26.505  -9.371  37.485  1.00  0.00     0.057 C 
HETATM    4  C23 UNK     1      26.959  -9.880  38.751  1.00  0.00     0.100 C 
ENDROOT
BRANCH   3   5
HETATM    5  C11 UNK     1      25.213  -9.814  36.972  1.00  0.00     0.006 A 
HETATM    6  C14 UNK     1      24.034  -9.113  37.227  1.00  0.00     0.047 A 
HETATM    7 Cl1  UNK     1      24.017  -7.667  38.174  1.00  0.00    -0.083 Cl
HETATM    8  C19 UNK     1      22.822  -9.577  36.712  1.00  0.00     0.048 A 
HETATM    9  C21 UNK     1      22.791 -10.740  35.943  1.00  0.00     0.035 A 
HETATM   10  C20 UNK     1      23.971 -11.440  35.689  1.00  0.00     0.025 A 
HETATM   11 Cl3  UNK     1      21.298 -11.312  35.308  1.00  0.00    -0.084 Cl
HETATM   12  C15 UNK     1      25.181 -10.976  36.203  1.00  0.00     0.016 A 
ENDBRANCH   3   5
BRANCH   2  13
HETATM   13  C1  UNK     1      28.617  -8.013  37.312  1.00  0.00    -0.015 A 
HETATM   14  C4  UNK     1      29.734  -8.766  36.974  1.00  0.00     0.052 A 
HETATM   15  C3  UNK     1      30.997  -8.356  37.399  1.00  0.00     0.102 A 
HETATM   16  C2  UNK     1      31.133  -7.194  38.160  1.00  0.00     0.103 A 
HETATM   17  C7  UNK     1      30.006  -6.444  38.495  1.00  0.00     0.059 A 
HETATM   18  C6  UNK     1      28.743  -6.855  38.069  1.00  0.00     0.024 A 
HETATM   19 Br1  UNK     1      27.250  -5.787  38.561  1.00  0.00    -0.050 Br
BRANCH  15  20
HETATM   20  O2  UNK     1      32.090  -9.097  37.066  1.00  0.00    -0.353 OA
HETATM   21  C22 UNK     1      32.578  -8.969  35.732  1.00  0.00     0.210 C 
ENDBRANCH  15  20
BRANCH  16  22
HETATM   22  O1  UNK     1      32.362  -6.783  38.581  1.00  0.00    -0.344 OA
BRANCH  22  23
HETATM   23  C5  UNK     1      32.786  -5.485  38.169  1.00  0.00     0.214 C 
BRANCH  23  24
HETATM   24  C8  UNK     1      33.513  -5.599  36.861  1.00  0.00    -0.034 A 
HETATM   25  C12 UNK     1      32.891  -5.190  35.688  1.00  0.00     0.011 A 
HETATM   26  C16 UNK     1      33.567  -5.297  34.473  1.00  0.00     0.024 A 
HETATM   27  C18 UNK     1      34.863  -5.813  34.439  1.00  0.00     0.034 A 
HETATM   28  C17 UNK     1      35.482  -6.222  35.621  1.00  0.00     0.024 A 
HETATM   29 Cl2  UNK     1      35.697  -5.946  32.940  1.00  0.00    -0.084 Cl
HETATM   30  C13 UNK     1      34.805  -6.114  36.836  1.00  0.00     0.011 A 
ENDBRANCH  23  24
ENDBRANCH  22  23
ENDBRANCH  16  22
ENDBRANCH   2  13
TORSDOF 6
ENDMDL
MODEL 3
REMARK VINA RESULT:      -8.0     10.513     13.727
REMARK  6 active torsions:
REMARK  status: ('A' for Active; 'I' for Inactive)
REMARK    1  A    between atoms: C2_9  and  O1_5 
REMARK    2  A    between atoms: C5_12  and  O1_5 
REMARK    3  A    between atoms: C3_10  and  O2_6 
REMARK    4  A    between atoms: C1_8  and  C9_16 
REMARK    5  A    between atoms: C5_12  and  C8_15 
REMARK    6  A    between atoms: C10_17  and  C11_18 
ROOT
HETATM    1  N1  UNK     1      22.054  -1.976  35.377  1.00  0.00    -0.191 NA
HETATM    2  C9  UNK     1      18.911  -2.836  36.504  1.00  0.00     0.036 C 
HETATM    3  C10 UNK     1      20.174  -3.327  36.557  1.00  0.00     0.057 C 
HETATM    4  C23 UNK     1      21.209  -2.574  35.901  1.00  0.00     0.100 C 
ENDROOT
BRANCH   3   5
HETATM    5  C11 UNK     1      20.533  -4.565  37.241  1.00  0.00     0.006 A 
HETATM    6  C14 UNK     1      19.689  -5.675  37.260  1.00  0.00     0.047 A 
HETATM    7 Cl1  UNK     1      18.149  -5.664  36.472  1.00  0.00    -0.083 Cl
HETATM    8  C19 UNK     1      20.078  -6.837  37.927  1.00  0.00     0.048 A 
HETATM    9  C21 UNK     1      21.312  -6.888  38.575  1.00  0.00     0.035 A 
HETATM   10  C20 UNK     1      22.156  -5.778  38.557  1.00  0.00     0.025 A 
HETATM   11 Cl3  UNK     1      21.793  -8.320  39.399  1.00  0.00    -0.084 Cl
HETATM   12  C15 UNK     1      21.767  -4.617  37.889  1.00  0.00     0.016 A 
ENDBRANCH   3   5
BRANCH   2  13
HETATM   13  C1  UNK     1      18.500  -1.593  35.835  1.00  0.00    -0.015 A 
HETATM   14  C4  UNK     1      18.590  -1.559  34.449  1.00  0.00     0.052 A 
HETATM   15  C3  UNK     1      18.212  -0.405  33.762  1.00  0.00     0.102 A 
HETATM   16  C2  UNK     1      17.749   0.706  34.467  1.00  0.00     0.103 A 
HETATM   17  C7  UNK     1      17.662   0.663  35.858  1.00  0.00     0.059 A 
HETATM   18  C6  UNK     1      18.039  -0.491  36.545  1.00  0.00     0.024 A 
HETATM   19 Br1  UNK     1      17.897  -0.483  38.440  1.00  0.00    -0.050 Br
BRANCH  15  20
HETATM   20  O2  UNK     1      18.301  -0.375  32.403  1.00  0.00    -0.353 OA
HETATM   21  C22 UNK     1      19.395  -1.071  31.809  1.00  0.00     0.210 C 
ENDBRANCH  15  20
BRANCH  16  22
HETATM   22  O1  UNK     1      17.377   1.838  33.807  1.00  0.00    -0.344 OA
BRANCH  22  23
HETATM   23  C5  UNK     1      17.952   3.065  34.252  1.00  0.00     0.214 C 
BRANCH  23  24
HETATM   24  C8  UNK     1      18.434   3.841  33.061  1.00  0.00    -0.034 A 
HETATM   25  C12 UNK     1      18.923   5.132  33.231  1.00  0.00     0.011 A 
HETATM   26  C16 UNK     1      19.370   5.852  32.124  1.00  0.00     0.024 A 
HETATM   27  C18 UNK     1      19.325   5.278  30.853  1.00  0.00     0.034 A 
HETATM   28  C17 UNK     1      18.833   3.982  30.690  1.00  0.00     0.024 A 
HETATM   29 Cl2  UNK     1      19.876   6.167  29.487  1.00  0.00    -0.084 Cl
HETATM   30  C13 UNK     1      18.386   3.262  31.798  1.00  0.00     0.011 A 
ENDBRANCH  23  24
ENDBRANCH  22  23
ENDBRANCH  16  22
ENDBRANCH   2  13
TORSDOF 6
ENDMDL
MODEL 4
REMARK VINA RESULT:      -8.0     10.791     13.892
REMARK  6 active torsions:
REMARK  status: ('A' for Active; 'I' for Inactive)
REMARK    1  A    between atoms: C2_9  and  O1_5 
REMARK    2  A    between atoms: C5_12  and  O1_5 
REMARK    3  A    between atoms: C3_10  and  O2_6 
REMARK    4  A    between atoms: C1_8  and  C9_16 
REMARK    5  A    between atoms: C5_12  and  C8_15 
REMARK    6  A    between atoms: C10_17  and  C11_18 
ROOT
HETATM    1  N1  UNK     1      20.084   2.663  36.433  1.00  0.00    -0.191 NA
HETATM    2  C9  UNK     1      17.994   1.267  34.072  1.00  0.00     0.036 C 
HETATM    3  C10 UNK     1      18.488   2.491  34.390  1.00  0.00     0.057 C 
HETATM    4  C23 UNK     1      19.370   2.578  35.522  1.00  0.00     0.100 C 
ENDROOT
BRANCH   3   5
HETATM    5  C11 UNK     1      18.177   3.707  33.647  1.00  0.00     0.006 A 
HETATM    6  C14 UNK     1      18.165   3.742  32.252  1.00  0.00     0.047 A 
HETATM    7 Cl1  UNK     1      18.523   2.344  31.300  1.00  0.00    -0.083 Cl
HETATM    8  C19 UNK     1      17.860   4.930  31.587  1.00  0.00     0.048 A 
HETATM    9  C21 UNK     1      17.565   6.082  32.317  1.00  0.00     0.035 A 
HETATM   10  C20 UNK     1      17.577   6.046  33.712  1.00  0.00     0.025 A 
HETATM   11 Cl3  UNK     1      17.188   7.547  31.498  1.00  0.00    -0.084 Cl
HETATM   12  C15 UNK     1      17.882   4.858  34.376  1.00  0.00     0.016 A 
ENDBRANCH   3   5
BRANCH   2  13
HETATM   13  C1  UNK     1      18.282   0.013  34.784  1.00  0.00    -0.015 A 
HETATM   14  C4  UNK     1      19.227  -0.835  34.219  1.00  0.00     0.052 A 
HETATM   15  C3  UNK     1      19.539  -2.037  34.851  1.00  0.00     0.102 A 
HETATM   16  C2  UNK     1      18.903  -2.384  36.044  1.00  0.00     0.103 A 
HETATM   17  C7  UNK     1      17.956  -1.527  36.604  1.00  0.00     0.059 A 
HETATM   18  C6  UNK     1      17.644  -0.323  35.971  1.00  0.00     0.024 A 
HETATM   19 Br1  UNK     1      16.344   0.797  36.786  1.00  0.00    -0.050 Br
BRANCH  15  20
HETATM   20  O2  UNK     1      20.466  -2.866  34.296  1.00  0.00    -0.353 OA
HETATM   21  C22 UNK     1      20.844  -2.604  32.946  1.00  0.00     0.210 C 
ENDBRANCH  15  20
BRANCH  16  22
HETATM   22  O1  UNK     1      19.201  -3.556  36.672  1.00  0.00    -0.344 OA
BRANCH  22  23
HETATM   23  C5  UNK     1      20.465  -3.636  37.327  1.00  0.00     0.214 C 
BRANCH  23  24
HETATM   24  C8  UNK     1      20.655  -5.028  37.854  1.00  0.00    -0.034 A 
HETATM   25  C12 UNK     1      21.911  -5.434  38.292  1.00  0.00     0.011 A 
HETATM   26  C16 UNK     1      22.087  -6.728  38.782  1.00  0.00     0.024 A 
HETATM   27  C18 UNK     1      21.006  -7.608  38.831  1.00  0.00     0.034 A 
HETATM   28  C17 UNK     1      19.749  -7.194  38.390  1.00  0.00     0.024 A 
HETATM   29 Cl2  UNK     1      21.224  -9.205  39.435  1.00  0.00    -0.084 Cl
HETATM   30  C13 UNK     1      19.573  -5.900  37.900  1.00  0.00     0.011 A 
ENDBRANCH  23  24
ENDBRANCH  22  23
ENDBRANCH  16  22
ENDBRANCH   2  13
TORSDOF 6
ENDMDL
MODEL 5
REMARK VINA RESULT:      -7.9      1.043      1.386
REMARK  6 active torsions:
REMARK  status: ('A' for Active; 'I' for Inactive)
REMARK    1  A    between atoms: C2_9  and  O1_5 
REMARK    2  A    between atoms: C5_12  and  O1_5 
REMARK    3  A    between atoms: C3_10  and  O2_6 
REMARK    4  A    between atoms: C1_8  and  C9_16 
REMARK    5  A    between atoms: C5_12  and  C8_15 
REMARK    6  A    between atoms: C10_17  and  C11_18 
ROOT
HETATM    1  N1  UNK     1      29.275  -6.399  34.675  1.00  0.00    -0.191 NA
HETATM    2  C9  UNK     1      30.658  -7.849  37.481  1.00  0.00     0.036 C 
HETATM    3  C10 UNK     1      31.076  -7.332  36.298  1.00  0.00     0.057 C 
HETATM    4  C23 UNK     1      30.073  -6.818  35.405  1.00  0.00     0.100 C 
ENDROOT
BRANCH   3   5
HETATM    5  C11 UNK     1      32.476  -7.267  35.893  1.00  0.00     0.006 A 
HETATM    6  C14 UNK     1      33.066  -8.250  35.098  1.00  0.00     0.047 A 
HETATM    7 Cl1  UNK     1      32.178  -9.622  34.534  1.00  0.00    -0.083 Cl
HETATM    8  C19 UNK     1      34.409  -8.141  34.736  1.00  0.00     0.048 A 
HETATM    9  C21 UNK     1      35.162  -7.050  35.170  1.00  0.00     0.035 A 
HETATM   10  C20 UNK     1      34.572  -6.067  35.965  1.00  0.00     0.025 A 
HETATM   11 Cl3  UNK     1      36.818  -6.915  34.725  1.00  0.00    -0.084 Cl
HETATM   12  C15 UNK     1      33.229  -6.176  36.326  1.00  0.00     0.016 A 
ENDBRANCH   3   5
BRANCH   2  13
HETATM   13  C1  UNK     1      29.262  -7.931  37.937  1.00  0.00    -0.015 A 
HETATM   14  C4  UNK     1      28.589  -9.125  37.708  1.00  0.00     0.052 A 
HETATM   15  C3  UNK     1      27.264  -9.259  38.120  1.00  0.00     0.102 A 
HETATM   16  C2  UNK     1      26.621  -8.196  38.758  1.00  0.00     0.103 A 
HETATM   17  C7  UNK     1      27.305  -7.002  38.983  1.00  0.00     0.059 A 
HETATM   18  C6  UNK     1      28.631  -6.869  38.571  1.00  0.00     0.024 A 
HETATM   19 Br1  UNK     1      29.504  -5.215  38.908  1.00  0.00    -0.050 Br
BRANCH  15  20
HETATM   20  O2  UNK     1      26.606 -10.429  37.895  1.00  0.00    -0.353 OA
HETATM   21  C22 UNK     1      26.079 -10.636  36.586  1.00  0.00     0.210 C 
ENDBRANCH  15  20
BRANCH  16  22
HETATM   22  O1  UNK     1      25.327  -8.315  39.165  1.00  0.00    -0.344 OA
BRANCH  22  23
HETATM   23  C5  UNK     1      24.437  -7.258  38.812  1.00  0.00     0.214 C 
BRANCH  23  24
HETATM   24  C8  UNK     1      23.055  -7.817  38.644  1.00  0.00    -0.034 A 
HETATM   25  C12 UNK     1      22.084  -7.556  39.605  1.00  0.00     0.011 A 
HETATM   26  C16 UNK     1      20.800  -8.077  39.450  1.00  0.00     0.024 A 
HETATM   27  C18 UNK     1      20.493  -8.854  38.333  1.00  0.00     0.034 A 
HETATM   28  C17 UNK     1      21.472  -9.111  37.372  1.00  0.00     0.024 A 
HETATM   29 Cl2  UNK     1      18.909  -9.496  38.141  1.00  0.00    -0.084 Cl
HETATM   30  C13 UNK     1      22.756  -8.591  37.528  1.00  0.00     0.011 A 
ENDBRANCH  23  24
ENDBRANCH  22  23
ENDBRANCH  16  22
ENDBRANCH   2  13
TORSDOF 6
ENDMDL
MODEL 6
REMARK VINA RESULT:      -7.7      2.157      2.994
REMARK  6 active torsions:
REMARK  status: ('A' for Active; 'I' for Inactive)
REMARK    1  A    between atoms: C2_9  and  O1_5 
REMARK    2  A    between atoms: C5_12  and  O1_5 
REMARK    3  A    between atoms: C3_10  and  O2_6 
REMARK    4  A    between atoms: C1_8  and  C9_16 
REMARK    5  A    between atoms: C5_12  and  C8_15 
REMARK    6  A    between atoms: C10_17  and  C11_18 
ROOT
HETATM    1  N1  UNK     1      31.789  -8.900  38.616  1.00  0.00    -0.191 NA
HETATM    2  C9  UNK     1      30.717  -7.289  35.763  1.00  0.00     0.036 C 
HETATM    3  C10 UNK     1      31.856  -7.852  36.241  1.00  0.00     0.057 C 
HETATM    4  C23 UNK     1      31.811  -8.430  37.556  1.00  0.00     0.100 C 
ENDROOT
BRANCH   3   5
HETATM    5  C11 UNK     1      33.107  -7.904  35.493  1.00  0.00     0.006 A 
HETATM    6  C14 UNK     1      34.128  -6.971  35.686  1.00  0.00     0.047 A 
HETATM    7 Cl1  UNK     1      33.980  -5.681  36.828  1.00  0.00    -0.083 Cl
HETATM    8  C19 UNK     1      35.307  -7.065  34.948  1.00  0.00     0.048 A 
HETATM    9  C21 UNK     1      35.467  -8.090  34.016  1.00  0.00     0.035 A 
HETATM   10  C20 UNK     1      34.447  -9.023  33.823  1.00  0.00     0.025 A 
HETATM   11 Cl3  UNK     1      36.921  -8.207  33.104  1.00  0.00    -0.084 Cl
HETATM   12  C15 UNK     1      33.268  -8.929  34.562  1.00  0.00     0.016 A 
ENDBRANCH   3   5
BRANCH   2  13
HETATM   13  C1  UNK     1      29.431  -7.218  36.473  1.00  0.00    -0.015 A 
HETATM   14  C4  UNK     1      29.264  -6.180  37.381  1.00  0.00     0.052 A 
HETATM   15  C3  UNK     1      28.064  -6.063  38.082  1.00  0.00     0.102 A 
HETATM   16  C2  UNK     1      27.040  -6.987  37.870  1.00  0.00     0.103 A 
HETATM   17  C7  UNK     1      27.217  -8.026  36.956  1.00  0.00     0.059 A 
HETATM   18  C6  UNK     1      28.417  -8.142  36.255  1.00  0.00     0.024 A 
HETATM   19 Br1  UNK     1      28.592  -9.580  35.026  1.00  0.00    -0.050 Br
BRANCH  15  20
HETATM   20  O2  UNK     1      27.904  -5.045  38.971  1.00  0.00    -0.353 OA
HETATM   21  C22 UNK     1      29.002  -4.152  39.140  1.00  0.00     0.210 C 
ENDBRANCH  15  20
BRANCH  16  22
HETATM   22  O1  UNK     1      25.864  -6.884  38.548  1.00  0.00    -0.344 OA
BRANCH  22  23
HETATM   23  C5  UNK     1      25.184  -8.100  38.855  1.00  0.00     0.214 C 
BRANCH  23  24
HETATM   24  C8  UNK     1      23.709  -7.896  38.672  1.00  0.00    -0.034 A 
HETATM   25  C12 UNK     1      23.066  -8.454  37.573  1.00  0.00     0.011 A 
HETATM   26  C16 UNK     1      21.695  -8.263  37.403  1.00  0.00     0.024 A 
HETATM   27  C18 UNK     1      20.975  -7.515  38.334  1.00  0.00     0.034 A 
HETATM   28  C17 UNK     1      21.626  -6.958  39.436  1.00  0.00     0.024 A 
HETATM   29 Cl2  UNK     1      19.283  -7.280  38.125  1.00  0.00    -0.084 Cl
HETATM   30  C13 UNK     1      22.997  -7.149  39.605  1.00  0.00     0.011 A 
ENDBRANCH  23  24
ENDBRANCH  22  23
ENDBRANCH  16  22
ENDBRANCH   2  13
TORSDOF 6
ENDMDL
MODEL 7
REMARK VINA RESULT:      -7.7     34.656     35.908
REMARK  6 active torsions:
REMARK  status: ('A' for Active; 'I' for Inactive)
REMARK    1  A    between atoms: C2_9  and  O1_5 
REMARK    2  A    between atoms: C5_12  and  O1_5 
REMARK    3  A    between atoms: C3_10  and  O2_6 
REMARK    4  A    between atoms: C1_8  and  C9_16 
REMARK    5  A    between atoms: C5_12  and  C8_15 
REMARK    6  A    between atoms: C10_17  and  C11_18 
ROOT
HETATM    1  N1  UNK     1      12.654   8.814  11.978  1.00  0.00    -0.191 NA
HETATM    2  C9  UNK     1      12.791   8.293   8.572  1.00  0.00     0.036 C 
HETATM    3  C10 UNK     1      13.567   8.833   9.546  1.00  0.00     0.057 C 
HETATM    4  C23 UNK     1      13.055   8.819  10.889  1.00  0.00     0.100 C 
ENDROOT
BRANCH   3   5
HETATM    5  C11 UNK     1      14.883   9.414   9.302  1.00  0.00     0.006 A 
HETATM    6  C14 UNK     1      16.052   8.843   9.805  1.00  0.00     0.047 A 
HETATM    7 Cl1  UNK     1      16.027   7.401  10.759  1.00  0.00    -0.083 Cl
HETATM    8  C19 UNK     1      17.287   9.437   9.543  1.00  0.00     0.048 A 
HETATM    9  C21 UNK     1      17.353  10.601   8.778  1.00  0.00     0.035 A 
HETATM   10  C20 UNK     1      16.183  11.172   8.275  1.00  0.00     0.025 A 
HETATM   11 Cl3  UNK     1      18.875  11.334   8.453  1.00  0.00    -0.084 Cl
HETATM   12  C15 UNK     1      14.949  10.578   8.537  1.00  0.00     0.016 A 
ENDBRANCH   3   5
BRANCH   2  13
HETATM   13  C1  UNK     1      11.464   7.690   8.767  1.00  0.00    -0.015 A 
HETATM   14  C4  UNK     1      10.439   8.531   9.182  1.00  0.00     0.052 A 
HETATM   15  C3  UNK     1       9.161   8.012   9.382  1.00  0.00     0.102 A 
HETATM   16  C2  UNK     1       8.917   6.655   9.166  1.00  0.00     0.103 A 
HETATM   17  C7  UNK     1       9.952   5.819   8.749  1.00  0.00     0.059 A 
HETATM   18  C6  UNK     1      11.231   6.338   8.549  1.00  0.00     0.024 A 
HETATM   19 Br1  UNK     1      12.596   5.144   7.982  1.00  0.00    -0.050 Br
BRANCH  15  20
HETATM   20  O2  UNK     1       8.158   8.839   9.789  1.00  0.00    -0.353 OA
HETATM   21  C22 UNK     1       8.500   9.867  10.715  1.00  0.00     0.210 C 
ENDBRANCH  15  20
BRANCH  16  22
HETATM   22  O1  UNK     1       7.672   6.137   9.357  1.00  0.00    -0.344 OA
BRANCH  22  23
HETATM   23  C5  UNK     1       7.516   4.734   9.154  1.00  0.00     0.214 C 
BRANCH  23  24
HETATM   24  C8  UNK     1       6.726   4.159  10.293  1.00  0.00    -0.034 A 
HETATM   25  C12 UNK     1       6.155   2.897  10.169  1.00  0.00     0.011 A 
HETATM   26  C16 UNK     1       5.420   2.364  11.227  1.00  0.00     0.024 A 
HETATM   27  C18 UNK     1       5.260   3.096  12.404  1.00  0.00     0.034 A 
HETATM   28  C17 UNK     1       5.836   4.362  12.522  1.00  0.00     0.024 A 
HETATM   29 Cl2  UNK     1       4.353   2.438  13.710  1.00  0.00    -0.084 Cl
HETATM   30  C13 UNK     1       6.571   4.895  11.463  1.00  0.00     0.011 A 
ENDBRANCH  23  24
ENDBRANCH  22  23
ENDBRANCH  16  22
ENDBRANCH   2  13
TORSDOF 6
ENDMDL
MODEL 8
REMARK VINA RESULT:      -7.7     17.657     19.696
REMARK  6 active torsions:
REMARK  status: ('A' for Active; 'I' for Inactive)
REMARK    1  A    between atoms: C2_9  and  O1_5 
REMARK    2  A    between atoms: C5_12  and  O1_5 
REMARK    3  A    between atoms: C3_10  and  O2_6 
REMARK    4  A    between atoms: C1_8  and  C9_16 
REMARK    5  A    between atoms: C5_12  and  C8_15 
REMARK    6  A    between atoms: C10_17  and  C11_18 
ROOT
HETATM    1  N1  UNK     1      19.199   5.345  29.349  1.00  0.00    -0.191 NA
HETATM    2  C9  UNK     1      17.925   4.233  32.354  1.00  0.00     0.036 C 
HETATM    3  C10 UNK     1      18.547   3.715  31.264  1.00  0.00     0.057 C 
HETATM    4  C23 UNK     1      18.904   4.623  30.209  1.00  0.00     0.100 C 
ENDROOT
BRANCH   3   5
HETATM    5  C11 UNK     1      18.872   2.301  31.114  1.00  0.00     0.006 A 
HETATM    6  C14 UNK     1      18.776   1.400  32.175  1.00  0.00     0.047 A 
HETATM    7 Cl1  UNK     1      18.266   1.896  33.751  1.00  0.00    -0.083 Cl
HETATM    8  C19 UNK     1      19.097   0.056  31.980  1.00  0.00     0.048 A 
HETATM    9  C21 UNK     1      19.513  -0.386  30.725  1.00  0.00     0.035 A 
HETATM   10  C20 UNK     1      19.609   0.515  29.664  1.00  0.00     0.025 A 
HETATM   11 Cl3  UNK     1      19.909  -2.043  30.483  1.00  0.00    -0.084 Cl
HETATM   12  C15 UNK     1      19.288   1.858  29.859  1.00  0.00     0.016 A 
ENDBRANCH   3   5
BRANCH   2  13
HETATM   13  C1  UNK     1      17.583   5.648  32.556  1.00  0.00    -0.015 A 
HETATM   14  C4  UNK     1      16.383   6.094  32.016  1.00  0.00     0.052 A 
HETATM   15  C3  UNK     1      16.008   7.427  32.177  1.00  0.00     0.102 A 
HETATM   16  C2  UNK     1      16.836   8.305  32.878  1.00  0.00     0.103 A 
HETATM   17  C7  UNK     1      18.038   7.848  33.417  1.00  0.00     0.059 A 
HETATM   18  C6  UNK     1      18.414   6.514  33.256  1.00  0.00     0.024 A 
HETATM   19 Br1  UNK     1      20.064   5.958  34.014  1.00  0.00    -0.050 Br
BRANCH  15  20
HETATM   20  O2  UNK     1      14.831   7.861  31.647  1.00  0.00    -0.353 OA
HETATM   21  C22 UNK     1      13.632   7.346  32.220  1.00  0.00     0.210 C 
ENDBRANCH  15  20
BRANCH  16  22
HETATM   22  O1  UNK     1      16.480   9.609  33.043  1.00  0.00    -0.344 OA
BRANCH  22  23
HETATM   23  C5  UNK     1      16.034   9.999  34.341  1.00  0.00     0.214 C 
BRANCH  23  24
HETATM   24  C8  UNK     1      14.750  10.765  34.208  1.00  0.00    -0.034 A 
HETATM   25  C12 UNK     1      14.114  11.248  35.347  1.00  0.00     0.011 A 
HETATM   26  C16 UNK     1      12.921  11.957  35.223  1.00  0.00     0.024 A 
HETATM   27  C18 UNK     1      12.370  12.181  33.961  1.00  0.00     0.034 A 
HETATM   28  C17 UNK     1      13.013  11.694  32.823  1.00  0.00     0.024 A 
HETATM   29 Cl2  UNK     1      10.897  13.057  33.808  1.00  0.00    -0.084 Cl
HETATM   30  C13 UNK     1      14.207  10.983  32.947  1.00  0.00     0.011 A 
ENDBRANCH  23  24
ENDBRANCH  22  23
ENDBRANCH  16  22
ENDBRANCH   2  13
TORSDOF 6
ENDMDL
MODEL 9
REMARK VINA RESULT:      -7.7      2.774      9.410
REMARK  6 active torsions:
REMARK  status: ('A' for Active; 'I' for Inactive)
REMARK    1  A    between atoms: C2_9  and  O1_5 
REMARK    2  A    between atoms: C5_12  and  O1_5 
REMARK    3  A    between atoms: C3_10  and  O2_6 
REMARK    4  A    between atoms: C1_8  and  C9_16 
REMARK    5  A    between atoms: C5_12  and  C8_15 
REMARK    6  A    between atoms: C10_17  and  C11_18 
ROOT
HETATM    1  N1  UNK     1      26.495  -5.858  38.746  1.00  0.00    -0.191 NA
HETATM    2  C9  UNK     1      25.955  -9.122  37.773  1.00  0.00     0.036 C 
HETATM    3  C10 UNK     1      25.228  -8.062  38.210  1.00  0.00     0.057 C 
HETATM    4  C23 UNK     1      25.936  -6.846  38.504  1.00  0.00     0.100 C 
ENDROOT
BRANCH   3   5
HETATM    5  C11 UNK     1      23.781  -8.093  38.388  1.00  0.00     0.006 A 
HETATM    6  C14 UNK     1      22.947  -8.853  37.567  1.00  0.00     0.047 A 
HETATM    7 Cl1  UNK     1      23.571  -9.815  36.272  1.00  0.00    -0.083 Cl
HETATM    8  C19 UNK     1      21.568  -8.850  37.779  1.00  0.00     0.048 A 
HETATM    9  C21 UNK     1      21.023  -8.088  38.812  1.00  0.00     0.035 A 
HETATM   10  C20 UNK     1      21.857  -7.328  39.633  1.00  0.00     0.025 A 
HETATM   11 Cl3  UNK     1      19.323  -8.084  39.075  1.00  0.00    -0.084 Cl
HETATM   12  C15 UNK     1      23.235  -7.331  39.421  1.00  0.00     0.016 A 
ENDBRANCH   3   5
BRANCH   2  13
HETATM   13  C1  UNK     1      27.412  -9.140  37.571  1.00  0.00    -0.015 A 
HETATM   14  C4  UNK     1      27.884  -8.746  36.325  1.00  0.00     0.052 A 
HETATM   15  C3  UNK     1      29.256  -8.743  36.078  1.00  0.00     0.102 A 
HETATM   16  C2  UNK     1      30.146  -9.135  37.079  1.00  0.00     0.103 A 
HETATM   17  C7  UNK     1      29.662  -9.530  38.327  1.00  0.00     0.059 A 
HETATM   18  C6  UNK     1      28.289  -9.532  38.573  1.00  0.00     0.024 A 
HETATM   19 Br1  UNK     1      27.698 -10.081  40.294  1.00  0.00    -0.050 Br
BRANCH  15  20
HETATM   20  O2  UNK     1      29.717  -8.356  34.857  1.00  0.00    -0.353 OA
HETATM   21  C22 UNK     1      29.704  -6.959  34.571  1.00  0.00     0.210 C 
ENDBRANCH  15  20
BRANCH  16  22
HETATM   22  O1  UNK     1      31.489  -9.136  36.850  1.00  0.00    -0.344 OA
BRANCH  22  23
HETATM   23  C5  UNK     1      32.305  -8.430  37.783  1.00  0.00     0.214 C 
BRANCH  23  24
HETATM   24  C8  UNK     1      32.239  -6.962  37.477  1.00  0.00    -0.034 A 
HETATM   25  C12 UNK     1      32.888  -6.461  36.355  1.00  0.00     0.011 A 
HETATM   26  C16 UNK     1      32.827  -5.097  36.072  1.00  0.00     0.024 A 
HETATM   27  C18 UNK     1      32.117  -4.241  36.914  1.00  0.00     0.034 A 
HETATM   28  C17 UNK     1      31.467  -4.751  38.039  1.00  0.00     0.024 A 
HETATM   29 Cl2  UNK     1      32.041  -2.558  36.566  1.00  0.00    -0.084 Cl
HETATM   30  C13 UNK     1      31.529  -6.116  38.322  1.00  0.00     0.011 A 
ENDBRANCH  23  24
ENDBRANCH  22  23
ENDBRANCH  16  22
ENDBRANCH   2  13
TORSDOF 6
ENDMDL
MODEL 10
REMARK VINA RESULT:      -7.6     34.750     35.957
REMARK  6 active torsions:
REMARK  status: ('A' for Active; 'I' for Inactive)
REMARK    1  A    between atoms: C2_9  and  O1_5 
REMARK    2  A    between atoms: C5_12  and  O1_5 
REMARK    3  A    between atoms: C3_10  and  O2_6 
REMARK    4  A    between atoms: C1_8  and  C9_16 
REMARK    5  A    between atoms: C5_12  and  C8_15 
REMARK    6  A    between atoms: C10_17  and  C11_18 
ROOT
HETATM    1  N1  UNK     1      12.946   8.834  11.646  1.00  0.00    -0.191 NA
HETATM    2  C9  UNK     1      13.550   7.901   8.382  1.00  0.00     0.036 C 
HETATM    3  C10 UNK     1      14.094   8.719   9.319  1.00  0.00     0.057 C 
HETATM    4  C23 UNK     1      13.453   8.777  10.604  1.00  0.00     0.100 C 
ENDROOT
BRANCH   3   5
HETATM    5  C11 UNK     1      15.287   9.529   9.092  1.00  0.00     0.006 A 
HETATM    6  C14 UNK     1      16.513   9.228   9.685  1.00  0.00     0.047 A 
HETATM    7 Cl1  UNK     1      16.708   7.871  10.739  1.00  0.00    -0.083 Cl
HETATM    8  C19 UNK     1      17.625  10.032   9.435  1.00  0.00     0.048 A 
HETATM    9  C21 UNK     1      17.511  11.137   8.591  1.00  0.00     0.035 A 
HETATM   10  C20 UNK     1      16.284  11.437   7.998  1.00  0.00     0.025 A 
HETATM   11 Cl3  UNK     1      18.881  12.130   8.282  1.00  0.00    -0.084 Cl
HETATM   12  C15 UNK     1      15.173  10.633   8.247  1.00  0.00     0.016 A 
ENDBRANCH   3   5
BRANCH   2  13
HETATM   13  C1  UNK     1      12.357   7.061   8.564  1.00  0.00    -0.015 A 
HETATM   14  C4  UNK     1      11.147   7.571   8.109  1.00  0.00     0.052 A 
HETATM   15  C3  UNK     1       9.983   6.818   8.254  1.00  0.00     0.102 A 
HETATM   16  C2  UNK     1      10.038   5.559   8.856  1.00  0.00     0.103 A 
HETATM   17  C7  UNK     1      11.257   5.056   9.309  1.00  0.00     0.059 A 
HETATM   18  C6  UNK     1      12.421   5.810   9.163  1.00  0.00     0.024 A 
HETATM   19 Br1  UNK     1      14.048   5.065   9.804  1.00  0.00    -0.050 Br
BRANCH  15  20
HETATM   20  O2  UNK     1       8.799   7.319   7.807  1.00  0.00    -0.353 OA
HETATM   21  C22 UNK     1       8.295   6.796   6.580  1.00  0.00     0.210 C 
ENDBRANCH  15  20
BRANCH  16  22
HETATM   22  O1  UNK     1       8.908   4.813   9.003  1.00  0.00    -0.344 OA
BRANCH  22  23
HETATM   23  C5  UNK     1       8.617   4.331  10.314  1.00  0.00     0.214 C 
BRANCH  23  24
HETATM   24  C8  UNK     1       7.459   5.104  10.874  1.00  0.00    -0.034 A 
HETATM   25  C12 UNK     1       7.391   6.480  10.684  1.00  0.00     0.011 A 
HETATM   26  C16 UNK     1       6.316   7.198  11.206  1.00  0.00     0.024 A 
HETATM   27  C18 UNK     1       5.314   6.535  11.915  1.00  0.00     0.034 A 
HETATM   28  C17 UNK     1       5.388   5.154  12.102  1.00  0.00     0.024 A 
HETATM   29 Cl2  UNK     1       3.986   7.420  12.558  1.00  0.00    -0.084 Cl
HETATM   30  C13 UNK     1       6.464   4.437  11.580  1.00  0.00     0.011 A 
ENDBRANCH  23  24
ENDBRANCH  22  23
ENDBRANCH  16  22
ENDBRANCH   2  13
TORSDOF 6
ENDMDL
