MODEL 1
REMARK VINA RESULT:      -8.9      0.000      0.000
REMARK  4 active torsions:
REMARK  status: ('A' for Active; 'I' for Inactive)
REMARK    1  A    between atoms: C16_24  and  O3_5 
REMARK    2  A    between atoms: C1_9  and  C9_17 
REMARK    3  A    between atoms: C11_19  and  C4_12 
REMARK    4  A    between atoms: C16_24  and  C8_16 
ROOT
HETATM    1  O1  UNK     1      27.787 -10.029  38.720  1.00  0.00    -0.293 OA
HETATM    2  N1  UNK     1      28.072  -5.331  38.178  1.00  0.00    -0.362 N 
HETATM    3  C1  UNK     1      25.104  -7.617  38.489  1.00  0.00     0.031 C 
HETATM    4  C2  UNK     1      25.899  -6.328  38.743  1.00  0.00     0.067 C 
HETATM    5  C3  UNK     1      27.979  -7.692  38.355  1.00  0.00     0.024 C 
HETATM    6  C4  UNK     1      29.451  -7.802  37.969  1.00  0.00     0.104 C 
HETATM    7  C5  UNK     1      27.362  -6.493  38.418  1.00  0.00     0.021 C 
HETATM    8  C6  UNK     1      25.790  -8.801  39.173  1.00  0.00     0.093 C 
HETATM    9  C7  UNK     1      27.228  -8.932  38.722  1.00  0.00     0.159 C 
HETATM   10  C8  UNK     1      30.141  -6.440  37.873  1.00  0.00     0.052 C 
HETATM   11  C10 UNK     1      29.439  -5.286  37.954  1.00  0.00     0.018 C 
HETATM   12  C12 UNK     1      30.016  -3.903  37.823  1.00  0.00     0.069 C 
HETATM   13  H7  UNK     1      27.574  -4.450  38.238  1.00  0.00     0.165 HD
ENDROOT
BRANCH   6  14
HETATM   14  C11 UNK     1      29.598  -8.549  36.670  1.00  0.00     0.029 A 
HETATM   15  C15 UNK     1      30.562  -9.675  36.606  1.00  0.00     0.194 A 
HETATM   16  O4  UNK     1      31.235 -10.012  37.571  1.00  0.00    -0.287 OA
HETATM   17  C18 UNK     1      30.669 -10.372  35.310  1.00  0.00     0.050 A 
HETATM   18  C21 UNK     1      29.876  -9.945  34.244  1.00  0.00     0.089 A 
HETATM   19  C23 UNK     1      31.548 -11.445  35.147  1.00  0.00     0.042 A 
HETATM   20  O2  UNK     1      28.996  -8.897  34.347  1.00  0.00    -0.321 OA
HETATM   21  C24 UNK     1      29.959 -10.588  33.009  1.00  0.00     0.040 A 
HETATM   22  C17 UNK     1      28.908  -8.258  35.560  1.00  0.00     0.154 A 
HETATM   23  C26 UNK     1      30.837 -11.661  32.845  1.00  0.00     0.026 A 
HETATM   24  C25 UNK     1      31.629 -12.087  33.911  1.00  0.00     0.035 A 
HETATM   25 Cl1  UNK     1      32.709 -13.411  33.701  1.00  0.00    -0.084 Cl
ENDBRANCH   6  14
BRANCH  10  26
HETATM   26  C16 UNK     1      31.607  -6.450  37.746  1.00  0.00     0.291 C 
HETATM   27  O5  UNK     1      32.354  -6.781  38.649  1.00  0.00    -0.260 OA
BRANCH  26  28
HETATM   28  O3  UNK     1      31.930  -6.039  36.497  1.00  0.00    -0.323 OA
HETATM   29  C27 UNK     1      32.865  -6.875  35.807  1.00  0.00     0.213 C 
ENDBRANCH  26  28
ENDBRANCH  10  26
BRANCH   3  30
HETATM   30  C9  UNK     1      23.650  -7.477  38.902  1.00  0.00    -0.053 A 
HETATM   31  C13 UNK     1      22.957  -6.303  38.615  1.00  0.00     0.010 A 
HETATM   32  C19 UNK     1      21.621  -6.174  38.995  1.00  0.00     0.043 A 
HETATM   33  C22 UNK     1      20.982  -7.220  39.662  1.00  0.00     0.116 A 
HETATM   34  C20 UNK     1      21.679  -8.394  39.949  1.00  0.00     0.043 A 
HETATM   35  F1  UNK     1      19.700  -7.096  40.027  1.00  0.00    -0.206 F 
HETATM   36  C14 UNK     1      23.015  -8.522  39.568  1.00  0.00     0.010 A 
ENDBRANCH   3  30
TORSDOF 4
ENDMDL
MODEL 2
REMARK VINA RESULT:      -8.6      1.597      2.158
REMARK  4 active torsions:
REMARK  status: ('A' for Active; 'I' for Inactive)
REMARK    1  A    between atoms: C16_24  and  O3_5 
REMARK    2  A    between atoms: C1_9  and  C9_17 
REMARK    3  A    between atoms: C11_19  and  C4_12 
REMARK    4  A    between atoms: C16_24  and  C8_16 
ROOT
HETATM    1  O1  UNK     1      27.722  -9.984  38.617  1.00  0.00    -0.293 OA
HETATM    2  N1  UNK     1      28.019  -5.272  38.219  1.00  0.00    -0.362 N 
HETATM    3  C1  UNK     1      25.046  -7.559  38.450  1.00  0.00     0.031 C 
HETATM    4  C2  UNK     1      25.842  -6.281  38.746  1.00  0.00     0.067 C 
HETATM    5  C3  UNK     1      27.921  -7.637  38.324  1.00  0.00     0.024 C 
HETATM    6  C4  UNK     1      29.394  -7.739  37.941  1.00  0.00     0.104 C 
HETATM    7  C5  UNK     1      27.306  -6.439  38.421  1.00  0.00     0.021 C 
HETATM    8  C6  UNK     1      25.726  -8.765  39.101  1.00  0.00     0.093 C 
HETATM    9  C7  UNK     1      27.166  -8.886  38.651  1.00  0.00     0.159 C 
HETATM   10  C8  UNK     1      30.087  -6.376  37.888  1.00  0.00     0.052 C 
HETATM   11  C10 UNK     1      29.387  -5.223  38.001  1.00  0.00     0.018 C 
HETATM   12  C12 UNK     1      29.968  -3.839  37.914  1.00  0.00     0.069 C 
HETATM   13  H7  UNK     1      27.523  -4.392  38.304  1.00  0.00     0.165 HD
ENDROOT
BRANCH   6  14
HETATM   14  C11 UNK     1      29.544  -8.446  36.620  1.00  0.00     0.029 A 
HETATM   15  C15 UNK     1      28.862  -7.877  35.430  1.00  0.00     0.194 A 
HETATM   16  O4  UNK     1      28.188  -6.858  35.492  1.00  0.00    -0.287 OA
HETATM   17  C18 UNK     1      29.039  -8.610  34.163  1.00  0.00     0.050 A 
HETATM   18  C21 UNK     1      29.819  -9.767  34.152  1.00  0.00     0.089 A 
HETATM   19  C23 UNK     1      28.438  -8.156  32.986  1.00  0.00     0.042 A 
HETATM   20  O2  UNK     1      30.432 -10.259  35.277  1.00  0.00    -0.321 OA
HETATM   21  C24 UNK     1      30.001 -10.477  32.965  1.00  0.00     0.040 A 
HETATM   22  C17 UNK     1      30.257  -9.566  36.450  1.00  0.00     0.154 A 
HETATM   23  C26 UNK     1      29.402 -10.025  31.789  1.00  0.00     0.026 A 
HETATM   24  C25 UNK     1      28.622  -8.867  31.800  1.00  0.00     0.035 A 
HETATM   25 Cl1  UNK     1      27.887  -8.315  30.345  1.00  0.00    -0.084 Cl
ENDBRANCH   6  14
BRANCH  10  26
HETATM   26  C16 UNK     1      31.554  -6.385  37.766  1.00  0.00     0.291 C 
HETATM   27  O5  UNK     1      32.295  -6.803  38.637  1.00  0.00    -0.260 OA
BRANCH  26  28
HETATM   28  O3  UNK     1      31.885  -5.865  36.560  1.00  0.00    -0.323 OA
HETATM   29  C27 UNK     1      32.655  -6.729  35.718  1.00  0.00     0.213 C 
ENDBRANCH  26  28
ENDBRANCH  10  26
BRANCH   3  30
HETATM   30  C9  UNK     1      23.591  -7.428  38.862  1.00  0.00    -0.053 A 
HETATM   31  C13 UNK     1      22.885  -6.265  38.560  1.00  0.00     0.010 A 
HETATM   32  C19 UNK     1      21.549  -6.145  38.940  1.00  0.00     0.043 A 
HETATM   33  C22 UNK     1      20.920  -7.188  39.619  1.00  0.00     0.116 A 
HETATM   34  C20 UNK     1      21.628  -8.352  39.921  1.00  0.00     0.043 A 
HETATM   35  F1  UNK     1      19.636  -7.073  39.984  1.00  0.00    -0.206 F 
HETATM   36  C14 UNK     1      22.966  -8.472  39.541  1.00  0.00     0.010 A 
ENDBRANCH   3  30
TORSDOF 4
ENDMDL
MODEL 3
REMARK VINA RESULT:      -8.6      2.229      2.643
REMARK  4 active torsions:
REMARK  status: ('A' for Active; 'I' for Inactive)
REMARK    1  A    between atoms: C16_24  and  O3_5 
REMARK    2  A    between atoms: C1_9  and  C9_17 
REMARK    3  A    between atoms: C11_19  and  C4_12 
REMARK    4  A    between atoms: C16_24  and  C8_16 
ROOT
HETATM    1  O1  UNK     1      27.784  -9.879  36.122  1.00  0.00    -0.293 OA
HETATM    2  N1  UNK     1      27.891  -5.873  38.649  1.00  0.00    -0.362 N 
HETATM    3  C1  UNK     1      25.031  -8.092  37.638  1.00  0.00     0.031 C 
HETATM    4  C2  UNK     1      25.815  -7.184  38.596  1.00  0.00     0.067 C 
HETATM    5  C3  UNK     1      27.878  -7.822  37.302  1.00  0.00     0.024 C 
HETATM    6  C4  UNK     1      29.304  -7.541  36.840  1.00  0.00     0.104 C 
HETATM    7  C5  UNK     1      27.240  -6.984  38.147  1.00  0.00     0.021 C 
HETATM    8  C6  UNK     1      25.814  -9.380  37.376  1.00  0.00     0.093 C 
HETATM    9  C7  UNK     1      27.201  -9.077  36.852  1.00  0.00     0.159 C 
HETATM   10  C8  UNK     1      29.945  -6.366  37.580  1.00  0.00     0.052 C 
HETATM   11  C10 UNK     1      29.226  -5.581  38.416  1.00  0.00     0.018 C 
HETATM   12  C12 UNK     1      29.751  -4.377  39.149  1.00  0.00     0.069 C 
HETATM   13  H7  UNK     1      27.380  -5.269  39.283  1.00  0.00     0.165 HD
ENDROOT
BRANCH   6  14
HETATM   14  C11 UNK     1      29.335  -7.295  35.355  1.00  0.00     0.029 A 
HETATM   15  C15 UNK     1      30.287  -8.076  34.527  1.00  0.00     0.194 A 
HETATM   16  O4  UNK     1      31.041  -8.908  35.013  1.00  0.00    -0.287 OA
HETATM   17  C18 UNK     1      30.278  -7.795  33.079  1.00  0.00     0.050 A 
HETATM   18  C21 UNK     1      29.396  -6.836  32.580  1.00  0.00     0.089 A 
HETATM   19  C23 UNK     1      31.137  -8.478  32.214  1.00  0.00     0.042 A 
HETATM   20  O2  UNK     1      28.530  -6.135  33.383  1.00  0.00    -0.321 OA
HETATM   21  C24 UNK     1      29.369  -6.553  31.214  1.00  0.00     0.040 A 
HETATM   22  C17 UNK     1      28.551  -6.407  34.729  1.00  0.00     0.154 A 
HETATM   23  C26 UNK     1      30.226  -7.234  30.349  1.00  0.00     0.026 A 
HETATM   24  C25 UNK     1      31.108  -8.194  30.848  1.00  0.00     0.035 A 
HETATM   25 Cl1  UNK     1      32.162  -9.031  29.775  1.00  0.00    -0.084 Cl
ENDBRANCH   6  14
BRANCH  10  26
HETATM   26  C16 UNK     1      31.391  -6.169  37.382  1.00  0.00     0.291 C 
HETATM   27  O5  UNK     1      31.854  -5.421  36.541  1.00  0.00    -0.260 OA
BRANCH  26  28
HETATM   28  O3  UNK     1      32.054  -6.945  38.272  1.00  0.00    -0.323 OA
HETATM   29  C27 UNK     1      33.104  -7.744  37.716  1.00  0.00     0.213 C 
ENDBRANCH  26  28
ENDBRANCH  10  26
BRANCH   3  30
HETATM   30  C9  UNK     1      23.625  -8.366  38.139  1.00  0.00    -0.053 A 
HETATM   31  C13 UNK     1      22.690  -8.960  37.294  1.00  0.00     0.010 A 
HETATM   32  C19 UNK     1      21.398  -9.210  37.755  1.00  0.00     0.043 A 
HETATM   33  C22 UNK     1      21.043  -8.867  39.060  1.00  0.00     0.116 A 
HETATM   34  C20 UNK     1      21.981  -8.272  39.904  1.00  0.00     0.043 A 
HETATM   35  F1  UNK     1      19.802  -9.108  39.502  1.00  0.00    -0.206 F 
HETATM   36  C14 UNK     1      23.274  -8.022  39.443  1.00  0.00     0.010 A 
ENDBRANCH   3  30
TORSDOF 4
ENDMDL
MODEL 4
REMARK VINA RESULT:      -8.4      4.728      7.078
REMARK  4 active torsions:
REMARK  status: ('A' for Active; 'I' for Inactive)
REMARK    1  A    between atoms: C16_24  and  O3_5 
REMARK    2  A    between atoms: C1_9  and  C9_17 
REMARK    3  A    between atoms: C11_19  and  C4_12 
REMARK    4  A    between atoms: C16_24  and  C8_16 
ROOT
HETATM    1  O1  UNK     1      33.716  -9.236  34.636  1.00  0.00    -0.293 OA
HETATM    2  N1  UNK     1      31.198  -6.526  31.676  1.00  0.00    -0.362 N 
HETATM    3  C1  UNK     1      31.123  -6.843  35.420  1.00  0.00     0.031 C 
HETATM    4  C2  UNK     1      31.068  -6.081  34.088  1.00  0.00     0.067 C 
HETATM    5  C3  UNK     1      32.417  -7.967  33.107  1.00  0.00     0.024 C 
HETATM    6  C4  UNK     1      32.879  -8.799  31.915  1.00  0.00     0.104 C 
HETATM    7  C5  UNK     1      31.597  -6.907  32.943  1.00  0.00     0.021 C 
HETATM    8  C6  UNK     1      32.520  -7.427  35.636  1.00  0.00     0.093 C 
HETATM    9  C7  UNK     1      32.928  -8.304  34.472  1.00  0.00     0.159 C 
HETATM   10  C8  UNK     1      32.481  -8.182  30.574  1.00  0.00     0.052 C 
HETATM   11  C10 UNK     1      31.656  -7.112  30.506  1.00  0.00     0.018 C 
HETATM   12  C12 UNK     1      31.169  -6.465  29.239  1.00  0.00     0.069 C 
HETATM   13  H7  UNK     1      30.585  -5.723  31.593  1.00  0.00     0.165 HD
ENDROOT
BRANCH   6  14
HETATM   14  C11 UNK     1      32.345 -10.203  32.018  1.00  0.00     0.029 A 
HETATM   15  C15 UNK     1      33.311 -11.331  32.004  1.00  0.00     0.194 A 
HETATM   16  O4  UNK     1      34.518 -11.153  31.914  1.00  0.00    -0.287 OA
HETATM   17  C18 UNK     1      32.735 -12.685  32.105  1.00  0.00     0.050 A 
HETATM   18  C21 UNK     1      31.351 -12.828  32.206  1.00  0.00     0.089 A 
HETATM   19  C23 UNK     1      33.560 -13.813  32.101  1.00  0.00     0.042 A 
HETATM   20  O2  UNK     1      30.494 -11.756  32.215  1.00  0.00    -0.321 OA
HETATM   21  C24 UNK     1      30.784 -14.099  32.303  1.00  0.00     0.040 A 
HETATM   22  C17 UNK     1      31.044 -10.502  32.119  1.00  0.00     0.154 A 
HETATM   23  C26 UNK     1      31.607 -15.226  32.300  1.00  0.00     0.026 A 
HETATM   24  C25 UNK     1      32.991 -15.083  32.199  1.00  0.00     0.035 A 
HETATM   25 Cl1  UNK     1      33.999 -16.478  32.195  1.00  0.00    -0.084 Cl
ENDBRANCH   6  14
BRANCH  10  26
HETATM   26  C16 UNK     1      33.084  -8.775  29.369  1.00  0.00     0.291 C 
HETATM   27  O5  UNK     1      32.435  -9.319  28.494  1.00  0.00    -0.260 OA
BRANCH  26  28
HETATM   28  O3  UNK     1      34.426  -8.601  29.433  1.00  0.00    -0.323 OA
HETATM   29  C27 UNK     1      34.897  -7.341  28.943  1.00  0.00     0.213 C 
ENDBRANCH  26  28
ENDBRANCH  10  26
BRANCH   3  30
HETATM   30  C9  UNK     1      30.675  -5.979  36.586  1.00  0.00    -0.053 A 
HETATM   31  C13 UNK     1      31.036  -4.634  36.632  1.00  0.00     0.010 A 
HETATM   32  C19 UNK     1      30.626  -3.841  37.703  1.00  0.00     0.043 A 
HETATM   33  C22 UNK     1      29.854  -4.394  38.725  1.00  0.00     0.116 A 
HETATM   34  C20 UNK     1      29.494  -5.741  38.676  1.00  0.00     0.043 A 
HETATM   35  F1  UNK     1      29.460  -3.632  39.753  1.00  0.00    -0.206 F 
HETATM   36  C14 UNK     1      29.905  -6.534  37.605  1.00  0.00     0.010 A 
ENDBRANCH   3  30
TORSDOF 4
ENDMDL
MODEL 5
REMARK VINA RESULT:      -8.4      4.484      6.971
REMARK  4 active torsions:
REMARK  status: ('A' for Active; 'I' for Inactive)
REMARK    1  A    between atoms: C16_24  and  O3_5 
REMARK    2  A    between atoms: C1_9  and  C9_17 
REMARK    3  A    between atoms: C11_19  and  C4_12 
REMARK    4  A    between atoms: C16_24  and  C8_16 
ROOT
HETATM    1  O1  UNK     1      32.576  -8.060  33.281  1.00  0.00    -0.293 OA
HETATM    2  N1  UNK     1      28.121  -6.905  32.156  1.00  0.00    -0.362 N 
HETATM    3  C1  UNK     1      29.991  -6.699  35.410  1.00  0.00     0.031 C 
HETATM    4  C2  UNK     1      29.011  -6.205  34.337  1.00  0.00     0.067 C 
HETATM    5  C3  UNK     1      30.327  -7.583  32.691  1.00  0.00     0.024 C 
HETATM    6  C4  UNK     1      30.437  -8.346  31.375  1.00  0.00     0.104 C 
HETATM    7  C5  UNK     1      29.193  -6.932  33.028  1.00  0.00     0.021 C 
HETATM    8  C6  UNK     1      31.418  -6.694  34.862  1.00  0.00     0.093 C 
HETATM    9  C7  UNK     1      31.518  -7.515  33.594  1.00  0.00     0.159 C 
HETATM   10  C8  UNK     1      29.238  -8.112  30.454  1.00  0.00     0.052 C 
HETATM   11  C10 UNK     1      28.143  -7.439  30.878  1.00  0.00     0.018 C 
HETATM   12  C12 UNK     1      26.898  -7.201  30.068  1.00  0.00     0.069 C 
HETATM   13  H7  UNK     1      27.288  -6.402  32.444  1.00  0.00     0.165 HD
ENDROOT
BRANCH   6  14
HETATM   14  C11 UNK     1      30.609  -9.819  31.636  1.00  0.00     0.029 A 
HETATM   15  C15 UNK     1      31.730 -10.529  30.970  1.00  0.00     0.194 A 
HETATM   16  O4  UNK     1      32.511  -9.956  30.223  1.00  0.00    -0.287 OA
HETATM   17  C18 UNK     1      31.853 -11.971  31.258  1.00  0.00     0.050 A 
HETATM   18  C21 UNK     1      30.933 -12.571  32.118  1.00  0.00     0.089 A 
HETATM   19  C23 UNK     1      32.874 -12.729  30.680  1.00  0.00     0.042 A 
HETATM   20  O2  UNK     1      29.910 -11.876  32.713  1.00  0.00    -0.321 OA
HETATM   21  C24 UNK     1      31.029 -13.933  32.405  1.00  0.00     0.040 A 
HETATM   22  C17 UNK     1      29.808 -10.534  32.435  1.00  0.00     0.154 A 
HETATM   23  C26 UNK     1      32.049 -14.692  31.830  1.00  0.00     0.026 A 
HETATM   24  C25 UNK     1      32.969 -14.091  30.970  1.00  0.00     0.035 A 
HETATM   25 Cl1  UNK     1      34.225 -15.032  30.264  1.00  0.00    -0.084 Cl
ENDBRANCH   6  14
BRANCH  10  26
HETATM   26  C16 UNK     1      29.360  -8.606  29.072  1.00  0.00     0.291 C 
HETATM   27  O5  UNK     1      30.184  -8.183  28.282  1.00  0.00    -0.260 OA
BRANCH  26  28
HETATM   28  O3  UNK     1      28.424  -9.565  28.878  1.00  0.00    -0.323 OA
HETATM   29  C27 UNK     1      28.942 -10.864  28.573  1.00  0.00     0.213 C 
ENDBRANCH  26  28
ENDBRANCH  10  26
BRANCH   3  30
HETATM   30  C9  UNK     1      29.867  -5.905  36.698  1.00  0.00    -0.053 A 
HETATM   31  C13 UNK     1      29.011  -6.346  37.706  1.00  0.00     0.010 A 
HETATM   32  C19 UNK     1      28.897  -5.616  38.889  1.00  0.00     0.043 A 
HETATM   33  C22 UNK     1      29.639  -4.448  39.062  1.00  0.00     0.116 A 
HETATM   34  C20 UNK     1      30.495  -4.008  38.052  1.00  0.00     0.043 A 
HETATM   35  F1  UNK     1      29.529  -3.747  40.198  1.00  0.00    -0.206 F 
HETATM   36  C14 UNK     1      30.609  -4.739  36.868  1.00  0.00     0.010 A 
ENDBRANCH   3  30
TORSDOF 4
ENDMDL
MODEL 6
REMARK VINA RESULT:      -8.3      5.304      7.998
REMARK  4 active torsions:
REMARK  status: ('A' for Active; 'I' for Inactive)
REMARK    1  A    between atoms: C16_24  and  O3_5 
REMARK    2  A    between atoms: C1_9  and  C9_17 
REMARK    3  A    between atoms: C11_19  and  C4_12 
REMARK    4  A    between atoms: C16_24  and  C8_16 
ROOT
HETATM    1  O1  UNK     1      34.578  -6.393  33.233  1.00  0.00    -0.293 OA
HETATM    2  N1  UNK     1      30.426  -8.553  32.499  1.00  0.00    -0.362 N 
HETATM    3  C1  UNK     1      31.715  -6.587  35.431  1.00  0.00     0.031 C 
HETATM    4  C2  UNK     1      30.651  -7.043  34.423  1.00  0.00     0.067 C 
HETATM    5  C3  UNK     1      32.551  -7.568  32.856  1.00  0.00     0.024 C 
HETATM    6  C4  UNK     1      33.129  -8.327  31.667  1.00  0.00     0.104 C 
HETATM    7  C5  UNK     1      31.262  -7.727  33.227  1.00  0.00     0.021 C 
HETATM    8  C6  UNK     1      32.808  -5.789  34.718  1.00  0.00     0.093 C 
HETATM    9  C7  UNK     1      33.416  -6.590  33.586  1.00  0.00     0.159 C 
HETATM   10  C8  UNK     1      32.064  -9.086  30.875  1.00  0.00     0.052 C 
HETATM   11  C10 UNK     1      30.791  -9.189  31.322  1.00  0.00     0.018 C 
HETATM   12  C12 UNK     1      29.686  -9.952  30.644  1.00  0.00     0.069 C 
HETATM   13  H7  UNK     1      29.464  -8.644  32.806  1.00  0.00     0.165 HD
ENDROOT
BRANCH   6  14
HETATM   14  C11 UNK     1      34.207  -9.274  32.124  1.00  0.00     0.029 A 
HETATM   15  C15 UNK     1      35.573  -9.115  31.567  1.00  0.00     0.194 A 
HETATM   16  O4  UNK     1      35.846  -8.242  30.754  1.00  0.00    -0.287 OA
HETATM   17  C18 UNK     1      36.590 -10.070  32.046  1.00  0.00     0.050 A 
HETATM   18  C21 UNK     1      36.221 -11.044  32.974  1.00  0.00     0.089 A 
HETATM   19  C23 UNK     1      37.906 -10.003  31.582  1.00  0.00     0.042 A 
HETATM   20  O2  UNK     1      34.944 -11.156  33.465  1.00  0.00    -0.321 OA
HETATM   21  C24 UNK     1      37.166 -11.958  33.442  1.00  0.00     0.040 A 
HETATM   22  C17 UNK     1      34.008 -10.260  33.008  1.00  0.00     0.154 A 
HETATM   23  C26 UNK     1      38.481 -11.892  32.980  1.00  0.00     0.026 A 
HETATM   24  C25 UNK     1      38.850 -10.917  32.052  1.00  0.00     0.035 A 
HETATM   25 Cl1  UNK     1      40.473 -10.842  31.486  1.00  0.00    -0.084 Cl
ENDBRANCH   6  14
BRANCH  10  26
HETATM   26  C16 UNK     1      32.479  -9.648  29.579  1.00  0.00     0.291 C 
HETATM   27  O5  UNK     1      32.581 -10.843  29.371  1.00  0.00    -0.260 OA
BRANCH  26  28
HETATM   28  O3  UNK     1      32.709  -8.624  28.724  1.00  0.00    -0.323 OA
HETATM   29  C27 UNK     1      31.534  -7.992  28.205  1.00  0.00     0.213 C 
ENDBRANCH  26  28
ENDBRANCH  10  26
BRANCH   3  30
HETATM   30  C9  UNK     1      31.106  -5.819  36.590  1.00  0.00    -0.053 A 
HETATM   31  C13 UNK     1      31.224  -4.431  36.642  1.00  0.00     0.010 A 
HETATM   32  C19 UNK     1      30.665  -3.725  37.707  1.00  0.00     0.043 A 
HETATM   33  C22 UNK     1      29.988  -4.408  38.718  1.00  0.00     0.116 A 
HETATM   34  C20 UNK     1      29.872  -5.798  38.664  1.00  0.00     0.043 A 
HETATM   35  F1  UNK     1      29.452  -3.731  39.740  1.00  0.00    -0.206 F 
HETATM   36  C14 UNK     1      30.431  -6.503  37.598  1.00  0.00     0.010 A 
ENDBRANCH   3  30
TORSDOF 4
ENDMDL
MODEL 7
REMARK VINA RESULT:      -8.3      6.452     11.113
REMARK  4 active torsions:
REMARK  status: ('A' for Active; 'I' for Inactive)
REMARK    1  A    between atoms: C16_24  and  O3_5 
REMARK    2  A    between atoms: C1_9  and  C9_17 
REMARK    3  A    between atoms: C11_19  and  C4_12 
REMARK    4  A    between atoms: C16_24  and  C8_16 
ROOT
HETATM    1  O1  UNK     1      33.120  -9.725  34.467  1.00  0.00    -0.293 OA
HETATM    2  N1  UNK     1      32.851  -8.116  30.019  1.00  0.00    -0.362 N 
HETATM    3  C1  UNK     1      35.766  -9.376  32.028  1.00  0.00     0.031 C 
HETATM    4  C2  UNK     1      34.921  -9.213  30.757  1.00  0.00     0.067 C 
HETATM    5  C3  UNK     1      32.951  -8.825  32.277  1.00  0.00     0.024 C 
HETATM    6  C4  UNK     1      31.563  -8.253  32.543  1.00  0.00     0.104 C 
HETATM    7  C5  UNK     1      33.531  -8.713  31.063  1.00  0.00     0.021 C 
HETATM    8  C6  UNK     1      34.999 -10.194  33.069  1.00  0.00     0.093 C 
HETATM    9  C7  UNK     1      33.654  -9.569  33.369  1.00  0.00     0.159 C 
HETATM   10  C8  UNK     1      30.875  -7.752  31.272  1.00  0.00     0.052 C 
HETATM   11  C10 UNK     1      31.537  -7.680  30.093  1.00  0.00     0.018 C 
HETATM   12  C12 UNK     1      30.966  -7.159  28.803  1.00  0.00     0.069 C 
HETATM   13  H7  UNK     1      33.318  -8.053  29.121  1.00  0.00     0.165 HD
ENDROOT
BRANCH   6  14
HETATM   14  C11 UNK     1      31.638  -7.146  33.561  1.00  0.00     0.029 A 
HETATM   15  C15 UNK     1      30.645  -7.129  34.664  1.00  0.00     0.194 A 
HETATM   16  O4  UNK     1      29.775  -7.983  34.769  1.00  0.00    -0.287 OA
HETATM   17  C18 UNK     1      30.762  -6.022  35.632  1.00  0.00     0.050 A 
HETATM   18  C21 UNK     1      31.775  -5.077  35.462  1.00  0.00     0.089 A 
HETATM   19  C23 UNK     1      29.875  -5.917  36.706  1.00  0.00     0.042 A 
HETATM   20  O2  UNK     1      32.673  -5.131  34.426  1.00  0.00    -0.321 OA
HETATM   21  C24 UNK     1      31.905  -4.021  36.365  1.00  0.00     0.040 A 
HETATM   22  C17 UNK     1      32.551  -6.166  33.532  1.00  0.00     0.154 A 
HETATM   23  C26 UNK     1      31.020  -3.915  37.439  1.00  0.00     0.026 A 
HETATM   24  C25 UNK     1      30.008  -4.861  37.608  1.00  0.00     0.035 A 
HETATM   25 Cl1  UNK     1      28.921  -4.724  38.935  1.00  0.00    -0.084 Cl
ENDBRANCH   6  14
BRANCH  10  26
HETATM   26  C16 UNK     1      29.448  -7.408  31.384  1.00  0.00     0.291 C 
HETATM   27  O5  UNK     1      29.041  -6.264  31.463  1.00  0.00    -0.260 OA
BRANCH  26  28
HETATM   28  O3  UNK     1      28.731  -8.557  31.381  1.00  0.00    -0.323 OA
HETATM   29  C27 UNK     1      27.666  -8.604  30.425  1.00  0.00     0.213 C 
ENDBRANCH  26  28
ENDBRANCH  10  26
BRANCH   3  30
HETATM   30  C9  UNK     1      37.133  -9.965  31.728  1.00  0.00    -0.053 A 
HETATM   31  C13 UNK     1      37.436 -10.393  30.437  1.00  0.00     0.010 A 
HETATM   32  C19 UNK     1      38.691 -10.934  30.161  1.00  0.00     0.043 A 
HETATM   33  C22 UNK     1      39.641 -11.048  31.177  1.00  0.00     0.116 A 
HETATM   34  C20 UNK     1      39.334 -10.619  32.469  1.00  0.00     0.043 A 
HETATM   35  F1  UNK     1      40.846 -11.568  30.912  1.00  0.00    -0.206 F 
HETATM   36  C14 UNK     1      38.078 -10.077  32.744  1.00  0.00     0.010 A 
ENDBRANCH   3  30
TORSDOF 4
ENDMDL
MODEL 8
REMARK VINA RESULT:      -8.3      7.195     10.813
REMARK  4 active torsions:
REMARK  status: ('A' for Active; 'I' for Inactive)
REMARK    1  A    between atoms: C16_24  and  O3_5 
REMARK    2  A    between atoms: C1_9  and  C9_17 
REMARK    3  A    between atoms: C11_19  and  C4_12 
REMARK    4  A    between atoms: C16_24  and  C8_16 
ROOT
HETATM    1  O1  UNK     1      33.900  -6.788  30.678  1.00  0.00    -0.293 OA
HETATM    2  N1  UNK     1      34.533  -8.175  35.164  1.00  0.00    -0.362 N 
HETATM    3  C1  UNK     1      36.130  -9.327  31.962  1.00  0.00     0.031 C 
HETATM    4  C2  UNK     1      36.114  -8.951  33.450  1.00  0.00     0.067 C 
HETATM    5  C3  UNK     1      34.115  -7.512  32.928  1.00  0.00     0.024 C 
HETATM    6  C4  UNK     1      32.841  -6.790  33.356  1.00  0.00     0.104 C 
HETATM    7  C5  UNK     1      34.874  -8.178  33.824  1.00  0.00     0.021 C 
HETATM    8  C6  UNK     1      35.856  -8.091  31.104  1.00  0.00     0.093 C 
HETATM    9  C7  UNK     1      34.552  -7.432  31.500  1.00  0.00     0.159 C 
HETATM   10  C8  UNK     1      32.666  -6.749  34.875  1.00  0.00     0.052 C 
HETATM   11  C10 UNK     1      33.483  -7.446  35.699  1.00  0.00     0.018 C 
HETATM   12  C12 UNK     1      33.363  -7.510  37.197  1.00  0.00     0.069 C 
HETATM   13  H7  UNK     1      35.131  -8.683  35.807  1.00  0.00     0.165 HD
ENDROOT
BRANCH   6  14
HETATM   14  C11 UNK     1      31.637  -7.426  32.713  1.00  0.00     0.029 A 
HETATM   15  C15 UNK     1      30.584  -6.542  32.153  1.00  0.00     0.194 A 
HETATM   16  O4  UNK     1      30.667  -5.322  32.198  1.00  0.00    -0.287 OA
HETATM   17  C18 UNK     1      29.425  -7.216  31.537  1.00  0.00     0.050 A 
HETATM   18  C21 UNK     1      29.385  -8.610  31.514  1.00  0.00     0.089 A 
HETATM   19  C23 UNK     1      28.381  -6.473  30.982  1.00  0.00     0.042 A 
HETATM   20  O2  UNK     1      30.383  -9.390  32.044  1.00  0.00    -0.321 OA
HETATM   21  C24 UNK     1      28.300  -9.269  30.937  1.00  0.00     0.040 A 
HETATM   22  C17 UNK     1      31.454  -8.748  32.616  1.00  0.00     0.154 A 
HETATM   23  C26 UNK     1      27.255  -8.529  30.381  1.00  0.00     0.026 A 
HETATM   24  C25 UNK     1      27.296  -7.134  30.404  1.00  0.00     0.035 A 
HETATM   25 Cl1  UNK     1      26.005  -6.227  29.717  1.00  0.00    -0.084 Cl
ENDBRANCH   6  14
BRANCH  10  26
HETATM   26  C16 UNK     1      31.604  -5.872  35.394  1.00  0.00     0.291 C 
HETATM   27  O5  UNK     1      30.531  -6.286  35.794  1.00  0.00    -0.260 OA
BRANCH  26  28
HETATM   28  O3  UNK     1      32.042  -4.591  35.338  1.00  0.00    -0.323 OA
HETATM   29  C27 UNK     1      32.050  -3.898  36.590  1.00  0.00     0.213 C 
ENDBRANCH  26  28
ENDBRANCH  10  26
BRANCH   3  30
HETATM   30  C9  UNK     1      37.419 -10.026  31.569  1.00  0.00    -0.053 A 
HETATM   31  C13 UNK     1      37.611 -10.438  30.251  1.00  0.00     0.010 A 
HETATM   32  C19 UNK     1      38.795 -11.081  29.890  1.00  0.00     0.043 A 
HETATM   33  C22 UNK     1      39.784 -11.310  30.847  1.00  0.00     0.116 A 
HETATM   34  C20 UNK     1      39.589 -10.897  32.165  1.00  0.00     0.043 A 
HETATM   35  F1  UNK     1      40.921 -11.927  30.500  1.00  0.00    -0.206 F 
HETATM   36  C14 UNK     1      38.405 -10.254  32.526  1.00  0.00     0.010 A 
ENDBRANCH   3  30
TORSDOF 4
ENDMDL
MODEL 9
REMARK VINA RESULT:      -8.2     34.846     36.629
REMARK  4 active torsions:
REMARK  status: ('A' for Active; 'I' for Inactive)
REMARK    1  A    between atoms: C16_24  and  O3_5 
REMARK    2  A    between atoms: C1_9  and  C9_17 
REMARK    3  A    between atoms: C11_19  and  C4_12 
REMARK    4  A    between atoms: C16_24  and  C8_16 
ROOT
HETATM    1  O1  UNK     1      20.428  11.274   8.055  1.00  0.00    -0.293 OA
HETATM    2  N1  UNK     1      20.193  15.645   9.867  1.00  0.00    -0.362 N 
HETATM    3  C1  UNK     1      22.621  12.840  10.465  1.00  0.00     0.031 C 
HETATM    4  C2  UNK     1      22.213  14.306  10.265  1.00  0.00     0.067 C 
HETATM    5  C3  UNK     1      20.214  13.439   9.003  1.00  0.00     0.024 C 
HETATM    6  C4  UNK     1      18.792  13.606   8.478  1.00  0.00     0.104 C 
HETATM    7  C5  UNK     1      20.829  14.433   9.679  1.00  0.00     0.021 C 
HETATM    8  C6  UNK     1      22.389  12.049   9.177  1.00  0.00     0.093 C 
HETATM    9  C7  UNK     1      20.954  12.172   8.713  1.00  0.00     0.159 C 
HETATM   10  C8  UNK     1      18.269  15.035   8.630  1.00  0.00     0.052 C 
HETATM   11  C10 UNK     1      18.959  15.970   9.323  1.00  0.00     0.018 C 
HETATM   12  C12 UNK     1      18.508  17.383   9.570  1.00  0.00     0.069 C 
HETATM   13  H7  UNK     1      20.689  16.368  10.377  1.00  0.00     0.165 HD
ENDROOT
BRANCH   6  14
HETATM   14  C11 UNK     1      17.864  12.639   9.164  1.00  0.00     0.029 A 
HETATM   15  C15 UNK     1      16.958  11.811   8.328  1.00  0.00     0.194 A 
HETATM   16  O4  UNK     1      16.946  11.892   7.107  1.00  0.00    -0.287 OA
HETATM   17  C18 UNK     1      16.069  10.883   9.050  1.00  0.00     0.050 A 
HETATM   18  C21 UNK     1      16.126  10.834  10.443  1.00  0.00     0.089 A 
HETATM   19  C23 UNK     1      15.180  10.061   8.354  1.00  0.00     0.042 A 
HETATM   20  O2  UNK     1      16.980  11.618  11.179  1.00  0.00    -0.321 OA
HETATM   21  C24 UNK     1      15.295   9.963  11.148  1.00  0.00     0.040 A 
HETATM   22  C17 UNK     1      17.802  12.479  10.492  1.00  0.00     0.154 A 
HETATM   23  C26 UNK     1      14.406   9.141  10.454  1.00  0.00     0.026 A 
HETATM   24  C25 UNK     1      14.349   9.190   9.060  1.00  0.00     0.035 A 
HETATM   25 Cl1  UNK     1      13.251   8.173   8.211  1.00  0.00    -0.084 Cl
ENDBRANCH   6  14
BRANCH  10  26
HETATM   26  C16 UNK     1      17.008  15.354   7.940  1.00  0.00     0.291 C 
HETATM   27  O5  UNK     1      15.918  15.293   8.477  1.00  0.00    -0.260 OA
BRANCH  26  28
HETATM   28  O3  UNK     1      17.298  15.707   6.664  1.00  0.00    -0.323 OA
HETATM   29  C27 UNK     1      16.481  15.088   5.665  1.00  0.00     0.213 C 
ENDBRANCH  26  28
ENDBRANCH  10  26
BRANCH   3  30
HETATM   30  C9  UNK     1      24.048  12.712  10.969  1.00  0.00    -0.053 A 
HETATM   31  C13 UNK     1      24.520  13.587  11.945  1.00  0.00     0.010 A 
HETATM   32  C19 UNK     1      25.830  13.470  12.407  1.00  0.00     0.043 A 
HETATM   33  C22 UNK     1      26.666  12.478  11.893  1.00  0.00     0.116 A 
HETATM   34  C20 UNK     1      26.191  11.604  10.915  1.00  0.00     0.043 A 
HETATM   35  F1  UNK     1      27.924  12.366  12.337  1.00  0.00    -0.206 F 
HETATM   36  C14 UNK     1      24.879  11.721  10.453  1.00  0.00     0.010 A 
ENDBRANCH   3  30
TORSDOF 4
ENDMDL
MODEL 10
REMARK VINA RESULT:      -8.1      4.642      8.925
REMARK  4 active torsions:
REMARK  status: ('A' for Active; 'I' for Inactive)
REMARK    1  A    between atoms: C16_24  and  O3_5 
REMARK    2  A    between atoms: C1_9  and  C9_17 
REMARK    3  A    between atoms: C11_19  and  C4_12 
REMARK    4  A    between atoms: C16_24  and  C8_16 
ROOT
HETATM    1  O1  UNK     1      29.833  -8.719  33.726  1.00  0.00    -0.293 OA
HETATM    2  N1  UNK     1      34.155  -7.891  35.480  1.00  0.00    -0.362 N 
HETATM    3  C1  UNK     1      32.860 -10.641  33.269  1.00  0.00     0.031 C 
HETATM    4  C2  UNK     1      33.892  -9.607  33.742  1.00  0.00     0.067 C 
HETATM    5  C3  UNK     1      31.957  -8.313  34.703  1.00  0.00     0.024 C 
HETATM    6  C4  UNK     1      31.389  -7.298  35.689  1.00  0.00     0.104 C 
HETATM    7  C5  UNK     1      33.281  -8.577  34.659  1.00  0.00     0.021 C 
HETATM    8  C6  UNK     1      31.623  -9.934  32.714  1.00  0.00     0.093 C 
HETATM    9  C7  UNK     1      31.035  -8.983  33.735  1.00  0.00     0.159 C 
HETATM   10  C8  UNK     1      32.477  -6.518  36.428  1.00  0.00     0.052 C 
HETATM   11  C10 UNK     1      33.784  -6.852  36.319  1.00  0.00     0.018 C 
HETATM   12  C12 UNK     1      34.919  -6.181  37.041  1.00  0.00     0.069 C 
HETATM   13  H7  UNK     1      35.142  -8.115  35.415  1.00  0.00     0.165 HD
ENDROOT
BRANCH   6  14
HETATM   14  C11 UNK     1      30.479  -7.979  36.676  1.00  0.00     0.029 A 
HETATM   15  C15 UNK     1      29.073  -7.515  36.781  1.00  0.00     0.194 A 
HETATM   16  O4  UNK     1      28.636  -6.603  36.092  1.00  0.00    -0.287 OA
HETATM   17  C18 UNK     1      28.225  -8.214  37.765  1.00  0.00     0.050 A 
HETATM   18  C21 UNK     1      28.777  -9.248  38.522  1.00  0.00     0.089 A 
HETATM   19  C23 UNK     1      26.887  -7.852  37.938  1.00  0.00     0.042 A 
HETATM   20  O2  UNK     1      30.084  -9.646  38.393  1.00  0.00    -0.321 OA
HETATM   21  C24 UNK     1      27.995  -9.924  39.458  1.00  0.00     0.040 A 
HETATM   22  C17 UNK     1      30.862  -8.984  37.474  1.00  0.00     0.154 A 
HETATM   23  C26 UNK     1      26.658  -9.564  39.633  1.00  0.00     0.026 A 
HETATM   24  C25 UNK     1      26.106  -8.530  38.875  1.00  0.00     0.035 A 
HETATM   25 Cl1  UNK     1      24.457  -8.091  39.096  1.00  0.00    -0.084 Cl
ENDBRANCH   6  14
BRANCH  10  26
HETATM   26  C16 UNK     1      32.036  -5.355  37.217  1.00  0.00     0.291 C 
HETATM   27  O5  UNK     1      32.101  -5.308  38.431  1.00  0.00    -0.260 OA
BRANCH  26  28
HETATM   28  O3  UNK     1      31.573  -4.411  36.363  1.00  0.00    -0.323 OA
HETATM   29  C27 UNK     1      32.350  -3.209  36.310  1.00  0.00     0.213 C 
ENDBRANCH  26  28
ENDBRANCH  10  26
BRANCH   3  30
HETATM   30  C9  UNK     1      33.456 -11.622  32.276  1.00  0.00    -0.053 A 
HETATM   31  C13 UNK     1      32.820 -11.847  31.056  1.00  0.00     0.010 A 
HETATM   32  C19 UNK     1      33.367 -12.749  30.144  1.00  0.00     0.043 A 
HETATM   33  C22 UNK     1      34.549 -13.424  30.452  1.00  0.00     0.116 A 
HETATM   34  C20 UNK     1      35.183 -13.197  31.674  1.00  0.00     0.043 A 
HETATM   35  F1  UNK     1      35.074 -14.290  29.576  1.00  0.00    -0.206 F 
HETATM   36  C14 UNK     1      34.635 -12.294  32.587  1.00  0.00     0.010 A 
ENDBRANCH   3  30
TORSDOF 4
ENDMDL
