MODEL 1
REMARK VINA RESULT:      -6.7      0.000      0.000
REMARK  0 active torsions:
REMARK  status: ('A' for Active; 'I' for Inactive)
ROOT
HETATM    1  O1  UNK     1      17.535   8.022  34.792  1.00  0.00    -0.321 OA
HETATM    2  O2  UNK     1      15.856   8.444  31.096  1.00  0.00    -0.287 OA
HETATM    3  C1  UNK     1      17.618   7.579  32.405  1.00  0.00     0.049 A 
HETATM    4  C2  UNK     1      18.143   7.469  33.692  1.00  0.00     0.089 A 
HETATM    5  C3  UNK     1      18.280   6.996  31.322  1.00  0.00     0.025 A 
HETATM    6  C4  UNK     1      19.471   6.302  31.536  1.00  0.00    -0.061 A 
HETATM    7  C5  UNK     1      16.358   8.319  32.206  1.00  0.00     0.192 A 
HETATM    8  C6  UNK     1      15.736   8.899  33.423  1.00  0.00     0.011 A 
HETATM    9  C7  UNK     1      19.334   6.774  33.904  1.00  0.00     0.039 A 
HETATM   10  C8  UNK     1      19.997   6.191  32.824  1.00  0.00     0.009 A 
HETATM   11  C9  UNK     1      16.363   8.708  34.591  1.00  0.00     0.153 A 
HETATM   12  C10 UNK     1      20.186   5.676  30.385  1.00  0.00     0.048 C 
HETATM   13  C11 UNK     1      14.459   9.658  33.279  1.00  0.00     0.054 C 
ENDROOT
TORSDOF 0
ENDMDL
MODEL 2
REMARK VINA RESULT:      -6.6      6.142      8.810
REMARK  0 active torsions:
REMARK  status: ('A' for Active; 'I' for Inactive)
ROOT
HETATM    1  O1  UNK     1      19.207   0.245  28.188  1.00  0.00    -0.321 OA
HETATM    2  O2  UNK     1      20.199  -0.647  32.045  1.00  0.00    -0.287 OA
HETATM    3  C1  UNK     1      19.257   0.895  30.528  1.00  0.00     0.049 A 
HETATM    4  C2  UNK     1      18.942   1.143  29.192  1.00  0.00     0.089 A 
HETATM    5  C3  UNK     1      18.965   1.846  31.509  1.00  0.00     0.025 A 
HETATM    6  C4  UNK     1      18.354   3.046  31.144  1.00  0.00    -0.061 A 
HETATM    7  C5  UNK     1      19.903  -0.382  30.887  1.00  0.00     0.192 A 
HETATM    8  C6  UNK     1      20.169  -1.321  29.769  1.00  0.00     0.011 A 
HETATM    9  C7  UNK     1      18.331   2.344  28.830  1.00  0.00     0.039 A 
HETATM   10  C8  UNK     1      18.038   3.295  29.807  1.00  0.00     0.009 A 
HETATM   11  C9  UNK     1      19.808  -0.939  28.538  1.00  0.00     0.153 A 
HETATM   12  C10 UNK     1      18.039   4.068  32.185  1.00  0.00     0.048 C 
HETATM   13  C11 UNK     1      20.820  -2.629  30.076  1.00  0.00     0.054 C 
ENDROOT
TORSDOF 0
ENDMDL
MODEL 3
REMARK VINA RESULT:      -6.6      6.277      8.195
REMARK  0 active torsions:
REMARK  status: ('A' for Active; 'I' for Inactive)
ROOT
HETATM    1  O1  UNK     1      19.156   1.520  28.791  1.00  0.00    -0.321 OA
HETATM    2  O2  UNK     1      18.813   1.342  32.854  1.00  0.00    -0.287 OA
HETATM    3  C1  UNK     1      19.466   0.275  30.854  1.00  0.00     0.049 A 
HETATM    4  C2  UNK     1      19.557   0.395  29.467  1.00  0.00     0.089 A 
HETATM    5  C3  UNK     1      19.890  -0.895  31.490  1.00  0.00     0.025 A 
HETATM    6  C4  UNK     1      20.407  -1.943  30.728  1.00  0.00    -0.061 A 
HETATM    7  C5  UNK     1      18.914   1.398  31.636  1.00  0.00     0.192 A 
HETATM    8  C6  UNK     1      18.494   2.593  30.863  1.00  0.00     0.011 A 
HETATM    9  C7  UNK     1      20.075  -0.655  28.709  1.00  0.00     0.039 A 
HETATM   10  C8  UNK     1      20.499  -1.824  29.341  1.00  0.00     0.009 A 
HETATM   11  C9  UNK     1      18.645   2.557  29.532  1.00  0.00     0.153 A 
HETATM   12  C10 UNK     1      20.862  -3.197  31.399  1.00  0.00     0.048 C 
HETATM   13  C11 UNK     1      17.930   3.760  31.603  1.00  0.00     0.054 C 
ENDROOT
TORSDOF 0
ENDMDL
MODEL 4
REMARK VINA RESULT:      -6.3     23.949     25.783
REMARK  0 active torsions:
REMARK  status: ('A' for Active; 'I' for Inactive)
ROOT
HETATM    1  O1  UNK     1      13.303   6.701   6.672  1.00  0.00    -0.321 OA
HETATM    2  O2  UNK     1      12.371   5.549  10.474  1.00  0.00    -0.287 OA
HETATM    3  C1  UNK     1      11.613   6.088   8.306  1.00  0.00     0.049 A 
HETATM    4  C2  UNK     1      11.994   6.483   7.024  1.00  0.00     0.089 A 
HETATM    5  C3  UNK     1      10.265   5.880   8.609  1.00  0.00     0.025 A 
HETATM    6  C4  UNK     1       9.301   6.071   7.618  1.00  0.00    -0.061 A 
HETATM    7  C5  UNK     1      12.653   5.895   9.335  1.00  0.00     0.192 A 
HETATM    8  C6  UNK     1      14.053   6.142   8.909  1.00  0.00     0.011 A 
HETATM    9  C7  UNK     1      11.027   6.671   6.035  1.00  0.00     0.039 A 
HETATM   10  C8  UNK     1       9.681   6.465   6.335  1.00  0.00     0.009 A 
HETATM   11  C9  UNK     1      14.259   6.517   7.639  1.00  0.00     0.153 A 
HETATM   12  C10 UNK     1       7.858   5.852   7.933  1.00  0.00     0.048 C 
HETATM   13  C11 UNK     1      15.146   5.961   9.909  1.00  0.00     0.054 C 
ENDROOT
TORSDOF 0
ENDMDL
MODEL 5
REMARK VINA RESULT:      -6.3      7.934      8.877
REMARK  0 active torsions:
REMARK  status: ('A' for Active; 'I' for Inactive)
ROOT
HETATM    1  O1  UNK     1      18.897  -1.505  36.622  1.00  0.00    -0.321 OA
HETATM    2  O2  UNK     1      16.635   0.740  34.072  1.00  0.00    -0.287 OA
HETATM    3  C1  UNK     1      18.394  -0.808  34.350  1.00  0.00     0.049 A 
HETATM    4  C2  UNK     1      19.132  -1.551  35.271  1.00  0.00     0.089 A 
HETATM    5  C3  UNK     1      18.678  -0.894  32.985  1.00  0.00     0.025 A 
HETATM    6  C4  UNK     1      19.707  -1.729  32.548  1.00  0.00    -0.061 A 
HETATM    7  C5  UNK     1      17.312   0.068  34.839  1.00  0.00     0.192 A 
HETATM    8  C6  UNK     1      17.093   0.086  36.307  1.00  0.00     0.011 A 
HETATM    9  C7  UNK     1      20.160  -2.386  34.830  1.00  0.00     0.039 A 
HETATM   10  C8  UNK     1      20.446  -2.473  33.468  1.00  0.00     0.009 A 
HETATM   11  C9  UNK     1      17.887  -0.685  37.062  1.00  0.00     0.153 A 
HETATM   12  C10 UNK     1      20.018  -1.827  31.091  1.00  0.00     0.048 C 
HETATM   13  C11 UNK     1      16.011   0.954  36.857  1.00  0.00     0.054 C 
ENDROOT
TORSDOF 0
ENDMDL
MODEL 6
REMARK VINA RESULT:      -6.2      7.303      9.232
REMARK  0 active torsions:
REMARK  status: ('A' for Active; 'I' for Inactive)
ROOT
HETATM    1  O1  UNK     1      20.025  -0.964  28.859  1.00  0.00    -0.321 OA
HETATM    2  O2  UNK     1      18.458   1.483  31.725  1.00  0.00    -0.287 OA
HETATM    3  C1  UNK     1      19.568  -0.533  31.206  1.00  0.00     0.049 A 
HETATM    4  C2  UNK     1      20.085  -1.326  30.181  1.00  0.00     0.089 A 
HETATM    5  C3  UNK     1      19.658  -0.952  32.535  1.00  0.00     0.025 A 
HETATM    6  C4  UNK     1      20.269  -2.171  32.832  1.00  0.00    -0.061 A 
HETATM    7  C5  UNK     1      18.927   0.751  30.863  1.00  0.00     0.192 A 
HETATM    8  C6  UNK     1      18.885   1.101  29.422  1.00  0.00     0.011 A 
HETATM    9  C7  UNK     1      20.696  -2.544  30.482  1.00  0.00     0.039 A 
HETATM   10  C8  UNK     1      20.787  -2.965  31.808  1.00  0.00     0.009 A 
HETATM   11  C9  UNK     1      19.425   0.234  28.556  1.00  0.00     0.153 A 
HETATM   12  C10 UNK     1      20.368  -2.627  34.250  1.00  0.00     0.048 C 
HETATM   13  C11 UNK     1      18.248   2.390  29.019  1.00  0.00     0.054 C 
ENDROOT
TORSDOF 0
ENDMDL
MODEL 7
REMARK VINA RESULT:      -6.2      8.549     10.158
REMARK  0 active torsions:
REMARK  status: ('A' for Active; 'I' for Inactive)
ROOT
HETATM    1  O1  UNK     1      20.794  -2.883  33.893  1.00  0.00    -0.321 OA
HETATM    2  O2  UNK     1      18.425  -0.221  31.904  1.00  0.00    -0.287 OA
HETATM    3  C1  UNK     1      19.005  -1.241  33.951  1.00  0.00     0.049 A 
HETATM    4  C2  UNK     1      19.843  -2.165  34.574  1.00  0.00     0.089 A 
HETATM    5  C3  UNK     1      18.054  -0.537  34.695  1.00  0.00     0.025 A 
HETATM    6  C4  UNK     1      17.949  -0.765  36.067  1.00  0.00    -0.061 A 
HETATM    7  C5  UNK     1      19.136  -1.020  32.498  1.00  0.00     0.192 A 
HETATM    8  C6  UNK     1      20.177  -1.818  31.803  1.00  0.00     0.011 A 
HETATM    9  C7  UNK     1      19.736  -2.390  35.947  1.00  0.00     0.039 A 
HETATM   10  C8  UNK     1      18.788  -1.689  36.692  1.00  0.00     0.009 A 
HETATM   11  C9  UNK     1      20.905  -2.667  32.541  1.00  0.00     0.153 A 
HETATM   12  C10 UNK     1      16.936  -0.019  36.870  1.00  0.00     0.048 C 
HETATM   13  C11 UNK     1      20.355  -1.634  30.333  1.00  0.00     0.054 C 
ENDROOT
TORSDOF 0
ENDMDL
MODEL 8
REMARK VINA RESULT:      -6.1      0.907      2.452
REMARK  0 active torsions:
REMARK  status: ('A' for Active; 'I' for Inactive)
ROOT
HETATM    1  O1  UNK     1      16.169   7.447  31.138  1.00  0.00    -0.321 OA
HETATM    2  O2  UNK     1      17.387   8.380  34.919  1.00  0.00    -0.287 OA
HETATM    3  C1  UNK     1      17.918   7.436  32.824  1.00  0.00     0.049 A 
HETATM    4  C2  UNK     1      17.444   7.142  31.545  1.00  0.00     0.089 A 
HETATM    5  C3  UNK     1      19.225   7.102  33.184  1.00  0.00     0.025 A 
HETATM    6  C4  UNK     1      20.055   6.472  32.256  1.00  0.00    -0.061 A 
HETATM    7  C5  UNK     1      17.019   8.101  33.786  1.00  0.00     0.192 A 
HETATM    8  C6  UNK     1      15.651   8.412  33.302  1.00  0.00     0.011 A 
HETATM    9  C7  UNK     1      18.276   6.513  30.619  1.00  0.00     0.039 A 
HETATM   10  C8  UNK     1      19.582   6.178  30.977  1.00  0.00     0.009 A 
HETATM   11  C9  UNK     1      15.344   8.067  32.044  1.00  0.00     0.153 A 
HETATM   12  C10 UNK     1      21.454   6.111  32.633  1.00  0.00     0.048 C 
HETATM   13  C11 UNK     1      14.700   9.086  34.234  1.00  0.00     0.054 C 
ENDROOT
TORSDOF 0
ENDMDL
MODEL 9
REMARK VINA RESULT:      -6.1      1.699      4.306
REMARK  0 active torsions:
REMARK  status: ('A' for Active; 'I' for Inactive)
ROOT
HETATM    1  O1  UNK     1      19.185   6.744  34.249  1.00  0.00    -0.321 OA
HETATM    2  O2  UNK     1      18.467   6.244  30.263  1.00  0.00    -0.287 OA
HETATM    3  C1  UNK     1      17.605   6.730  32.405  1.00  0.00     0.049 A 
HETATM    4  C2  UNK     1      17.913   6.888  33.756  1.00  0.00     0.089 A 
HETATM    5  C3  UNK     1      16.291   6.889  31.958  1.00  0.00     0.025 A 
HETATM    6  C4  UNK     1      15.287   7.207  32.874  1.00  0.00    -0.061 A 
HETATM    7  C5  UNK     1      18.685   6.393  31.458  1.00  0.00     0.192 A 
HETATM    8  C6  UNK     1      20.044   6.248  32.037  1.00  0.00     0.011 A 
HETATM    9  C7  UNK     1      16.907   7.207  34.669  1.00  0.00     0.039 A 
HETATM   10  C8  UNK     1      15.594   7.365  34.226  1.00  0.00     0.009 A 
HETATM   11  C9  UNK     1      20.180   6.431  33.356  1.00  0.00     0.153 A 
HETATM   12  C10 UNK     1      13.880   7.377  32.406  1.00  0.00     0.048 C 
HETATM   13  C11 UNK     1      21.176   5.908  31.124  1.00  0.00     0.054 C 
ENDROOT
TORSDOF 0
ENDMDL
MODEL 10
REMARK VINA RESULT:      -6.1      6.996      8.340
REMARK  0 active torsions:
REMARK  status: ('A' for Active; 'I' for Inactive)
ROOT
HETATM    1  O1  UNK     1      19.444  -1.681  34.284  1.00  0.00    -0.321 OA
HETATM    2  O2  UNK     1      17.871   1.841  32.951  1.00  0.00    -0.287 OA
HETATM    3  C1  UNK     1      19.099  -0.112  32.461  1.00  0.00     0.049 A 
HETATM    4  C2  UNK     1      19.613  -1.303  32.975  1.00  0.00     0.089 A 
HETATM    5  C3  UNK     1      19.301   0.222  31.120  1.00  0.00     0.025 A 
HETATM    6  C4  UNK     1      20.022  -0.644  30.296  1.00  0.00    -0.061 A 
HETATM    7  C5  UNK     1      18.342   0.786  33.353  1.00  0.00     0.192 A 
HETATM    8  C6  UNK     1      18.185   0.336  34.759  1.00  0.00     0.011 A 
HETATM    9  C7  UNK     1      20.332  -2.167  32.149  1.00  0.00     0.039 A 
HETATM   10  C8  UNK     1      20.536  -1.836  30.809  1.00  0.00     0.009 A 
HETATM   11  C9  UNK     1      18.737  -0.835  35.102  1.00  0.00     0.153 A 
HETATM   12  C10 UNK     1      20.243  -0.295  28.862  1.00  0.00     0.048 C 
HETATM   13  C11 UNK     1      17.426   1.206  35.706  1.00  0.00     0.054 C 
ENDROOT
TORSDOF 0
ENDMDL
