MODEL 1
REMARK VINA RESULT:      -9.8      0.000      0.000
REMARK  5 active torsions:
REMARK  status: ('A' for Active; 'I' for Inactive)
REMARK    1  A    between atoms: C10_15  and  O1_1 
REMARK    2  A    between atoms: C8_13  and  O1_1 
REMARK    3  A    between atoms: C14_19  and  O3_3 
REMARK    4  A    between atoms: C6_11  and  O3_3 
REMARK    5  A    between atoms: C14_19  and  C2_7 
ROOT
HETATM    1  O2  UNK     1      20.387  -3.118  34.029  1.00  0.00    -0.319 OA
HETATM    2  O4  UNK     1      18.642  -1.577  37.383  1.00  0.00    -0.284 OA
HETATM    3  C1  UNK     1      19.023  -1.387  35.058  1.00  0.00     0.051 A 
HETATM    4  C3  UNK     1      19.645  -1.965  33.949  1.00  0.00     0.092 A 
HETATM    5  C6  UNK     1      18.783  -0.198  32.548  1.00  0.00     0.082 A 
HETATM    6  C7  UNK     1      19.164  -2.034  36.376  1.00  0.00     0.220 A 
HETATM    7  C8  UNK     1      19.973  -3.273  36.406  1.00  0.00     0.149 A 
HETATM    8  C9  UNK     1      19.525  -1.371  32.693  1.00  0.00     0.075 A 
HETATM    9  C11 UNK     1      18.280  -0.213  34.917  1.00  0.00     0.021 A 
HETATM   10  C13 UNK     1      18.162   0.380  33.658  1.00  0.00     0.038 A 
HETATM   11  C19 UNK     1      20.509  -3.710  35.263  1.00  0.00     0.184 A 
ENDROOT
BRANCH   7  12
HETATM   12  O1  UNK     1      20.149  -3.933  37.590  1.00  0.00    -0.305 OA
BRANCH  12  13
HETATM   13  C10 UNK     1      19.818  -5.252  37.643  1.00  0.00     0.077 A 
HETATM   14  C12 UNK     1      20.498  -6.107  38.511  1.00  0.00     0.049 A 
HETATM   15  C4  UNK     1      20.170  -7.471  38.578  1.00  0.00    -0.023 A 
HETATM   16  C20 UNK     1      20.843  -8.345  39.447  1.00  0.00     0.012 A 
HETATM   17  C5  UNK     1      19.138  -7.975  37.751  1.00  0.00    -0.026 A 
HETATM   18  C22 UNK     1      20.504  -9.697  39.499  1.00  0.00     0.001 A 
HETATM   19  C23 UNK     1      19.490 -10.193  38.686  1.00  0.00     0.001 A 
HETATM   20  C21 UNK     1      18.809  -9.339  37.817  1.00  0.00     0.012 A 
HETATM   21  C15 UNK     1      18.465  -7.100  36.882  1.00  0.00     0.015 A 
HETATM   22  C18 UNK     1      18.804  -5.748  36.829  1.00  0.00     0.038 A 
ENDBRANCH  12  13
ENDBRANCH   7  12
BRANCH   5  23
HETATM   23  O3  UNK     1      18.665   0.386  31.325  1.00  0.00    -0.279 OA
BRANCH  23  24
HETATM   24  C14 UNK     1      19.855   0.405  30.575  1.00  0.00     0.267 C 
HETATM   25  O5  UNK     1      20.977   0.227  31.032  1.00  0.00    -0.264 OA
BRANCH  24  26
HETATM   26  C2  UNK     1      19.542   0.668  29.112  1.00  0.00     0.078 C 
HETATM   27  C16 UNK     1      19.539  -0.636  28.318  1.00  0.00     0.020 C 
HETATM   28  C17 UNK     1      18.199   1.381  28.995  1.00  0.00     0.020 C 
ENDBRANCH  24  26
ENDBRANCH  23  24
ENDBRANCH   5  23
TORSDOF 5
ENDMDL
MODEL 2
REMARK VINA RESULT:      -9.7      6.857     12.711
REMARK  5 active torsions:
REMARK  status: ('A' for Active; 'I' for Inactive)
REMARK    1  A    between atoms: C10_15  and  O1_1 
REMARK    2  A    between atoms: C8_13  and  O1_1 
REMARK    3  A    between atoms: C14_19  and  O3_3 
REMARK    4  A    between atoms: C6_11  and  O3_3 
REMARK    5  A    between atoms: C14_19  and  C2_7 
ROOT
HETATM    1  O2  UNK     1      18.164   4.332  33.546  1.00  0.00    -0.319 OA
HETATM    2  O4  UNK     1      18.958   6.771  30.369  1.00  0.00    -0.284 OA
HETATM    3  C1  UNK     1      18.680   4.568  31.180  1.00  0.00     0.051 A 
HETATM    4  C3  UNK     1      18.403   3.790  32.306  1.00  0.00     0.092 A 
HETATM    5  C6  UNK     1      18.591   1.791  30.967  1.00  0.00     0.082 A 
HETATM    6  C7  UNK     1      18.722   6.036  31.318  1.00  0.00     0.220 A 
HETATM    7  C8  UNK     1      18.457   6.568  32.673  1.00  0.00     0.149 A 
HETATM    8  C9  UNK     1      18.358   2.400  32.200  1.00  0.00     0.075 A 
HETATM    9  C11 UNK     1      18.914   3.962  29.945  1.00  0.00     0.021 A 
HETATM   10  C13 UNK     1      18.869   2.570  29.841  1.00  0.00     0.038 A 
HETATM   11  C19 UNK     1      18.205   5.701  33.658  1.00  0.00     0.184 A 
ENDROOT
BRANCH   7  12
HETATM   12  O1  UNK     1      18.476   7.918  32.882  1.00  0.00    -0.305 OA
BRANCH  12  13
HETATM   13  C10 UNK     1      17.285   8.564  33.004  1.00  0.00     0.077 A 
HETATM   14  C12 UNK     1      17.136   9.582  33.947  1.00  0.00     0.049 A 
HETATM   15  C4  UNK     1      15.913  10.258  34.086  1.00  0.00    -0.023 A 
HETATM   16  C20 UNK     1      15.747  11.285  35.029  1.00  0.00     0.012 A 
HETATM   17  C5  UNK     1      14.825   9.896  33.258  1.00  0.00    -0.026 A 
HETATM   18  C22 UNK     1      14.524  11.945  35.154  1.00  0.00     0.001 A 
HETATM   19  C23 UNK     1      13.453  11.589  34.339  1.00  0.00     0.001 A 
HETATM   20  C21 UNK     1      13.601  10.571  33.396  1.00  0.00     0.012 A 
HETATM   21  C15 UNK     1      14.991   8.868  32.314  1.00  0.00     0.015 A 
HETATM   22  C18 UNK     1      16.213   8.207  32.190  1.00  0.00     0.038 A 
ENDBRANCH  12  13
ENDBRANCH   7  12
BRANCH   5  23
HETATM   23  O3  UNK     1      18.550   0.435  30.859  1.00  0.00    -0.279 OA
BRANCH  23  24
HETATM   24  C14 UNK     1      19.727  -0.216  31.275  1.00  0.00     0.267 C 
HETATM   25  O5  UNK     1      20.865   0.168  31.035  1.00  0.00    -0.264 OA
BRANCH  24  26
HETATM   26  C2  UNK     1      19.376  -1.458  32.076  1.00  0.00     0.078 C 
HETATM   27  C16 UNK     1      20.625  -2.290  32.356  1.00  0.00     0.020 C 
HETATM   28  C17 UNK     1      18.687  -1.055  33.375  1.00  0.00     0.020 C 
ENDBRANCH  24  26
ENDBRANCH  23  24
ENDBRANCH   5  23
TORSDOF 5
ENDMDL
MODEL 3
REMARK VINA RESULT:      -9.6      1.708      2.221
REMARK  5 active torsions:
REMARK  status: ('A' for Active; 'I' for Inactive)
REMARK    1  A    between atoms: C10_15  and  O1_1 
REMARK    2  A    between atoms: C8_13  and  O1_1 
REMARK    3  A    between atoms: C14_19  and  O3_3 
REMARK    4  A    between atoms: C6_11  and  O3_3 
REMARK    5  A    between atoms: C14_19  and  C2_7 
ROOT
HETATM    1  O2  UNK     1      19.995  -1.894  34.459  1.00  0.00    -0.319 OA
HETATM    2  O4  UNK     1      18.752  -1.860  38.348  1.00  0.00    -0.284 OA
HETATM    3  C1  UNK     1      18.602  -0.905  36.191  1.00  0.00     0.051 A 
HETATM    4  C3  UNK     1      19.067  -0.970  34.875  1.00  0.00     0.092 A 
HETATM    5  C6  UNK     1      17.646   0.889  34.284  1.00  0.00     0.082 A 
HETATM    6  C7  UNK     1      19.122  -1.865  37.182  1.00  0.00     0.220 A 
HETATM    7  C8  UNK     1      20.117  -2.839  36.681  1.00  0.00     0.149 A 
HETATM    8  C9  UNK     1      18.590  -0.073  33.920  1.00  0.00     0.075 A 
HETATM    9  C11 UNK     1      17.658   0.056  36.557  1.00  0.00     0.021 A 
HETATM   10  C13 UNK     1      17.182   0.953  35.600  1.00  0.00     0.038 A 
HETATM   11  C19 UNK     1      20.469  -2.783  35.393  1.00  0.00     0.184 A 
ENDROOT
BRANCH   7  12
HETATM   12  O1  UNK     1      20.646  -3.763  37.538  1.00  0.00    -0.305 OA
BRANCH  12  13
HETATM   13  C10 UNK     1      20.210  -5.049  37.441  1.00  0.00     0.077 A 
HETATM   14  C12 UNK     1      20.470  -5.953  38.472  1.00  0.00     0.049 A 
HETATM   15  C4  UNK     1      20.029  -7.284  38.387  1.00  0.00    -0.023 A 
HETATM   16  C20 UNK     1      20.282  -8.206  39.416  1.00  0.00     0.012 A 
HETATM   17  C5  UNK     1      19.314  -7.704  37.241  1.00  0.00    -0.026 A 
HETATM   18  C22 UNK     1      19.837  -9.524  39.314  1.00  0.00     0.001 A 
HETATM   19  C23 UNK     1      19.133  -9.938  38.187  1.00  0.00     0.001 A 
HETATM   20  C21 UNK     1      18.872  -9.034  37.156  1.00  0.00     0.012 A 
HETATM   21  C15 UNK     1      19.062  -6.781  36.212  1.00  0.00     0.015 A 
HETATM   22  C18 UNK     1      19.508  -5.463  36.313  1.00  0.00     0.038 A 
ENDBRANCH  12  13
ENDBRANCH   7  12
BRANCH   5  23
HETATM   23  O3  UNK     1      17.179   1.768  33.356  1.00  0.00    -0.279 OA
BRANCH  23  24
HETATM   24  C14 UNK     1      18.007   2.886  33.148  1.00  0.00     0.267 C 
HETATM   25  O5  UNK     1      18.604   3.493  34.029  1.00  0.00    -0.264 OA
BRANCH  24  26
HETATM   26  C2  UNK     1      18.060   3.223  31.668  1.00  0.00     0.078 C 
HETATM   27  C16 UNK     1      18.728   4.578  31.446  1.00  0.00     0.020 C 
HETATM   28  C17 UNK     1      18.798   2.122  30.916  1.00  0.00     0.020 C 
ENDBRANCH  24  26
ENDBRANCH  23  24
ENDBRANCH   5  23
TORSDOF 5
ENDMDL
MODEL 4
REMARK VINA RESULT:      -9.5      2.768     10.082
REMARK  5 active torsions:
REMARK  status: ('A' for Active; 'I' for Inactive)
REMARK    1  A    between atoms: C10_15  and  O1_1 
REMARK    2  A    between atoms: C8_13  and  O1_1 
REMARK    3  A    between atoms: C14_19  and  O3_3 
REMARK    4  A    between atoms: C6_11  and  O3_3 
REMARK    5  A    between atoms: C14_19  and  C2_7 
ROOT
HETATM    1  O2  UNK     1      19.585  -1.364  33.630  1.00  0.00    -0.319 OA
HETATM    2  O4  UNK     1      17.078   0.430  36.307  1.00  0.00    -0.284 OA
HETATM    3  C1  UNK     1      18.695  -1.243  35.891  1.00  0.00     0.051 A 
HETATM    4  C3  UNK     1      19.531  -1.813  34.927  1.00  0.00     0.092 A 
HETATM    5  C6  UNK     1      20.348  -3.382  36.569  1.00  0.00     0.082 A 
HETATM    6  C7  UNK     1      17.829  -0.112  35.508  1.00  0.00     0.220 A 
HETATM    7  C8  UNK     1      17.927   0.332  34.100  1.00  0.00     0.149 A 
HETATM    8  C9  UNK     1      20.359  -2.883  35.266  1.00  0.00     0.075 A 
HETATM    9  C11 UNK     1      18.683  -1.740  37.195  1.00  0.00     0.021 A 
HETATM   10  C13 UNK     1      19.512  -2.812  37.531  1.00  0.00     0.038 A 
HETATM   11  C19 UNK     1      18.773  -0.309  33.289  1.00  0.00     0.184 A 
ENDROOT
BRANCH   7  12
HETATM   12  O1  UNK     1      17.158   1.375  33.668  1.00  0.00    -0.305 OA
BRANCH  12  13
HETATM   13  C10 UNK     1      17.787   2.528  33.309  1.00  0.00     0.077 A 
HETATM   14  C12 UNK     1      18.029   2.799  31.961  1.00  0.00     0.049 A 
HETATM   15  C4  UNK     1      18.678   3.983  31.574  1.00  0.00    -0.023 A 
HETATM   16  C20 UNK     1      18.929   4.272  30.223  1.00  0.00     0.012 A 
HETATM   17  C5  UNK     1      19.086   4.905  32.566  1.00  0.00    -0.026 A 
HETATM   18  C22 UNK     1      19.575   5.453  29.856  1.00  0.00     0.001 A 
HETATM   19  C23 UNK     1      19.976   6.360  30.832  1.00  0.00     0.001 A 
HETATM   20  C21 UNK     1      19.734   6.090  32.180  1.00  0.00     0.012 A 
HETATM   21  C15 UNK     1      18.834   4.616  33.918  1.00  0.00     0.015 A 
HETATM   22  C18 UNK     1      18.189   3.435  34.285  1.00  0.00     0.038 A 
ENDBRANCH  12  13
ENDBRANCH   7  12
BRANCH   5  23
HETATM   23  O3  UNK     1      21.153  -4.427  36.903  1.00  0.00    -0.279 OA
BRANCH  23  24
HETATM   24  C14 UNK     1      20.484  -5.661  37.015  1.00  0.00     0.267 C 
HETATM   25  O5  UNK     1      19.552  -6.021  36.307  1.00  0.00    -0.264 OA
BRANCH  24  26
HETATM   26  C2  UNK     1      21.098  -6.483  38.134  1.00  0.00     0.078 C 
HETATM   27  C16 UNK     1      22.399  -5.848  38.620  1.00  0.00     0.020 C 
HETATM   28  C17 UNK     1      20.099  -6.622  39.277  1.00  0.00     0.020 C 
ENDBRANCH  24  26
ENDBRANCH  23  24
ENDBRANCH   5  23
TORSDOF 5
ENDMDL
MODEL 5
REMARK VINA RESULT:      -9.4     26.037     28.500
REMARK  5 active torsions:
REMARK  status: ('A' for Active; 'I' for Inactive)
REMARK    1  A    between atoms: C10_15  and  O1_1 
REMARK    2  A    between atoms: C8_13  and  O1_1 
REMARK    3  A    between atoms: C14_19  and  O3_3 
REMARK    4  A    between atoms: C6_11  and  O3_3 
REMARK    5  A    between atoms: C14_19  and  C2_7 
ROOT
HETATM    1  O2  UNK     1      10.021   4.404  10.032  1.00  0.00    -0.319 OA
HETATM    2  O4  UNK     1       7.454   6.620   7.757  1.00  0.00    -0.284 OA
HETATM    3  C1  UNK     1       9.690   6.036   8.258  1.00  0.00     0.051 A 
HETATM    4  C3  UNK     1      10.513   5.251   9.069  1.00  0.00     0.092 A 
HETATM    5  C6  UNK     1      12.458   6.149   7.956  1.00  0.00     0.082 A 
HETATM    6  C7  UNK     1       8.227   5.959   8.436  1.00  0.00     0.220 A 
HETATM    7  C8  UNK     1       7.750   5.031   9.486  1.00  0.00     0.149 A 
HETATM    8  C9  UNK     1      11.899   5.307   8.918  1.00  0.00     0.075 A 
HETATM    9  C11 UNK     1      10.246   6.879   7.295  1.00  0.00     0.021 A 
HETATM   10  C13 UNK     1      11.633   6.934   7.146  1.00  0.00     0.038 A 
HETATM   11  C19 UNK     1       8.657   4.343  10.186  1.00  0.00     0.184 A 
ENDROOT
BRANCH   7  12
HETATM   12  O1  UNK     1       6.409   4.902   9.712  1.00  0.00    -0.305 OA
BRANCH  12  13
HETATM   13  C10 UNK     1       6.009   4.250  10.837  1.00  0.00     0.077 A 
HETATM   14  C12 UNK     1       6.069   4.893  12.074  1.00  0.00     0.049 A 
HETATM   15  C4  UNK     1       5.661   4.233  13.246  1.00  0.00    -0.023 A 
HETATM   16  C20 UNK     1       5.714   4.866  14.498  1.00  0.00     0.012 A 
HETATM   17  C5  UNK     1       5.185   2.904  13.161  1.00  0.00    -0.026 A 
HETATM   18  C22 UNK     1       5.305   4.196  15.651  1.00  0.00     0.001 A 
HETATM   19  C23 UNK     1       4.837   2.888  15.568  1.00  0.00     0.001 A 
HETATM   20  C21 UNK     1       4.776   2.244  14.331  1.00  0.00     0.012 A 
HETATM   21  C15 UNK     1       5.132   2.272  11.907  1.00  0.00     0.015 A 
HETATM   22  C18 UNK     1       5.542   2.941  10.754  1.00  0.00     0.038 A 
ENDBRANCH  12  13
ENDBRANCH   7  12
BRANCH   5  23
HETATM   23  O3  UNK     1      13.809   6.208   7.806  1.00  0.00    -0.279 OA
BRANCH  23  24
HETATM   24  C14 UNK     1      14.484   6.826   8.876  1.00  0.00     0.267 C 
HETATM   25  O5  UNK     1      14.136   7.867   9.420  1.00  0.00    -0.264 OA
BRANCH  24  26
HETATM   26  C2  UNK     1      15.701   6.004   9.264  1.00  0.00     0.078 C 
HETATM   27  C16 UNK     1      16.627   6.807  10.175  1.00  0.00     0.020 C 
HETATM   28  C17 UNK     1      15.255   4.713   9.942  1.00  0.00     0.020 C 
ENDBRANCH  24  26
ENDBRANCH  23  24
ENDBRANCH   5  23
TORSDOF 5
ENDMDL
MODEL 6
REMARK VINA RESULT:      -9.2     26.762     29.230
REMARK  5 active torsions:
REMARK  status: ('A' for Active; 'I' for Inactive)
REMARK    1  A    between atoms: C10_15  and  O1_1 
REMARK    2  A    between atoms: C8_13  and  O1_1 
REMARK    3  A    between atoms: C14_19  and  O3_3 
REMARK    4  A    between atoms: C6_11  and  O3_3 
REMARK    5  A    between atoms: C14_19  and  C2_7 
ROOT
HETATM    1  O2  UNK     1      10.310   8.384   9.696  1.00  0.00    -0.319 OA
HETATM    2  O4  UNK     1       8.469   5.420   7.576  1.00  0.00    -0.284 OA
HETATM    3  C1  UNK     1      10.495   6.402   8.298  1.00  0.00     0.051 A 
HETATM    4  C3  UNK     1      11.063   7.440   9.040  1.00  0.00     0.092 A 
HETATM    5  C6  UNK     1      13.266   6.620   8.494  1.00  0.00     0.082 A 
HETATM    6  C7  UNK     1       9.025   6.306   8.209  1.00  0.00     0.220 A 
HETATM    7  C8  UNK     1       8.263   7.347   8.934  1.00  0.00     0.149 A 
HETATM    8  C9  UNK     1      12.450   7.550   9.139  1.00  0.00     0.075 A 
HETATM    9  C11 UNK     1      11.309   5.470   7.652  1.00  0.00     0.021 A 
HETATM   10  C13 UNK     1      12.697   5.583   7.752  1.00  0.00     0.038 A 
HETATM   11  C19 UNK     1       8.943   8.281   9.605  1.00  0.00     0.184 A 
ENDROOT
BRANCH   7  12
HETATM   12  O1  UNK     1       6.897   7.326   8.902  1.00  0.00    -0.305 OA
BRANCH  12  13
HETATM   13  C10 UNK     1       6.234   7.046  10.057  1.00  0.00     0.077 A 
HETATM   14  C12 UNK     1       6.258   5.752  10.578  1.00  0.00     0.049 A 
HETATM   15  C4  UNK     1       5.577   5.445  11.768  1.00  0.00    -0.023 A 
HETATM   16  C20 UNK     1       5.592   4.149  12.307  1.00  0.00     0.012 A 
HETATM   17  C5  UNK     1       4.862   6.466  12.438  1.00  0.00    -0.026 A 
HETATM   18  C22 UNK     1       4.909   3.863  13.490  1.00  0.00     0.001 A 
HETATM   19  C23 UNK     1       4.205   4.866  14.149  1.00  0.00     0.001 A 
HETATM   20  C21 UNK     1       4.181   6.161  13.628  1.00  0.00     0.012 A 
HETATM   21  C15 UNK     1       4.848   7.763  11.899  1.00  0.00     0.015 A 
HETATM   22  C18 UNK     1       5.529   8.049  10.716  1.00  0.00     0.038 A 
ENDBRANCH  12  13
ENDBRANCH   7  12
BRANCH   5  23
HETATM   23  O3  UNK     1      14.620   6.725   8.586  1.00  0.00    -0.279 OA
BRANCH  23  24
HETATM   24  C14 UNK     1      15.130   6.516   9.881  1.00  0.00     0.267 C 
HETATM   25  O5  UNK     1      14.910   5.530  10.573  1.00  0.00    -0.264 OA
BRANCH  24  26
HETATM   26  C2  UNK     1      16.004   7.690  10.288  1.00  0.00     0.078 C 
HETATM   27  C16 UNK     1      15.654   8.160  11.698  1.00  0.00     0.020 C 
HETATM   28  C17 UNK     1      17.473   7.294  10.194  1.00  0.00     0.020 C 
ENDBRANCH  24  26
ENDBRANCH  23  24
ENDBRANCH   5  23
TORSDOF 5
ENDMDL
MODEL 7
REMARK VINA RESULT:      -9.2     12.804     15.195
REMARK  5 active torsions:
REMARK  status: ('A' for Active; 'I' for Inactive)
REMARK    1  A    between atoms: C10_15  and  O1_1 
REMARK    2  A    between atoms: C8_13  and  O1_1 
REMARK    3  A    between atoms: C14_19  and  O3_3 
REMARK    4  A    between atoms: C6_11  and  O3_3 
REMARK    5  A    between atoms: C14_19  and  C2_7 
ROOT
HETATM    1  O2  UNK     1      32.792  -6.989  37.975  1.00  0.00    -0.319 OA
HETATM    2  O4  UNK     1      33.108  -3.540  35.813  1.00  0.00    -0.284 OA
HETATM    3  C1  UNK     1      31.806  -4.885  37.256  1.00  0.00     0.051 A 
HETATM    4  C3  UNK     1      31.760  -6.082  37.974  1.00  0.00     0.092 A 
HETATM    5  C6  UNK     1      29.553  -5.516  38.772  1.00  0.00     0.082 A 
HETATM    6  C7  UNK     1      33.008  -4.572  36.461  1.00  0.00     0.220 A 
HETATM    7  C8  UNK     1      34.089  -5.582  36.497  1.00  0.00     0.149 A 
HETATM    8  C9  UNK     1      30.633  -6.399  38.733  1.00  0.00     0.075 A 
HETATM    9  C11 UNK     1      30.726  -4.000  37.292  1.00  0.00     0.021 A 
HETATM   10  C13 UNK     1      29.599  -4.319  38.052  1.00  0.00     0.038 A 
HETATM   11  C19 UNK     1      33.906  -6.683  37.231  1.00  0.00     0.184 A 
ENDROOT
BRANCH   7  12
HETATM   12  O1  UNK     1      35.237  -5.365  35.788  1.00  0.00    -0.305 OA
BRANCH  12  13
HETATM   13  C10 UNK     1      35.581  -6.271  34.833  1.00  0.00     0.077 A 
HETATM   14  C12 UNK     1      34.789  -6.416  33.693  1.00  0.00     0.049 A 
HETATM   15  C4  UNK     1      35.129  -7.348  32.698  1.00  0.00    -0.023 A 
HETATM   16  C20 UNK     1      34.344  -7.507  31.545  1.00  0.00     0.012 A 
HETATM   17  C5  UNK     1      36.288  -8.143  32.862  1.00  0.00    -0.026 A 
HETATM   18  C22 UNK     1      34.697  -8.437  30.567  1.00  0.00     0.001 A 
HETATM   19  C23 UNK     1      35.836  -9.220  30.728  1.00  0.00     0.001 A 
HETATM   20  C21 UNK     1      36.628  -9.075  31.868  1.00  0.00     0.012 A 
HETATM   21  C15 UNK     1      37.072  -7.984  34.016  1.00  0.00     0.015 A 
HETATM   22  C18 UNK     1      36.720  -7.054  34.994  1.00  0.00     0.038 A 
ENDBRANCH  12  13
ENDBRANCH   7  12
BRANCH   5  23
HETATM   23  O3  UNK     1      28.451  -5.822  39.509  1.00  0.00    -0.279 OA
BRANCH  23  24
HETATM   24  C14 UNK     1      27.367  -6.309  38.756  1.00  0.00     0.267 C 
HETATM   25  O5  UNK     1      26.416  -5.636  38.376  1.00  0.00    -0.264 OA
BRANCH  24  26
HETATM   26  C2  UNK     1      27.555  -7.789  38.475  1.00  0.00     0.078 C 
HETATM   27  C16 UNK     1      27.625  -8.582  39.778  1.00  0.00     0.020 C 
HETATM   28  C17 UNK     1      26.418  -8.293  37.592  1.00  0.00     0.020 C 
ENDBRANCH  24  26
ENDBRANCH  23  24
ENDBRANCH   5  23
TORSDOF 5
ENDMDL
MODEL 8
REMARK VINA RESULT:      -9.1     27.738     30.942
REMARK  5 active torsions:
REMARK  status: ('A' for Active; 'I' for Inactive)
REMARK    1  A    between atoms: C10_15  and  O1_1 
REMARK    2  A    between atoms: C8_13  and  O1_1 
REMARK    3  A    between atoms: C14_19  and  O3_3 
REMARK    4  A    between atoms: C6_11  and  O3_3 
REMARK    5  A    between atoms: C14_19  and  C2_7 
ROOT
HETATM    1  O2  UNK     1      14.643  10.036   9.625  1.00  0.00    -0.319 OA
HETATM    2  O4  UNK     1      17.918   7.632  10.030  1.00  0.00    -0.284 OA
HETATM    3  C1  UNK     1      15.567   7.797   9.845  1.00  0.00     0.051 A 
HETATM    4  C3  UNK     1      14.489   8.674   9.706  1.00  0.00     0.092 A 
HETATM    5  C6  UNK     1      12.968   6.800   9.718  1.00  0.00     0.082 A 
HETATM    6  C7  UNK     1      16.934   8.348   9.910  1.00  0.00     0.220 A 
HETATM    7  C8  UNK     1      17.044   9.821   9.818  1.00  0.00     0.149 A 
HETATM    8  C9  UNK     1      13.188   8.175   9.642  1.00  0.00     0.075 A 
HETATM    9  C11 UNK     1      15.351   6.420   9.921  1.00  0.00     0.021 A 
HETATM   10  C13 UNK     1      14.047   5.924   9.858  1.00  0.00     0.038 A 
HETATM   11  C19 UNK     1      15.922  10.535   9.686  1.00  0.00     0.184 A 
ENDROOT
BRANCH   7  12
HETATM   12  O1  UNK     1      18.276  10.408   9.869  1.00  0.00    -0.305 OA
BRANCH  12  13
HETATM   13  C10 UNK     1      18.506  11.484   9.068  1.00  0.00     0.077 A 
HETATM   14  C12 UNK     1      18.654  11.310   7.691  1.00  0.00     0.049 A 
HETATM   15  C4  UNK     1      18.893  12.410   6.851  1.00  0.00    -0.023 A 
HETATM   16  C20 UNK     1      19.043  12.253   5.463  1.00  0.00     0.012 A 
HETATM   17  C5  UNK     1      18.983  13.704   7.414  1.00  0.00    -0.026 A 
HETATM   18  C22 UNK     1      19.280  13.356   4.644  1.00  0.00     0.001 A 
HETATM   19  C23 UNK     1      19.370  14.630   5.198  1.00  0.00     0.001 A 
HETATM   20  C21 UNK     1      19.222  14.805   6.575  1.00  0.00     0.012 A 
HETATM   21  C15 UNK     1      18.833  13.862   8.802  1.00  0.00     0.015 A 
HETATM   22  C18 UNK     1      18.597  12.758   9.622  1.00  0.00     0.038 A 
ENDBRANCH  12  13
ENDBRANCH   7  12
BRANCH   5  23
HETATM   23  O3  UNK     1      11.700   6.309   9.657  1.00  0.00    -0.279 OA
BRANCH  23  24
HETATM   24  C14 UNK     1      11.425   5.554   8.502  1.00  0.00     0.267 C 
HETATM   25  O5  UNK     1      11.620   4.350   8.386  1.00  0.00    -0.264 OA
BRANCH  24  26
HETATM   26  C2  UNK     1      10.840   6.450   7.424  1.00  0.00     0.078 C 
HETATM   27  C16 UNK     1      11.558   6.234   6.094  1.00  0.00     0.020 C 
HETATM   28  C17 UNK     1       9.346   6.181   7.287  1.00  0.00     0.020 C 
ENDBRANCH  24  26
ENDBRANCH  23  24
ENDBRANCH   5  23
TORSDOF 5
ENDMDL
MODEL 9
REMARK VINA RESULT:      -9.1     23.955     29.209
REMARK  5 active torsions:
REMARK  status: ('A' for Active; 'I' for Inactive)
REMARK    1  A    between atoms: C10_15  and  O1_1 
REMARK    2  A    between atoms: C8_13  and  O1_1 
REMARK    3  A    between atoms: C14_19  and  O3_3 
REMARK    4  A    between atoms: C6_11  and  O3_3 
REMARK    5  A    between atoms: C14_19  and  C2_7 
ROOT
HETATM    1  O2  UNK     1       7.221   6.204  11.062  1.00  0.00    -0.319 OA
HETATM    2  O4  UNK     1       6.949   3.143   8.374  1.00  0.00    -0.284 OA
HETATM    3  C1  UNK     1       6.389   3.986  10.510  1.00  0.00     0.051 A 
HETATM    4  C3  UNK     1       6.519   5.068  11.384  1.00  0.00     0.092 A 
HETATM    5  C6  UNK     1       5.197   3.896  13.028  1.00  0.00     0.082 A 
HETATM    6  C7  UNK     1       7.029   4.056   9.183  1.00  0.00     0.220 A 
HETATM    7  C8  UNK     1       7.771   5.302   8.887  1.00  0.00     0.149 A 
HETATM    8  C9  UNK     1       5.923   5.024  12.644  1.00  0.00     0.075 A 
HETATM    9  C11 UNK     1       5.663   2.856  10.892  1.00  0.00     0.021 A 
HETATM   10  C13 UNK     1       5.068   2.814  12.154  1.00  0.00     0.038 A 
HETATM   11  C19 UNK     1       7.810   6.256   9.822  1.00  0.00     0.184 A 
ENDROOT
BRANCH   7  12
HETATM   12  O1  UNK     1       8.390   5.445   7.677  1.00  0.00    -0.305 OA
BRANCH  12  13
HETATM   13  C10 UNK     1       9.705   5.795   7.669  1.00  0.00     0.077 A 
HETATM   14  C12 UNK     1      10.530   5.432   8.734  1.00  0.00     0.049 A 
HETATM   15  C4  UNK     1      11.890   5.786   8.742  1.00  0.00    -0.023 A 
HETATM   16  C20 UNK     1      12.734   5.428   9.805  1.00  0.00     0.012 A 
HETATM   17  C5  UNK     1      12.420   6.518   7.653  1.00  0.00    -0.026 A 
HETATM   18  C22 UNK     1      14.081   5.788   9.795  1.00  0.00     0.001 A 
HETATM   19  C23 UNK     1      14.603   6.508   8.726  1.00  0.00     0.001 A 
HETATM   20  C21 UNK     1      13.779   6.871   7.659  1.00  0.00     0.012 A 
HETATM   21  C15 UNK     1      11.575   6.876   6.589  1.00  0.00     0.015 A 
HETATM   22  C18 UNK     1      10.227   6.516   6.599  1.00  0.00     0.038 A 
ENDBRANCH  12  13
ENDBRANCH   7  12
BRANCH   5  23
HETATM   23  O3  UNK     1       4.615   3.847  14.257  1.00  0.00    -0.279 OA
BRANCH  23  24
HETATM   24  C14 UNK     1       5.453   3.360  15.277  1.00  0.00     0.267 C 
HETATM   25  O5  UNK     1       6.286   4.026  15.880  1.00  0.00    -0.264 OA
BRANCH  24  26
HETATM   26  C2  UNK     1       5.165   1.890  15.527  1.00  0.00     0.078 C 
HETATM   27  C16 UNK     1       5.849   1.416  16.807  1.00  0.00     0.020 C 
HETATM   28  C17 UNK     1       3.658   1.668  15.600  1.00  0.00     0.020 C 
ENDBRANCH  24  26
ENDBRANCH  23  24
ENDBRANCH   5  23
TORSDOF 5
ENDMDL
MODEL 10
REMARK VINA RESULT:      -9.1      6.959      9.933
REMARK  5 active torsions:
REMARK  status: ('A' for Active; 'I' for Inactive)
REMARK    1  A    between atoms: C10_15  and  O1_1 
REMARK    2  A    between atoms: C8_13  and  O1_1 
REMARK    3  A    between atoms: C14_19  and  O3_3 
REMARK    4  A    between atoms: C6_11  and  O3_3 
REMARK    5  A    between atoms: C14_19  and  C2_7 
ROOT
HETATM    1  O2  UNK     1      25.549  -5.310  38.775  1.00  0.00    -0.319 OA
HETATM    2  O4  UNK     1      26.394  -9.302  38.920  1.00  0.00    -0.284 OA
HETATM    3  C1  UNK     1      27.210  -7.088  38.777  1.00  0.00     0.051 A 
HETATM    4  C3  UNK     1      26.854  -5.738  38.732  1.00  0.00     0.092 A 
HETATM    5  C6  UNK     1      29.186  -5.131  38.591  1.00  0.00     0.082 A 
HETATM    6  C7  UNK     1      26.146  -8.105  38.875  1.00  0.00     0.220 A 
HETATM    7  C8  UNK     1      24.759  -7.590  38.920  1.00  0.00     0.149 A 
HETATM    8  C9  UNK     1      27.843  -4.758  38.639  1.00  0.00     0.075 A 
HETATM    9  C11 UNK     1      28.553  -7.464  38.729  1.00  0.00     0.021 A 
HETATM   10  C13 UNK     1      29.541  -6.482  38.636  1.00  0.00     0.038 A 
HETATM   11  C19 UNK     1      24.570  -6.269  38.868  1.00  0.00     0.184 A 
ENDROOT
BRANCH   7  12
HETATM   12  O1  UNK     1      23.718  -8.470  39.012  1.00  0.00    -0.305 OA
BRANCH  12  13
HETATM   13  C10 UNK     1      22.487  -8.048  38.614  1.00  0.00     0.077 A 
HETATM   14  C12 UNK     1      22.164  -8.020  37.257  1.00  0.00     0.049 A 
HETATM   15  C4  UNK     1      20.898  -7.587  36.829  1.00  0.00    -0.023 A 
HETATM   16  C20 UNK     1      20.557  -7.553  35.467  1.00  0.00     0.012 A 
HETATM   17  C5  UNK     1      19.946  -7.176  37.792  1.00  0.00    -0.026 A 
HETATM   18  C22 UNK     1      19.295  -7.120  35.061  1.00  0.00     0.001 A 
HETATM   19  C23 UNK     1      18.359  -6.715  36.007  1.00  0.00     0.001 A 
HETATM   20  C21 UNK     1      18.680  -6.743  37.365  1.00  0.00     0.012 A 
HETATM   21  C15 UNK     1      20.288  -7.210  39.154  1.00  0.00     0.015 A 
HETATM   22  C18 UNK     1      21.550  -7.643  39.561  1.00  0.00     0.038 A 
ENDBRANCH  12  13
ENDBRANCH   7  12
BRANCH   5  23
HETATM   23  O3  UNK     1      30.154  -4.179  38.499  1.00  0.00    -0.279 OA
BRANCH  23  24
HETATM   24  C14 UNK     1      31.401  -4.660  38.057  1.00  0.00     0.267 C 
HETATM   25  O5  UNK     1      32.282  -5.100  38.784  1.00  0.00    -0.264 OA
BRANCH  24  26
HETATM   26  C2  UNK     1      31.486  -4.563  36.544  1.00  0.00     0.078 C 
HETATM   27  C16 UNK     1      32.401  -3.414  36.127  1.00  0.00     0.020 C 
HETATM   28  C17 UNK     1      31.979  -5.887  35.971  1.00  0.00     0.020 C 
ENDBRANCH  24  26
ENDBRANCH  23  24
ENDBRANCH   5  23
TORSDOF 5
ENDMDL
