MODEL 1
REMARK VINA RESULT:      -9.0      0.000      0.000
REMARK  4 active torsions:
REMARK  status: ('A' for Active; 'I' for Inactive)
REMARK    1  A    between atoms: C4_9  and  O2_2 
REMARK    2  A    between atoms: C9_14  and  O2_2 
REMARK    3  A    between atoms: C8_13  and  O4_4 
REMARK    4  A    between atoms: C13_18  and  O5_5 
ROOT
HETATM    1  O1  UNK     1      18.910   0.581  32.512  1.00  0.00    -0.319 OA
HETATM    2  O3  UNK     1      18.418   2.751  29.089  1.00  0.00    -0.284 OA
HETATM    3  C1  UNK     1      19.189   0.759  30.103  1.00  0.00     0.051 A 
HETATM    4  C2  UNK     1      19.329   0.068  31.308  1.00  0.00     0.091 A 
HETATM    5  C3  UNK     1      18.569   2.096  30.111  1.00  0.00     0.220 A 
HETATM    6  C4  UNK     1      18.136   2.601  31.434  1.00  0.00     0.149 A 
HETATM    7  C5  UNK     1      19.632   0.188  28.908  1.00  0.00     0.021 A 
HETATM    8  C6  UNK     1      19.913  -1.198  31.323  1.00  0.00     0.074 A 
HETATM    9  C7  UNK     1      18.333   1.828  32.505  1.00  0.00     0.184 A 
HETATM   10  C8  UNK     1      20.356  -1.772  30.131  1.00  0.00     0.068 A 
HETATM   11  C10 UNK     1      20.217  -1.079  28.927  1.00  0.00     0.037 A 
ENDROOT
BRANCH   6  12
HETATM   12  O2  UNK     1      17.547   3.841  31.527  1.00  0.00    -0.305 OA
BRANCH  12  13
HETATM   13  C9  UNK     1      18.296   4.845  32.076  1.00  0.00     0.076 A 
HETATM   14  C11 UNK     1      17.931   5.386  33.304  1.00  0.00     0.040 A 
HETATM   15  C14 UNK     1      18.695   6.411  33.863  1.00  0.00     0.039 A 
HETATM   16  C13 UNK     1      19.820   6.890  33.190  1.00  0.00     0.068 A 
HETATM   17  C15 UNK     1      20.181   6.342  31.959  1.00  0.00     0.039 A 
HETATM   18  C12 UNK     1      19.416   5.317  31.400  1.00  0.00     0.040 A 
BRANCH  16  19
HETATM   19  O5  UNK     1      20.565   7.889  33.736  1.00  0.00    -0.356 OA
HETATM   20  C16 UNK     1      19.868   8.884  34.485  1.00  0.00     0.210 C 
ENDBRANCH  16  19
ENDBRANCH  12  13
ENDBRANCH   6  12
BRANCH  10  21
HETATM   21  O4  UNK     1      20.928  -3.007  30.141  1.00  0.00    -0.361 OA
HETATM   22  H9  UNK     1      21.786  -2.954  30.595  1.00  0.00     0.217 HD
ENDBRANCH  10  21
TORSDOF 4
ENDMDL
MODEL 2
REMARK VINA RESULT:      -8.3      0.792      1.865
REMARK  4 active torsions:
REMARK  status: ('A' for Active; 'I' for Inactive)
REMARK    1  A    between atoms: C4_9  and  O2_2 
REMARK    2  A    between atoms: C9_14  and  O2_2 
REMARK    3  A    between atoms: C8_13  and  O4_4 
REMARK    4  A    between atoms: C13_18  and  O5_5 
ROOT
HETATM    1  O1  UNK     1      19.344   1.032  29.020  1.00  0.00    -0.319 OA
HETATM    2  O3  UNK     1      18.169   1.413  32.911  1.00  0.00    -0.284 OA
HETATM    3  C1  UNK     1      19.233   0.095  31.262  1.00  0.00     0.051 A 
HETATM    4  C2  UNK     1      19.608   0.026  29.919  1.00  0.00     0.091 A 
HETATM    5  C3  UNK     1      18.523   1.292  31.747  1.00  0.00     0.220 A 
HETATM    6  C4  UNK     1      18.264   2.345  30.738  1.00  0.00     0.149 A 
HETATM    7  C5  UNK     1      19.529  -0.958  32.131  1.00  0.00     0.021 A 
HETATM    8  C6  UNK     1      20.281  -1.097  29.438  1.00  0.00     0.074 A 
HETATM    9  C7  UNK     1      18.682   2.142  29.486  1.00  0.00     0.184 A 
HETATM   10  C8  UNK     1      20.578  -2.150  30.304  1.00  0.00     0.068 A 
HETATM   11  C10 UNK     1      20.202  -2.080  31.647  1.00  0.00     0.037 A 
ENDROOT
BRANCH   6  12
HETATM   12  O2  UNK     1      17.607   3.495  31.111  1.00  0.00    -0.305 OA
BRANCH  12  13
HETATM   13  C9  UNK     1      18.355   4.472  31.705  1.00  0.00     0.076 A 
HETATM   14  C11 UNK     1      18.129   4.801  33.038  1.00  0.00     0.040 A 
HETATM   15  C14 UNK     1      18.891   5.800  33.644  1.00  0.00     0.039 A 
HETATM   16  C13 UNK     1      19.877   6.465  32.914  1.00  0.00     0.068 A 
HETATM   17  C15 UNK     1      20.100   6.130  31.578  1.00  0.00     0.039 A 
HETATM   18  C12 UNK     1      19.337   5.132  30.972  1.00  0.00     0.040 A 
BRANCH  16  19
HETATM   19  O5  UNK     1      20.622   7.438  33.505  1.00  0.00    -0.356 OA
HETATM   20  C16 UNK     1      19.917   8.437  34.242  1.00  0.00     0.210 C 
ENDBRANCH  16  19
ENDBRANCH  12  13
ENDBRANCH   6  12
BRANCH  10  21
HETATM   21  O4  UNK     1      21.234  -3.249  29.840  1.00  0.00    -0.361 OA
HETATM   22  H9  UNK     1      22.115  -3.287  30.249  1.00  0.00     0.217 HD
ENDBRANCH  10  21
TORSDOF 4
ENDMDL
MODEL 3
REMARK VINA RESULT:      -7.9      3.632      8.735
REMARK  4 active torsions:
REMARK  status: ('A' for Active; 'I' for Inactive)
REMARK    1  A    between atoms: C4_9  and  O2_2 
REMARK    2  A    between atoms: C9_14  and  O2_2 
REMARK    3  A    between atoms: C8_13  and  O4_4 
REMARK    4  A    between atoms: C13_18  and  O5_5 
ROOT
HETATM    1  O1  UNK     1      15.915   8.481  31.273  1.00  0.00    -0.319 OA
HETATM    2  O3  UNK     1      18.214   7.584  34.526  1.00  0.00    -0.284 OA
HETATM    3  C1  UNK     1      16.310   8.689  33.664  1.00  0.00     0.051 A 
HETATM    4  C2  UNK     1      15.567   8.960  32.514  1.00  0.00     0.091 A 
HETATM    5  C3  UNK     1      17.522   7.857  33.555  1.00  0.00     0.220 A 
HETATM    6  C4  UNK     1      17.852   7.367  32.197  1.00  0.00     0.149 A 
HETATM    7  C5  UNK     1      15.907   9.202  34.900  1.00  0.00     0.021 A 
HETATM    8  C6  UNK     1      14.417   9.745  32.594  1.00  0.00     0.074 A 
HETATM    9  C7  UNK     1      17.047   7.706  31.187  1.00  0.00     0.184 A 
HETATM   10  C8  UNK     1      14.012  10.258  33.827  1.00  0.00     0.068 A 
HETATM   11  C10 UNK     1      14.757   9.987  34.976  1.00  0.00     0.037 A 
ENDROOT
BRANCH   6  12
HETATM   12  O2  UNK     1      18.966   6.583  32.011  1.00  0.00    -0.305 OA
BRANCH  12  13
HETATM   13  C9  UNK     1      18.762   5.316  31.539  1.00  0.00     0.076 A 
HETATM   14  C11 UNK     1      19.074   5.013  30.217  1.00  0.00     0.040 A 
HETATM   15  C14 UNK     1      18.865   3.721  29.735  1.00  0.00     0.039 A 
HETATM   16  C13 UNK     1      18.344   2.738  30.578  1.00  0.00     0.068 A 
HETATM   17  C15 UNK     1      18.034   3.048  31.902  1.00  0.00     0.039 A 
HETATM   18  C12 UNK     1      18.243   4.340  32.383  1.00  0.00     0.040 A 
BRANCH  16  19
HETATM   19  O5  UNK     1      18.141   1.477  30.108  1.00  0.00    -0.356 OA
HETATM   20  C16 UNK     1      18.236   1.287  28.697  1.00  0.00     0.210 C 
ENDBRANCH  16  19
ENDBRANCH  12  13
ENDBRANCH   6  12
BRANCH  10  21
HETATM   21  O4  UNK     1      12.891  11.025  33.909  1.00  0.00    -0.361 OA
HETATM   22  H9  UNK     1      12.258  10.732  33.233  1.00  0.00     0.217 HD
ENDBRANCH  10  21
TORSDOF 4
ENDMDL
MODEL 4
REMARK VINA RESULT:      -7.6     13.047     17.153
REMARK  4 active torsions:
REMARK  status: ('A' for Active; 'I' for Inactive)
REMARK    1  A    between atoms: C4_9  and  O2_2 
REMARK    2  A    between atoms: C9_14  and  O2_2 
REMARK    3  A    between atoms: C8_13  and  O4_4 
REMARK    4  A    between atoms: C13_18  and  O5_5 
ROOT
HETATM    1  O1  UNK     1      18.692  -0.958  18.288  1.00  0.00    -0.319 OA
HETATM    2  O3  UNK     1      19.524   1.704  15.307  1.00  0.00    -0.284 OA
HETATM    3  C1  UNK     1      19.165   1.330  17.613  1.00  0.00     0.051 A 
HETATM    4  C2  UNK     1      18.878   0.371  18.586  1.00  0.00     0.091 A 
HETATM    5  C3  UNK     1      19.275   0.911  16.204  1.00  0.00     0.220 A 
HETATM    6  C4  UNK     1      19.065  -0.530  15.939  1.00  0.00     0.149 A 
HETATM    7  C5  UNK     1      19.346   2.667  17.975  1.00  0.00     0.021 A 
HETATM    8  C6  UNK     1      18.771   0.744  19.926  1.00  0.00     0.074 A 
HETATM    9  C7  UNK     1      18.798  -1.334  16.971  1.00  0.00     0.184 A 
HETATM   10  C8  UNK     1      18.951   2.079  20.289  1.00  0.00     0.068 A 
HETATM   11  C10 UNK     1      19.237   3.038  19.316  1.00  0.00     0.037 A 
ENDROOT
BRANCH   6  12
HETATM   12  O2  UNK     1      19.151  -1.002  14.649  1.00  0.00    -0.305 OA
BRANCH  12  13
HETATM   13  C9  UNK     1      19.268  -2.355  14.490  1.00  0.00     0.076 A 
HETATM   14  C11 UNK     1      18.128  -3.152  14.495  1.00  0.00     0.040 A 
HETATM   15  C14 UNK     1      18.246  -4.532  14.334  1.00  0.00     0.039 A 
HETATM   16  C13 UNK     1      19.506  -5.109  14.168  1.00  0.00     0.068 A 
HETATM   17  C15 UNK     1      20.646  -4.305  14.163  1.00  0.00     0.039 A 
HETATM   18  C12 UNK     1      20.526  -2.924  14.325  1.00  0.00     0.040 A 
BRANCH  16  19
HETATM   19  O5  UNK     1      19.623  -6.456  14.010  1.00  0.00    -0.356 OA
HETATM   20  C16 UNK     1      20.937  -6.974  13.810  1.00  0.00     0.210 C 
ENDBRANCH  16  19
ENDBRANCH  12  13
ENDBRANCH   6  12
BRANCH  10  21
HETATM   21  O4  UNK     1      18.846   2.449  21.595  1.00  0.00    -0.361 OA
HETATM   22  H9  UNK     1      19.445   3.196  21.761  1.00  0.00     0.217 HD
ENDBRANCH  10  21
TORSDOF 4
ENDMDL
MODEL 5
REMARK VINA RESULT:      -7.6      7.892     10.257
REMARK  4 active torsions:
REMARK  status: ('A' for Active; 'I' for Inactive)
REMARK    1  A    between atoms: C4_9  and  O2_2 
REMARK    2  A    between atoms: C9_14  and  O2_2 
REMARK    3  A    between atoms: C8_13  and  O4_4 
REMARK    4  A    between atoms: C13_18  and  O5_5 
ROOT
HETATM    1  O1  UNK     1      18.919  -6.775  36.879  1.00  0.00    -0.319 OA
HETATM    2  O3  UNK     1      22.437  -5.215  38.243  1.00  0.00    -0.284 OA
HETATM    3  C1  UNK     1      20.906  -7.017  38.261  1.00  0.00     0.051 A 
HETATM    4  C2  UNK     1      19.694  -7.493  37.758  1.00  0.00     0.091 A 
HETATM    5  C3  UNK     1      21.384  -5.688  37.838  1.00  0.00     0.220 A 
HETATM    6  C4  UNK     1      20.511  -4.956  36.892  1.00  0.00     0.149 A 
HETATM    7  C5  UNK     1      21.653  -7.792  39.151  1.00  0.00     0.021 A 
HETATM    8  C6  UNK     1      19.223  -8.748  38.144  1.00  0.00     0.074 A 
HETATM    9  C7  UNK     1      19.377  -5.538  36.494  1.00  0.00     0.184 A 
HETATM   10  C8  UNK     1      19.967  -9.525  39.033  1.00  0.00     0.068 A 
HETATM   11  C10 UNK     1      21.178  -9.047  39.535  1.00  0.00     0.037 A 
ENDROOT
BRANCH   6  12
HETATM   12  O2  UNK     1      20.887  -3.710  36.448  1.00  0.00    -0.305 OA
BRANCH  12  13
HETATM   13  C9  UNK     1      19.919  -2.744  36.419  1.00  0.00     0.076 A 
HETATM   14  C11 UNK     1      19.202  -2.449  37.575  1.00  0.00     0.040 A 
HETATM   15  C14 UNK     1      18.214  -1.465  37.545  1.00  0.00     0.039 A 
HETATM   16  C13 UNK     1      17.947  -0.780  36.359  1.00  0.00     0.068 A 
HETATM   17  C15 UNK     1      18.670  -1.079  35.204  1.00  0.00     0.039 A 
HETATM   18  C12 UNK     1      19.657  -2.064  35.234  1.00  0.00     0.040 A 
BRANCH  16  19
HETATM   19  O5  UNK     1      16.984   0.181  36.330  1.00  0.00    -0.356 OA
HETATM   20  C16 UNK     1      15.983   0.065  35.320  1.00  0.00     0.210 C 
ENDBRANCH  16  19
ENDBRANCH  12  13
ENDBRANCH   6  12
BRANCH  10  21
HETATM   21  O4  UNK     1      19.511 -10.749  39.413  1.00  0.00    -0.361 OA
HETATM   22  H9  UNK     1      20.220 -11.218  39.885  1.00  0.00     0.217 HD
ENDBRANCH  10  21
TORSDOF 4
ENDMDL
MODEL 6
REMARK VINA RESULT:      -7.5      2.816      8.786
REMARK  4 active torsions:
REMARK  status: ('A' for Active; 'I' for Inactive)
REMARK    1  A    between atoms: C4_9  and  O2_2 
REMARK    2  A    between atoms: C9_14  and  O2_2 
REMARK    3  A    between atoms: C8_13  and  O4_4 
REMARK    4  A    between atoms: C13_18  and  O5_5 
ROOT
HETATM    1  O1  UNK     1      16.193   8.235  34.005  1.00  0.00    -0.319 OA
HETATM    2  O3  UNK     1      20.271   8.149  33.825  1.00  0.00    -0.284 OA
HETATM    3  C1  UNK     1      18.302   9.447  33.992  1.00  0.00     0.051 A 
HETATM    4  C2  UNK     1      16.908   9.408  34.049  1.00  0.00     0.091 A 
HETATM    5  C3  UNK     1      19.050   8.181  33.879  1.00  0.00     0.220 A 
HETATM    6  C4  UNK     1      18.232   6.948  33.835  1.00  0.00     0.149 A 
HETATM    7  C5  UNK     1      18.976  10.670  34.042  1.00  0.00     0.021 A 
HETATM    8  C6  UNK     1      16.180  10.594  34.156  1.00  0.00     0.074 A 
HETATM    9  C7  UNK     1      16.903   7.063  33.900  1.00  0.00     0.184 A 
HETATM   10  C8  UNK     1      16.850  11.816  34.207  1.00  0.00     0.068 A 
HETATM   11  C10 UNK     1      18.244  11.853  34.149  1.00  0.00     0.037 A 
ENDROOT
BRANCH   6  12
HETATM   12  O2  UNK     1      18.854   5.725  33.731  1.00  0.00    -0.305 OA
BRANCH  12  13
HETATM   13  C9  UNK     1      18.781   5.092  32.521  1.00  0.00     0.076 A 
HETATM   14  C11 UNK     1      18.196   3.833  32.435  1.00  0.00     0.040 A 
HETATM   15  C14 UNK     1      18.123   3.186  31.201  1.00  0.00     0.039 A 
HETATM   16  C13 UNK     1      18.634   3.803  30.059  1.00  0.00     0.068 A 
HETATM   17  C15 UNK     1      19.219   5.067  30.152  1.00  0.00     0.039 A 
HETATM   18  C12 UNK     1      19.293   5.712  31.386  1.00  0.00     0.040 A 
BRANCH  16  19
HETATM   19  O5  UNK     1      18.562   3.174  28.855  1.00  0.00    -0.356 OA
HETATM   20  C16 UNK     1      17.902   1.909  28.823  1.00  0.00     0.210 C 
ENDBRANCH  16  19
ENDBRANCH  12  13
ENDBRANCH   6  12
BRANCH  10  21
HETATM   21  O4  UNK     1      16.144  12.975  34.311  1.00  0.00    -0.361 OA
HETATM   22  H9  UNK     1      15.686  12.990  35.168  1.00  0.00     0.217 HD
ENDBRANCH  10  21
TORSDOF 4
ENDMDL
MODEL 7
REMARK VINA RESULT:      -7.5      3.372      8.453
REMARK  4 active torsions:
REMARK  status: ('A' for Active; 'I' for Inactive)
REMARK    1  A    between atoms: C4_9  and  O2_2 
REMARK    2  A    between atoms: C9_14  and  O2_2 
REMARK    3  A    between atoms: C8_13  and  O4_4 
REMARK    4  A    between atoms: C13_18  and  O5_5 
ROOT
HETATM    1  O1  UNK     1      17.695   8.208  34.861  1.00  0.00    -0.319 OA
HETATM    2  O3  UNK     1      17.019   7.809  30.855  1.00  0.00    -0.284 OA
HETATM    3  C1  UNK     1      16.276   8.649  32.936  1.00  0.00     0.051 A 
HETATM    4  C2  UNK     1      16.564   8.750  34.298  1.00  0.00     0.091 A 
HETATM    5  C3  UNK     1      17.216   7.931  32.056  1.00  0.00     0.220 A 
HETATM    6  C4  UNK     1      18.416   7.367  32.713  1.00  0.00     0.149 A 
HETATM    7  C5  UNK     1      15.112   9.221  32.418  1.00  0.00     0.021 A 
HETATM    8  C6  UNK     1      15.689   9.425  35.149  1.00  0.00     0.074 A 
HETATM    9  C7  UNK     1      18.562   7.543  34.029  1.00  0.00     0.184 A 
HETATM   10  C8  UNK     1      14.526   9.998  34.634  1.00  0.00     0.068 A 
HETATM   11  C10 UNK     1      14.238   9.895  33.272  1.00  0.00     0.037 A 
ENDROOT
BRANCH   6  12
HETATM   12  O2  UNK     1      19.343   6.683  31.961  1.00  0.00    -0.305 OA
BRANCH  12  13
HETATM   13  C9  UNK     1      18.987   5.440  31.517  1.00  0.00     0.076 A 
HETATM   14  C11 UNK     1      19.225   5.085  30.193  1.00  0.00     0.040 A 
HETATM   15  C14 UNK     1      18.861   3.818  29.739  1.00  0.00     0.039 A 
HETATM   16  C13 UNK     1      18.260   2.910  30.612  1.00  0.00     0.068 A 
HETATM   17  C15 UNK     1      18.025   3.271  31.939  1.00  0.00     0.039 A 
HETATM   18  C12 UNK     1      18.389   4.539  32.392  1.00  0.00     0.040 A 
BRANCH  16  19
HETATM   19  O5  UNK     1      17.905   1.673  30.170  1.00  0.00    -0.356 OA
HETATM   20  C16 UNK     1      17.944   1.452  28.761  1.00  0.00     0.210 C 
ENDBRANCH  16  19
ENDBRANCH  12  13
ENDBRANCH   6  12
BRANCH  10  21
HETATM   21  O4  UNK     1      13.668  10.657  35.460  1.00  0.00    -0.361 OA
HETATM   22  H9  UNK     1      12.832  10.812  34.989  1.00  0.00     0.217 HD
ENDBRANCH  10  21
TORSDOF 4
ENDMDL
MODEL 8
REMARK VINA RESULT:      -7.3      1.302      7.135
REMARK  4 active torsions:
REMARK  status: ('A' for Active; 'I' for Inactive)
REMARK    1  A    between atoms: C4_9  and  O2_2 
REMARK    2  A    between atoms: C9_14  and  O2_2 
REMARK    3  A    between atoms: C8_13  and  O4_4 
REMARK    4  A    between atoms: C13_18  and  O5_5 
ROOT
HETATM    1  O1  UNK     1      17.905   3.584  33.065  1.00  0.00    -0.319 OA
HETATM    2  O3  UNK     1      19.629   5.065  29.673  1.00  0.00    -0.284 OA
HETATM    3  C1  UNK     1      19.131   5.373  31.964  1.00  0.00     0.051 A 
HETATM    4  C2  UNK     1      18.524   4.811  33.088  1.00  0.00     0.091 A 
HETATM    5  C3  UNK     1      19.114   4.627  30.692  1.00  0.00     0.220 A 
HETATM    6  C4  UNK     1      18.436   3.311  30.722  1.00  0.00     0.149 A 
HETATM    7  C5  UNK     1      19.746   6.624  32.046  1.00  0.00     0.021 A 
HETATM    8  C6  UNK     1      18.528   5.499  34.301  1.00  0.00     0.074 A 
HETATM    9  C7  UNK     1      17.898   2.899  31.873  1.00  0.00     0.184 A 
HETATM   10  C8  UNK     1      19.141   6.750  34.387  1.00  0.00     0.068 A 
HETATM   11  C10 UNK     1      19.748   7.310  33.262  1.00  0.00     0.037 A 
ENDROOT
BRANCH   6  12
HETATM   12  O2  UNK     1      18.377   2.552  29.577  1.00  0.00    -0.305 OA
BRANCH  12  13
HETATM   13  C9  UNK     1      19.035   1.354  29.592  1.00  0.00     0.076 A 
HETATM   14  C11 UNK     1      19.806   1.003  30.696  1.00  0.00     0.040 A 
HETATM   15  C14 UNK     1      20.478  -0.219  30.711  1.00  0.00     0.039 A 
HETATM   16  C13 UNK     1      20.377  -1.085  29.622  1.00  0.00     0.068 A 
HETATM   17  C15 UNK     1      19.602  -0.728  28.518  1.00  0.00     0.039 A 
HETATM   18  C12 UNK     1      18.930   0.494  28.503  1.00  0.00     0.040 A 
BRANCH  16  19
HETATM   19  O5  UNK     1      21.032  -2.278  29.637  1.00  0.00    -0.356 OA
HETATM   20  C16 UNK     1      20.869  -3.093  30.796  1.00  0.00     0.210 C 
ENDBRANCH  16  19
ENDBRANCH  12  13
ENDBRANCH   6  12
BRANCH  10  21
HETATM   21  O4  UNK     1      19.147   7.425  35.568  1.00  0.00    -0.361 OA
HETATM   22  H9  UNK     1      18.958   8.363  35.397  1.00  0.00     0.217 HD
ENDBRANCH  10  21
TORSDOF 4
ENDMDL
MODEL 9
REMARK VINA RESULT:      -7.3      4.769      6.768
REMARK  4 active torsions:
REMARK  status: ('A' for Active; 'I' for Inactive)
REMARK    1  A    between atoms: C4_9  and  O2_2 
REMARK    2  A    between atoms: C9_14  and  O2_2 
REMARK    3  A    between atoms: C8_13  and  O4_4 
REMARK    4  A    between atoms: C13_18  and  O5_5 
ROOT
HETATM    1  O1  UNK     1      19.715   7.292  34.368  1.00  0.00    -0.319 OA
HETATM    2  O3  UNK     1      16.459   6.812  31.951  1.00  0.00    -0.284 OA
HETATM    3  C1  UNK     1      18.799   6.606  32.222  1.00  0.00     0.051 A 
HETATM    4  C2  UNK     1      19.870   6.794  33.096  1.00  0.00     0.091 A 
HETATM    5  C3  UNK     1      17.438   6.954  32.670  1.00  0.00     0.220 A 
HETATM    6  C4  UNK     1      17.327   7.486  34.047  1.00  0.00     0.149 A 
HETATM    7  C5  UNK     1      19.017   6.094  30.940  1.00  0.00     0.021 A 
HETATM    8  C6  UNK     1      21.166   6.471  32.693  1.00  0.00     0.074 A 
HETATM    9  C7  UNK     1      18.441   7.612  34.772  1.00  0.00     0.184 A 
HETATM   10  C8  UNK     1      21.387   5.960  31.414  1.00  0.00     0.068 A 
HETATM   11  C10 UNK     1      20.314   5.773  30.540  1.00  0.00     0.037 A 
ENDROOT
BRANCH   6  12
HETATM   12  O2  UNK     1      16.091   7.834  34.541  1.00  0.00    -0.305 OA
BRANCH  12  13
HETATM   13  C9  UNK     1      15.630   9.085  34.236  1.00  0.00     0.076 A 
HETATM   14  C11 UNK     1      16.465  10.186  34.391  1.00  0.00     0.040 A 
HETATM   15  C14 UNK     1      15.995  11.462  34.081  1.00  0.00     0.039 A 
HETATM   16  C13 UNK     1      14.690  11.630  33.616  1.00  0.00     0.068 A 
HETATM   17  C15 UNK     1      13.857  10.522  33.461  1.00  0.00     0.039 A 
HETATM   18  C12 UNK     1      14.328   9.246  33.772  1.00  0.00     0.040 A 
BRANCH  16  19
HETATM   19  O5  UNK     1      14.230  12.874  33.312  1.00  0.00    -0.356 OA
HETATM   20  C16 UNK     1      13.151  12.958  32.382  1.00  0.00     0.210 C 
ENDBRANCH  16  19
ENDBRANCH  12  13
ENDBRANCH   6  12
BRANCH  10  21
HETATM   21  O4  UNK     1      22.649   5.644  31.016  1.00  0.00    -0.361 OA
HETATM   22  H9  UNK     1      22.661   5.548  30.048  1.00  0.00     0.217 HD
ENDBRANCH  10  21
TORSDOF 4
ENDMDL
MODEL 10
REMARK VINA RESULT:      -7.3     22.733     24.897
REMARK  4 active torsions:
REMARK  status: ('A' for Active; 'I' for Inactive)
REMARK    1  A    between atoms: C4_9  and  O2_2 
REMARK    2  A    between atoms: C9_14  and  O2_2 
REMARK    3  A    between atoms: C8_13  and  O4_4 
REMARK    4  A    between atoms: C13_18  and  O5_5 
ROOT
HETATM    1  O1  UNK     1      10.152   4.591   9.860  1.00  0.00    -0.319 OA
HETATM    2  O3  UNK     1       7.604   6.723   7.486  1.00  0.00    -0.284 OA
HETATM    3  C1  UNK     1       9.821   6.028   7.926  1.00  0.00     0.051 A 
HETATM    4  C2  UNK     1      10.638   5.281   8.775  1.00  0.00     0.091 A 
HETATM    5  C3  UNK     1       8.372   6.086   8.194  1.00  0.00     0.220 A 
HETATM    6  C4  UNK     1       7.901   5.326   9.373  1.00  0.00     0.149 A 
HETATM    7  C5  UNK     1      10.371   6.708   6.837  1.00  0.00     0.021 A 
HETATM    8  C6  UNK     1      12.012   5.211   8.540  1.00  0.00     0.074 A 
HETATM    9  C7  UNK     1       8.800   4.654  10.098  1.00  0.00     0.184 A 
HETATM   10  C8  UNK     1      12.564   5.890   7.453  1.00  0.00     0.068 A 
HETATM   11  C10 UNK     1      11.745   6.637   6.605  1.00  0.00     0.037 A 
ENDROOT
BRANCH   6  12
HETATM   12  O2  UNK     1       6.563   5.329   9.692  1.00  0.00    -0.305 OA
BRANCH  12  13
HETATM   13  C9  UNK     1       6.165   4.509  10.711  1.00  0.00     0.076 A 
HETATM   14  C11 UNK     1       5.890   3.170  10.453  1.00  0.00     0.040 A 
HETATM   15  C14 UNK     1       5.483   2.333  11.492  1.00  0.00     0.039 A 
HETATM   16  C13 UNK     1       5.354   2.840  12.786  1.00  0.00     0.068 A 
HETATM   17  C15 UNK     1       5.632   4.183  13.039  1.00  0.00     0.039 A 
HETATM   18  C12 UNK     1       6.039   5.020  11.999  1.00  0.00     0.040 A 
BRANCH  16  19
HETATM   19  O5  UNK     1       4.958   2.024  13.800  1.00  0.00    -0.356 OA
HETATM   20  C16 UNK     1       5.646   2.154  15.044  1.00  0.00     0.210 C 
ENDBRANCH  16  19
ENDBRANCH  12  13
ENDBRANCH   6  12
BRANCH  10  21
HETATM   21  O4  UNK     1      13.903   5.825   7.220  1.00  0.00    -0.361 OA
HETATM   22  H9  UNK     1      14.216   4.928   7.426  1.00  0.00     0.217 HD
ENDBRANCH  10  21
TORSDOF 4
ENDMDL
