MODEL 1
REMARK VINA RESULT:      -8.4      0.000      0.000
REMARK  3 active torsions:
REMARK  status: ('A' for Active; 'I' for Inactive)
REMARK    1  A    between atoms: C9_13  and  O2_2 
REMARK    2  A    between atoms: C5_9  and  O3_3 
REMARK    3  A    between atoms: C3_7  and  C7_11 
ROOT
HETATM    1  O1  UNK     1      18.805  -0.597  33.539  1.00  0.00    -0.309 OA
HETATM    2  O4  UNK     1      20.626  -3.591  35.617  1.00  0.00    -0.287 OA
HETATM    3  C1  UNK     1      19.124  -1.767  35.644  1.00  0.00     0.081 A 
HETATM    4  C2  UNK     1      18.535  -0.766  34.874  1.00  0.00     0.095 A 
HETATM    5  C3  UNK     1      19.708  -1.458  32.934  1.00  0.00     0.090 A 
HETATM    6  C4  UNK     1      20.075  -2.688  35.003  1.00  0.00     0.190 A 
HETATM    7  C5  UNK     1      18.811  -1.893  36.999  1.00  0.00     0.085 A 
HETATM    8  C6  UNK     1      17.628   0.120  35.456  1.00  0.00     0.075 A 
HETATM    9  C8  UNK     1      20.334  -2.464  33.565  1.00  0.00     0.094 A 
HETATM   10  C9  UNK     1      17.313  -0.002  36.810  1.00  0.00     0.073 A 
HETATM   11  C10 UNK     1      17.903  -1.006  37.579  1.00  0.00     0.074 A 
ENDROOT
BRANCH   5  12
HETATM   12  C7  UNK     1      19.921  -1.192  31.497  1.00  0.00    -0.002 A 
HETATM   13  C11 UNK     1      19.721   0.092  30.983  1.00  0.00     0.014 A 
HETATM   14  C13 UNK     1      19.923   0.342  29.625  1.00  0.00     0.001 A 
HETATM   15  C15 UNK     1      20.325  -0.689  28.778  1.00  0.00     0.000 A 
HETATM   16  C14 UNK     1      20.526  -1.973  29.287  1.00  0.00     0.001 A 
HETATM   17  C12 UNK     1      20.324  -2.224  30.645  1.00  0.00     0.014 A 
ENDBRANCH   5  12
BRANCH   7  18
HETATM   18  O3  UNK     1      19.359  -2.854  37.793  1.00  0.00    -0.360 OA
HETATM   19  H9  UNK     1      19.072  -3.736  37.507  1.00  0.00     0.217 HD
ENDBRANCH   7  18
BRANCH  10  20
HETATM   20  O2  UNK     1      16.427   0.860  37.381  1.00  0.00    -0.356 OA
HETATM   21  C16 UNK     1      15.156   0.999  36.747  1.00  0.00     0.210 C 
ENDBRANCH  10  20
TORSDOF 3
ENDMDL
MODEL 2
REMARK VINA RESULT:      -8.4      2.026      6.253
REMARK  3 active torsions:
REMARK  status: ('A' for Active; 'I' for Inactive)
REMARK    1  A    between atoms: C9_13  and  O2_2 
REMARK    2  A    between atoms: C5_9  and  O3_3 
REMARK    3  A    between atoms: C3_7  and  C7_11 
ROOT
HETATM    1  O1  UNK     1      18.895   0.012  33.159  1.00  0.00    -0.309 OA
HETATM    2  O4  UNK     1      20.877  -3.522  32.732  1.00  0.00    -0.287 OA
HETATM    3  C1  UNK     1      20.011  -1.580  31.702  1.00  0.00     0.081 A 
HETATM    4  C2  UNK     1      19.329  -0.384  31.918  1.00  0.00     0.095 A 
HETATM    5  C3  UNK     1      19.141  -0.820  34.241  1.00  0.00     0.090 A 
HETATM    6  C4  UNK     1      20.282  -2.460  32.848  1.00  0.00     0.190 A 
HETATM    7  C5  UNK     1      20.431  -1.932  30.417  1.00  0.00     0.085 A 
HETATM    8  C6  UNK     1      19.061   0.470  30.849  1.00  0.00     0.075 A 
HETATM    9  C8  UNK     1      19.793  -1.992  34.162  1.00  0.00     0.094 A 
HETATM   10  C9  UNK     1      19.478   0.122  29.563  1.00  0.00     0.073 A 
HETATM   11  C10 UNK     1      20.161  -1.076  29.348  1.00  0.00     0.074 A 
ENDROOT
BRANCH   5  12
HETATM   12  C7  UNK     1      18.638  -0.298  35.526  1.00  0.00    -0.002 A 
HETATM   13  C11 UNK     1      18.486   1.079  35.714  1.00  0.00     0.014 A 
HETATM   14  C13 UNK     1      18.009   1.572  36.929  1.00  0.00     0.001 A 
HETATM   15  C15 UNK     1      17.683   0.691  37.960  1.00  0.00     0.000 A 
HETATM   16  C14 UNK     1      17.833  -0.684  37.776  1.00  0.00     0.001 A 
HETATM   17  C12 UNK     1      18.310  -1.178  36.562  1.00  0.00     0.014 A 
ENDBRANCH   5  12
BRANCH   7  18
HETATM   18  O3  UNK     1      21.100  -3.088  30.153  1.00  0.00    -0.360 OA
HETATM   19  H9  UNK     1      22.044  -2.912  30.020  1.00  0.00     0.217 HD
ENDBRANCH   7  18
BRANCH  10  20
HETATM   20  O2  UNK     1      19.219   0.954  28.517  1.00  0.00    -0.356 OA
HETATM   21  C16 UNK     1      18.017   1.721  28.579  1.00  0.00     0.210 C 
ENDBRANCH  10  20
TORSDOF 3
ENDMDL
MODEL 3
REMARK VINA RESULT:      -8.1      1.320      3.439
REMARK  3 active torsions:
REMARK  status: ('A' for Active; 'I' for Inactive)
REMARK    1  A    between atoms: C9_13  and  O2_2 
REMARK    2  A    between atoms: C5_9  and  O3_3 
REMARK    3  A    between atoms: C3_7  and  C7_11 
ROOT
HETATM    1  O1  UNK     1      19.796  -1.726  33.597  1.00  0.00    -0.309 OA
HETATM    2  O4  UNK     1      17.090   0.820  35.269  1.00  0.00    -0.287 OA
HETATM    3  C1  UNK     1      18.572  -0.996  35.564  1.00  0.00     0.081 A 
HETATM    4  C2  UNK     1      19.489  -1.832  34.930  1.00  0.00     0.095 A 
HETATM    5  C3  UNK     1      19.159  -0.747  32.849  1.00  0.00     0.090 A 
HETATM    6  C4  UNK     1      17.902   0.050  34.777  1.00  0.00     0.190 A 
HETATM    7  C5  UNK     1      18.300  -1.149  36.926  1.00  0.00     0.085 A 
HETATM    8  C6  UNK     1      20.140  -2.831  35.654  1.00  0.00     0.075 A 
HETATM    9  C8  UNK     1      18.264   0.122  33.345  1.00  0.00     0.094 A 
HETATM   10  C9  UNK     1      19.870  -2.988  37.015  1.00  0.00     0.073 A 
HETATM   11  C10 UNK     1      18.953  -2.149  37.649  1.00  0.00     0.074 A 
ENDROOT
BRANCH   5  12
HETATM   12  C7  UNK     1      19.565  -0.716  31.430  1.00  0.00    -0.002 A 
HETATM   13  C11 UNK     1      20.120  -1.851  30.833  1.00  0.00     0.014 A 
HETATM   14  C13 UNK     1      20.503  -1.822  29.492  1.00  0.00     0.001 A 
HETATM   15  C15 UNK     1      20.333  -0.658  28.743  1.00  0.00     0.000 A 
HETATM   16  C14 UNK     1      19.779   0.478  29.335  1.00  0.00     0.001 A 
HETATM   17  C12 UNK     1      19.396   0.449  30.676  1.00  0.00     0.014 A 
ENDBRANCH   5  12
BRANCH   7  18
HETATM   18  O3  UNK     1      17.413  -0.358  37.591  1.00  0.00    -0.360 OA
HETATM   19  H9  UNK     1      17.686  -0.244  38.515  1.00  0.00     0.217 HD
ENDBRANCH   7  18
BRANCH  10  20
HETATM   20  O2  UNK     1      20.505  -3.961  37.725  1.00  0.00    -0.356 OA
HETATM   21  C16 UNK     1      20.393  -5.298  37.239  1.00  0.00     0.210 C 
ENDBRANCH  10  20
TORSDOF 3
ENDMDL
MODEL 4
REMARK VINA RESULT:      -7.9     25.766     27.526
REMARK  3 active torsions:
REMARK  status: ('A' for Active; 'I' for Inactive)
REMARK    1  A    between atoms: C9_13  and  O2_2 
REMARK    2  A    between atoms: C5_9  and  O3_3 
REMARK    3  A    between atoms: C3_7  and  C7_11 
ROOT
HETATM    1  O1  UNK     1      13.198   7.880   8.519  1.00  0.00    -0.309 OA
HETATM    2  O4  UNK     1      15.747   4.817   9.365  1.00  0.00    -0.287 OA
HETATM    3  C1  UNK     1      15.339   7.143   9.400  1.00  0.00     0.081 A 
HETATM    4  C2  UNK     1      14.419   8.143   9.087  1.00  0.00     0.095 A 
HETATM    5  C3  UNK     1      12.870   6.562   8.239  1.00  0.00     0.090 A 
HETATM    6  C4  UNK     1      14.990   5.744   9.114  1.00  0.00     0.190 A 
HETATM    7  C5  UNK     1      16.567   7.470   9.979  1.00  0.00     0.085 A 
HETATM    8  C6  UNK     1      14.723   9.478   9.349  1.00  0.00     0.075 A 
HETATM    9  C8  UNK     1      13.666   5.513   8.500  1.00  0.00     0.094 A 
HETATM   10  C9  UNK     1      15.950   9.809   9.927  1.00  0.00     0.073 A 
HETATM   11  C10 UNK     1      16.870   8.807  10.241  1.00  0.00     0.074 A 
ENDROOT
BRANCH   5  12
HETATM   12  C7  UNK     1      11.534   6.391   7.635  1.00  0.00    -0.002 A 
HETATM   13  C11 UNK     1      10.401   6.311   8.448  1.00  0.00     0.014 A 
HETATM   14  C13 UNK     1       9.137   6.150   7.877  1.00  0.00     0.001 A 
HETATM   15  C15 UNK     1       9.004   6.069   6.491  1.00  0.00     0.000 A 
HETATM   16  C14 UNK     1      10.134   6.149   5.675  1.00  0.00     0.001 A 
HETATM   17  C12 UNK     1      11.396   6.310   6.246  1.00  0.00     0.014 A 
ENDBRANCH   5  12
BRANCH   7  18
HETATM   18  O3  UNK     1      17.499   6.530  10.303  1.00  0.00    -0.360 OA
HETATM   19  H9  UNK     1      17.201   5.648  10.032  1.00  0.00     0.217 HD
ENDBRANCH   7  18
BRANCH  10  20
HETATM   20  O2  UNK     1      16.250  11.111  10.187  1.00  0.00    -0.356 OA
HETATM   21  C16 UNK     1      17.628  11.439  10.358  1.00  0.00     0.210 C 
ENDBRANCH  10  20
TORSDOF 3
ENDMDL
MODEL 5
REMARK VINA RESULT:      -7.8      2.522      7.231
REMARK  3 active torsions:
REMARK  status: ('A' for Active; 'I' for Inactive)
REMARK    1  A    between atoms: C9_13  and  O2_2 
REMARK    2  A    between atoms: C5_9  and  O3_3 
REMARK    3  A    between atoms: C3_7  and  C7_11 
ROOT
HETATM    1  O1  UNK     1      18.822   0.304  33.272  1.00  0.00    -0.309 OA
HETATM    2  O4  UNK     1      17.812   4.003  31.895  1.00  0.00    -0.287 OA
HETATM    3  C1  UNK     1      18.690   1.863  31.414  1.00  0.00     0.081 A 
HETATM    4  C2  UNK     1      19.012   0.617  31.950  1.00  0.00     0.095 A 
HETATM    5  C3  UNK     1      18.292   1.273  34.111  1.00  0.00     0.090 A 
HETATM    6  C4  UNK     1      18.120   2.890  32.298  1.00  0.00     0.190 A 
HETATM    7  C5  UNK     1      18.904   2.126  30.059  1.00  0.00     0.085 A 
HETATM    8  C6  UNK     1      19.553  -0.376  31.133  1.00  0.00     0.075 A 
HETATM    9  C8  UNK     1      17.937   2.505  33.714  1.00  0.00     0.094 A 
HETATM   10  C9  UNK     1      19.769  -0.117  29.779  1.00  0.00     0.073 A 
HETATM   11  C10 UNK     1      19.445   1.131  29.243  1.00  0.00     0.074 A 
ENDROOT
BRANCH   5  12
HETATM   12  C7  UNK     1      18.124   0.830  35.509  1.00  0.00    -0.002 A 
HETATM   13  C11 UNK     1      17.779   1.751  36.501  1.00  0.00     0.014 A 
HETATM   14  C13 UNK     1      17.619   1.332  37.823  1.00  0.00     0.001 A 
HETATM   15  C15 UNK     1      17.804  -0.010  38.156  1.00  0.00     0.000 A 
HETATM   16  C14 UNK     1      18.149  -0.933  37.168  1.00  0.00     0.001 A 
HETATM   17  C12 UNK     1      18.308  -0.514  35.847  1.00  0.00     0.014 A 
ENDBRANCH   5  12
BRANCH   7  18
HETATM   18  O3  UNK     1      18.607   3.326  29.488  1.00  0.00    -0.360 OA
HETATM   19  H9  UNK     1      17.861   3.234  28.874  1.00  0.00     0.217 HD
ENDBRANCH   7  18
BRANCH  10  20
HETATM   20  O2  UNK     1      20.295  -1.084  28.978  1.00  0.00    -0.356 OA
HETATM   21  C16 UNK     1      20.652  -2.318  29.599  1.00  0.00     0.210 C 
ENDBRANCH  10  20
TORSDOF 3
ENDMDL
MODEL 6
REMARK VINA RESULT:      -7.8     25.244     28.148
REMARK  3 active torsions:
REMARK  status: ('A' for Active; 'I' for Inactive)
REMARK    1  A    between atoms: C9_13  and  O2_2 
REMARK    2  A    between atoms: C5_9  and  O3_3 
REMARK    3  A    between atoms: C3_7  and  C7_11 
ROOT
HETATM    1  O1  UNK     1      11.476   7.529   9.445  1.00  0.00    -0.309 OA
HETATM    2  O4  UNK     1      12.219   6.266   5.644  1.00  0.00    -0.287 OA
HETATM    3  C1  UNK     1      10.615   6.795   7.296  1.00  0.00     0.081 A 
HETATM    4  C2  UNK     1      10.431   7.233   8.606  1.00  0.00     0.095 A 
HETATM    5  C3  UNK     1      12.769   7.378   8.968  1.00  0.00     0.090 A 
HETATM    6  C4  UNK     1      11.985   6.643   6.784  1.00  0.00     0.190 A 
HETATM    7  C5  UNK     1       9.514   6.509   6.486  1.00  0.00     0.085 A 
HETATM    8  C6  UNK     1       9.143   7.387   9.116  1.00  0.00     0.075 A 
HETATM    9  C8  UNK     1      13.075   6.971   7.726  1.00  0.00     0.094 A 
HETATM   10  C9  UNK     1       8.039   7.102   8.310  1.00  0.00     0.073 A 
HETATM   11  C10 UNK     1       8.225   6.664   6.998  1.00  0.00     0.074 A 
ENDROOT
BRANCH   5  12
HETATM   12  C7  UNK     1      13.815   7.728   9.950  1.00  0.00    -0.002 A 
HETATM   13  C11 UNK     1      13.572   8.707  10.917  1.00  0.00     0.014 A 
HETATM   14  C13 UNK     1      14.561   9.037  11.844  1.00  0.00     0.001 A 
HETATM   15  C15 UNK     1      15.796   8.390  11.808  1.00  0.00     0.000 A 
HETATM   16  C14 UNK     1      16.042   7.411  10.844  1.00  0.00     0.001 A 
HETATM   17  C12 UNK     1      15.054   7.081   9.916  1.00  0.00     0.014 A 
ENDBRANCH   5  12
BRANCH   7  18
HETATM   18  O3  UNK     1       9.640   6.078   5.200  1.00  0.00    -0.360 OA
HETATM   19  H9  UNK     1       8.840   6.286   4.692  1.00  0.00     0.217 HD
ENDBRANCH   7  18
BRANCH  10  20
HETATM   20  O2  UNK     1       6.780   7.253   8.805  1.00  0.00    -0.356 OA
HETATM   21  C16 UNK     1       6.661   7.621  10.178  1.00  0.00     0.210 C 
ENDBRANCH  10  20
TORSDOF 3
ENDMDL
MODEL 7
REMARK VINA RESULT:      -7.8      2.551      6.669
REMARK  3 active torsions:
REMARK  status: ('A' for Active; 'I' for Inactive)
REMARK    1  A    between atoms: C9_13  and  O2_2 
REMARK    2  A    between atoms: C5_9  and  O3_3 
REMARK    3  A    between atoms: C3_7  and  C7_11 
ROOT
HETATM    1  O1  UNK     1      18.352   1.330  33.152  1.00  0.00    -0.309 OA
HETATM    2  O4  UNK     1      19.649  -2.087  31.354  1.00  0.00    -0.287 OA
HETATM    3  C1  UNK     1      19.077   0.194  31.131  1.00  0.00     0.081 A 
HETATM    4  C2  UNK     1      18.632   1.328  31.808  1.00  0.00     0.095 A 
HETATM    5  C3  UNK     1      18.514   0.150  33.862  1.00  0.00     0.090 A 
HETATM    6  C4  UNK     1      19.259  -1.056  31.883  1.00  0.00     0.190 A 
HETATM    7  C5  UNK     1      19.348   0.250  29.762  1.00  0.00     0.085 A 
HETATM    8  C6  UNK     1      18.452   2.527  31.120  1.00  0.00     0.075 A 
HETATM    9  C8  UNK     1      18.942  -1.003  33.326  1.00  0.00     0.094 A 
HETATM   10  C9  UNK     1      18.721   2.587  29.751  1.00  0.00     0.073 A 
HETATM   11  C10 UNK     1      19.168   1.451  29.074  1.00  0.00     0.074 A 
ENDROOT
BRANCH   5  12
HETATM   12  C7  UNK     1      18.191   0.266  35.299  1.00  0.00    -0.002 A 
HETATM   13  C11 UNK     1      17.885  -0.876  36.043  1.00  0.00     0.014 A 
HETATM   14  C13 UNK     1      17.581  -0.767  37.401  1.00  0.00     0.001 A 
HETATM   15  C15 UNK     1      17.582   0.484  38.018  1.00  0.00     0.000 A 
HETATM   16  C14 UNK     1      17.888   1.627  37.277  1.00  0.00     0.001 A 
HETATM   17  C12 UNK     1      18.192   1.518  35.920  1.00  0.00     0.014 A 
ENDBRANCH   5  12
BRANCH   7  18
HETATM   18  O3  UNK     1      19.785  -0.829  29.055  1.00  0.00    -0.360 OA
HETATM   19  H9  UNK     1      19.848  -0.614  28.111  1.00  0.00     0.217 HD
ENDBRANCH   7  18
BRANCH  10  20
HETATM   20  O2  UNK     1      18.548   3.757  29.076  1.00  0.00    -0.356 OA
HETATM   21  C16 UNK     1      18.972   4.952  29.730  1.00  0.00     0.210 C 
ENDBRANCH  10  20
TORSDOF 3
ENDMDL
MODEL 8
REMARK VINA RESULT:      -7.8      4.707      6.340
REMARK  3 active torsions:
REMARK  status: ('A' for Active; 'I' for Inactive)
REMARK    1  A    between atoms: C9_13  and  O2_2 
REMARK    2  A    between atoms: C5_9  and  O3_3 
REMARK    3  A    between atoms: C3_7  and  C7_11 
ROOT
HETATM    1  O1  UNK     1      18.291   3.617  34.311  1.00  0.00    -0.309 OA
HETATM    2  O4  UNK     1      18.346   1.574  30.786  1.00  0.00    -0.287 OA
HETATM    3  C1  UNK     1      18.343   1.485  33.147  1.00  0.00     0.081 A 
HETATM    4  C2  UNK     1      18.321   2.245  34.316  1.00  0.00     0.095 A 
HETATM    5  C3  UNK     1      18.290   4.273  33.089  1.00  0.00     0.090 A 
HETATM    6  C4  UNK     1      18.331   2.177  31.850  1.00  0.00     0.190 A 
HETATM    7  C5  UNK     1      18.371   0.090  33.212  1.00  0.00     0.085 A 
HETATM    8  C6  UNK     1      18.329   1.614  35.559  1.00  0.00     0.075 A 
HETATM    9  C8  UNK     1      18.302   3.654  31.898  1.00  0.00     0.094 A 
HETATM   10  C9  UNK     1      18.358   0.220  35.629  1.00  0.00     0.073 A 
HETATM   11  C10 UNK     1      18.379  -0.540  34.458  1.00  0.00     0.074 A 
ENDROOT
BRANCH   5  12
HETATM   12  C7  UNK     1      18.251   5.745  33.199  1.00  0.00    -0.002 A 
HETATM   13  C11 UNK     1      17.153   6.457  32.710  1.00  0.00     0.014 A 
HETATM   14  C13 UNK     1      17.117   7.849  32.814  1.00  0.00     0.001 A 
HETATM   15  C15 UNK     1      18.178   8.531  33.409  1.00  0.00     0.000 A 
HETATM   16  C14 UNK     1      19.276   7.823  33.899  1.00  0.00     0.001 A 
HETATM   17  C12 UNK     1      19.313   6.433  33.795  1.00  0.00     0.014 A 
ENDBRANCH   5  12
BRANCH   7  18
HETATM   18  O3  UNK     1      18.393  -0.696  32.101  1.00  0.00    -0.360 OA
HETATM   19  H9  UNK     1      19.048  -1.406  32.199  1.00  0.00     0.217 HD
ENDBRANCH   7  18
BRANCH  10  20
HETATM   20  O2  UNK     1      18.365  -0.400  36.841  1.00  0.00    -0.356 OA
HETATM   21  C16 UNK     1      17.978  -1.773  36.870  1.00  0.00     0.210 C 
ENDBRANCH  10  20
TORSDOF 3
ENDMDL
MODEL 9
REMARK VINA RESULT:      -7.8     25.569     28.342
REMARK  3 active torsions:
REMARK  status: ('A' for Active; 'I' for Inactive)
REMARK    1  A    between atoms: C9_13  and  O2_2 
REMARK    2  A    between atoms: C5_9  and  O3_3 
REMARK    3  A    between atoms: C3_7  and  C7_11 
ROOT
HETATM    1  O1  UNK     1       9.687   5.809   9.776  1.00  0.00    -0.309 OA
HETATM    2  O4  UNK     1       9.274   6.599   5.801  1.00  0.00    -0.287 OA
HETATM    3  C1  UNK     1      10.709   6.003   7.581  1.00  0.00     0.081 A 
HETATM    4  C2  UNK     1      10.780   5.744   8.949  1.00  0.00     0.095 A 
HETATM    5  C3  UNK     1       8.462   6.155   9.226  1.00  0.00     0.090 A 
HETATM    6  C4  UNK     1       9.410   6.361   6.993  1.00  0.00     0.190 A 
HETATM    7  C5  UNK     1      11.854   5.920   6.786  1.00  0.00     0.085 A 
HETATM    8  C6  UNK     1      11.999   5.400   9.532  1.00  0.00     0.075 A 
HETATM    9  C8  UNK     1       8.265   6.421   7.925  1.00  0.00     0.094 A 
HETATM   10  C9  UNK     1      13.147   5.317   8.741  1.00  0.00     0.073 A 
HETATM   11  C10 UNK     1      13.074   5.576   7.372  1.00  0.00     0.074 A 
ENDROOT
BRANCH   5  12
HETATM   12  C7  UNK     1       7.355   6.190  10.202  1.00  0.00    -0.002 A 
HETATM   13  C11 UNK     1       7.220   5.171  11.149  1.00  0.00     0.014 A 
HETATM   14  C13 UNK     1       6.173   5.205  12.071  1.00  0.00     0.001 A 
HETATM   15  C15 UNK     1       5.259   6.258  12.050  1.00  0.00     0.000 A 
HETATM   16  C14 UNK     1       5.391   7.278  11.107  1.00  0.00     0.001 A 
HETATM   17  C12 UNK     1       6.437   7.244  10.184  1.00  0.00     0.014 A 
ENDBRANCH   5  12
BRANCH   7  18
HETATM   18  O3  UNK     1      11.838   6.164   5.446  1.00  0.00    -0.360 OA
HETATM   19  H9  UNK     1      12.569   6.752   5.199  1.00  0.00     0.217 HD
ENDBRANCH   7  18
BRANCH  10  20
HETATM   20  O2  UNK     1      14.338   4.980   9.307  1.00  0.00    -0.356 OA
HETATM   21  C16 UNK     1      14.924   5.927  10.200  1.00  0.00     0.210 C 
ENDBRANCH  10  20
TORSDOF 3
ENDMDL
MODEL 10
REMARK VINA RESULT:      -7.8      2.945      7.366
REMARK  3 active torsions:
REMARK  status: ('A' for Active; 'I' for Inactive)
REMARK    1  A    between atoms: C9_13  and  O2_2 
REMARK    2  A    between atoms: C5_9  and  O3_3 
REMARK    3  A    between atoms: C3_7  and  C7_11 
ROOT
HETATM    1  O1  UNK     1      18.511   0.819  33.156  1.00  0.00    -0.309 OA
HETATM    2  O4  UNK     1      18.129   4.874  33.093  1.00  0.00    -0.287 OA
HETATM    3  C1  UNK     1      18.498   2.883  31.876  1.00  0.00     0.081 A 
HETATM    4  C2  UNK     1      18.616   1.498  31.969  1.00  0.00     0.095 A 
HETATM    5  C3  UNK     1      18.284   1.546  34.315  1.00  0.00     0.090 A 
HETATM    6  C4  UNK     1      18.247   3.657  33.101  1.00  0.00     0.190 A 
HETATM    7  C5  UNK     1      18.612   3.521  30.639  1.00  0.00     0.085 A 
HETATM    8  C6  UNK     1      18.852   0.739  30.822  1.00  0.00     0.075 A 
HETATM    9  C8  UNK     1      18.144   2.881  34.355  1.00  0.00     0.094 A 
HETATM   10  C9  UNK     1      18.968   1.373  29.584  1.00  0.00     0.073 A 
HETATM   11  C10 UNK     1      18.848   2.761  29.493  1.00  0.00     0.074 A 
ENDROOT
BRANCH   5  12
HETATM   12  C7  UNK     1      18.182   0.719  35.534  1.00  0.00    -0.002 A 
HETATM   13  C11 UNK     1      18.493  -0.642  35.486  1.00  0.00     0.014 A 
HETATM   14  C13 UNK     1      18.397  -1.424  36.639  1.00  0.00     0.001 A 
HETATM   15  C15 UNK     1      17.991  -0.847  37.841  1.00  0.00     0.000 A 
HETATM   16  C14 UNK     1      17.679   0.513  37.892  1.00  0.00     0.001 A 
HETATM   17  C12 UNK     1      17.775   1.294  36.741  1.00  0.00     0.014 A 
ENDBRANCH   5  12
BRANCH   7  18
HETATM   18  O3  UNK     1      18.504   4.871  30.496  1.00  0.00    -0.360 OA
HETATM   19  H9  UNK     1      19.253   5.220  29.987  1.00  0.00     0.217 HD
ENDBRANCH   7  18
BRANCH  10  20
HETATM   20  O2  UNK     1      19.197   0.636  28.462  1.00  0.00    -0.356 OA
HETATM   21  C16 UNK     1      19.943  -0.570  28.619  1.00  0.00     0.210 C 
ENDBRANCH  10  20
TORSDOF 3
ENDMDL
