MODEL 1
REMARK VINA RESULT:      -8.6      0.000      0.000
REMARK  5 active torsions:
REMARK  status: ('A' for Active; 'I' for Inactive)
REMARK    1  A    between atoms: C10_18  and  O1_2 
REMARK    2  A    between atoms: C2_10  and  N1_7 
REMARK    3  A    between atoms: C7_15  and  N2_8 
REMARK    4  A    between atoms: C1_9  and  C3_11 
REMARK    5  A    between atoms: C4_12  and  C8_16 
ROOT
HETATM    1  C1  UNK     1      18.620   5.147  31.741  1.00  0.00    -0.003 A 
HETATM    2  C2  UNK     1      19.499   6.179  32.070  1.00  0.00     0.115 A 
HETATM    3  C5  UNK     1      17.270   5.247  32.076  1.00  0.00     0.016 A 
HETATM    4  C6  UNK     1      19.026   7.311  32.734  1.00  0.00     0.073 A 
HETATM    5  C7  UNK     1      17.676   7.412  33.068  1.00  0.00     0.105 A 
HETATM    6  C9  UNK     1      16.797   6.379  32.740  1.00  0.00     0.037 A 
ENDROOT
BRANCH   1   7
HETATM    7  C3  UNK     1      19.071   3.946  31.047  1.00  0.00     0.015 C 
HETATM    8  C8  UNK     1      18.389   2.780  30.990  1.00  0.00     0.015 C 
BRANCH   8   9
HETATM    9  C4  UNK     1      18.837   1.572  30.272  1.00  0.00    -0.001 A 
HETATM   10  C10 UNK     1      18.557   1.414  28.925  1.00  0.00     0.076 A 
HETATM   11  C12 UNK     1      18.989   0.263  28.266  1.00  0.00     0.039 A 
HETATM   12  C14 UNK     1      19.696  -0.717  28.965  1.00  0.00     0.026 A 
HETATM   13  C13 UNK     1      19.970  -0.545  30.322  1.00  0.00     0.035 A 
HETATM   14  C11 UNK     1      19.538   0.607  30.979  1.00  0.00     0.038 A 
HETATM   15 Cl1  UNK     1      20.840  -1.755  31.182  1.00  0.00    -0.084 Cl
BRANCH  10  16
HETATM   16  O1  UNK     1      17.868   2.355  28.218  1.00  0.00    -0.360 OA
HETATM   17  H9  UNK     1      17.911   3.218  28.660  1.00  0.00     0.217 HD
ENDBRANCH  10  16
ENDBRANCH   8   9
ENDBRANCH   1   7
BRANCH   2  18
HETATM   18  N1  UNK     1      20.883   6.108  31.744  1.00  0.00    -0.115 N 
HETATM   19  O2  UNK     1      21.726   6.201  32.665  1.00  0.00    -0.532 OA
HETATM   20  O3  UNK     1      21.213   5.954  30.544  1.00  0.00    -0.532 OA
ENDBRANCH   2  18
BRANCH   5  21
HETATM   21  N2  UNK     1      17.195   8.564  33.744  1.00  0.00    -0.116 N 
HETATM   22  O4  UNK     1      17.150   9.656  33.128  1.00  0.00    -0.532 OA
HETATM   23  O5  UNK     1      16.827   8.458  34.940  1.00  0.00    -0.532 OA
ENDBRANCH   5  21
TORSDOF 5
ENDMDL
MODEL 2
REMARK VINA RESULT:      -8.5      8.486      9.879
REMARK  5 active torsions:
REMARK  status: ('A' for Active; 'I' for Inactive)
REMARK    1  A    between atoms: C10_18  and  O1_2 
REMARK    2  A    between atoms: C2_10  and  N1_7 
REMARK    3  A    between atoms: C7_15  and  N2_8 
REMARK    4  A    between atoms: C1_9  and  C3_11 
REMARK    5  A    between atoms: C4_12  and  C8_16 
ROOT
HETATM    1  C1  UNK     1      18.995  -2.321  36.467  1.00  0.00    -0.003 A 
HETATM    2  C2  UNK     1      19.489  -1.845  35.252  1.00  0.00     0.115 A 
HETATM    3  C5  UNK     1      17.815  -1.797  36.993  1.00  0.00     0.016 A 
HETATM    4  C6  UNK     1      18.801  -0.845  34.564  1.00  0.00     0.073 A 
HETATM    5  C7  UNK     1      17.620  -0.322  35.089  1.00  0.00     0.105 A 
HETATM    6  C9  UNK     1      17.127  -0.797  36.305  1.00  0.00     0.037 A 
ENDROOT
BRANCH   1   7
HETATM    7  C3  UNK     1      19.681  -3.365  37.219  1.00  0.00     0.015 C 
HETATM    8  C8  UNK     1      19.418  -4.687  37.130  1.00  0.00     0.015 C 
BRANCH   8   9
HETATM    9  C4  UNK     1      20.126  -5.743  37.877  1.00  0.00    -0.001 A 
HETATM   10  C10 UNK     1      19.452  -6.877  38.298  1.00  0.00     0.076 A 
HETATM   11  C12 UNK     1      20.141  -7.862  39.004  1.00  0.00     0.039 A 
HETATM   12  C14 UNK     1      21.500  -7.700  39.281  1.00  0.00     0.026 A 
HETATM   13  C13 UNK     1      22.167  -6.553  38.851  1.00  0.00     0.035 A 
HETATM   14  C11 UNK     1      21.476  -5.569  38.145  1.00  0.00     0.038 A 
HETATM   15 Cl1  UNK     1      23.841  -6.354  39.195  1.00  0.00    -0.084 Cl
BRANCH  10  16
HETATM   16  O1  UNK     1      18.124  -7.061  38.042  1.00  0.00    -0.360 OA
HETATM   17  H9  UNK     1      17.579  -6.592  38.694  1.00  0.00     0.217 HD
ENDBRANCH  10  16
ENDBRANCH   8   9
ENDBRANCH   1   7
BRANCH   2  18
HETATM   18  N1  UNK     1      20.691  -2.358  34.687  1.00  0.00    -0.115 N 
HETATM   19  O2  UNK     1      21.789  -1.922  35.105  1.00  0.00    -0.532 OA
HETATM   20  O3  UNK     1      20.613  -3.230  33.791  1.00  0.00    -0.532 OA
ENDBRANCH   2  18
BRANCH   5  21
HETATM   21  N2  UNK     1      16.921   0.696  34.390  1.00  0.00    -0.116 N 
HETATM   22  O4  UNK     1      17.575   1.551  33.744  1.00  0.00    -0.532 OA
HETATM   23  O5  UNK     1      15.666   0.714  34.436  1.00  0.00    -0.532 OA
ENDBRANCH   5  21
TORSDOF 5
ENDMDL
MODEL 3
REMARK VINA RESULT:      -8.3     12.631     15.547
REMARK  5 active torsions:
REMARK  status: ('A' for Active; 'I' for Inactive)
REMARK    1  A    between atoms: C10_18  and  O1_2 
REMARK    2  A    between atoms: C2_10  and  N1_7 
REMARK    3  A    between atoms: C7_15  and  N2_8 
REMARK    4  A    between atoms: C1_9  and  C3_11 
REMARK    5  A    between atoms: C4_12  and  C8_16 
ROOT
HETATM    1  C1  UNK     1      19.040  -0.004  17.694  1.00  0.00    -0.003 A 
HETATM    2  C2  UNK     1      19.263   1.370  17.604  1.00  0.00     0.115 A 
HETATM    3  C5  UNK     1      19.029  -0.629  18.940  1.00  0.00     0.016 A 
HETATM    4  C6  UNK     1      19.475   2.119  18.762  1.00  0.00     0.073 A 
HETATM    5  C7  UNK     1      19.464   1.494  20.009  1.00  0.00     0.105 A 
HETATM    6  C9  UNK     1      19.241   0.120  20.099  1.00  0.00     0.037 A 
ENDROOT
BRANCH   1   7
HETATM    7  C3  UNK     1      18.813  -0.825  16.509  1.00  0.00     0.015 C 
HETATM    8  C8  UNK     1      19.456  -1.980  16.231  1.00  0.00     0.015 C 
BRANCH   8   9
HETATM    9  C4  UNK     1      19.213  -2.819  15.043  1.00  0.00    -0.001 A 
HETATM   10  C10 UNK     1      19.649  -2.410  13.794  1.00  0.00     0.076 A 
HETATM   11  C12 UNK     1      19.406  -3.219  12.684  1.00  0.00     0.039 A 
HETATM   12  C14 UNK     1      18.727  -4.428  12.838  1.00  0.00     0.026 A 
HETATM   13  C13 UNK     1      18.292  -4.828  14.101  1.00  0.00     0.035 A 
HETATM   14  C11 UNK     1      18.536  -4.018  15.211  1.00  0.00     0.038 A 
HETATM   15 Cl1  UNK     1      17.453  -6.318  14.288  1.00  0.00    -0.084 Cl
BRANCH  10  16
HETATM   16  O1  UNK     1      20.315  -1.233  13.615  1.00  0.00    -0.360 OA
HETATM   17  H9  UNK     1      21.268  -1.387  13.511  1.00  0.00     0.217 HD
ENDBRANCH  10  16
ENDBRANCH   8   9
ENDBRANCH   1   7
BRANCH   2  18
HETATM   18  N1  UNK     1      19.281   2.039  16.348  1.00  0.00    -0.115 N 
HETATM   19  O2  UNK     1      18.559   3.051  16.192  1.00  0.00    -0.532 OA
HETATM   20  O3  UNK     1      20.020   1.596  15.437  1.00  0.00    -0.532 OA
ENDBRANCH   2  18
BRANCH   5  21
HETATM   21  N2  UNK     1      19.680   2.255  21.188  1.00  0.00    -0.116 N 
HETATM   22  O4  UNK     1      20.857   2.448  21.579  1.00  0.00    -0.532 OA
HETATM   23  O5  UNK     1      18.689   2.713  21.806  1.00  0.00    -0.532 OA
ENDBRANCH   5  21
TORSDOF 5
ENDMDL
MODEL 4
REMARK VINA RESULT:      -8.2      3.990      7.823
REMARK  5 active torsions:
REMARK  status: ('A' for Active; 'I' for Inactive)
REMARK    1  A    between atoms: C10_18  and  O1_2 
REMARK    2  A    between atoms: C2_10  and  N1_7 
REMARK    3  A    between atoms: C7_15  and  N2_8 
REMARK    4  A    between atoms: C1_9  and  C3_11 
REMARK    5  A    between atoms: C4_12  and  C8_16 
ROOT
HETATM    1  C1  UNK     1      18.407   2.789  31.568  1.00  0.00    -0.003 A 
HETATM    2  C2  UNK     1      18.520   1.572  32.241  1.00  0.00     0.115 A 
HETATM    3  C5  UNK     1      18.773   2.880  30.226  1.00  0.00     0.016 A 
HETATM    4  C6  UNK     1      18.997   0.446  31.569  1.00  0.00     0.073 A 
HETATM    5  C7  UNK     1      19.362   0.537  30.226  1.00  0.00     0.105 A 
HETATM    6  C9  UNK     1      19.250   1.755  29.554  1.00  0.00     0.037 A 
ENDROOT
BRANCH   1   7
HETATM    7  C3  UNK     1      17.912   3.990  32.232  1.00  0.00     0.015 C 
HETATM    8  C8  UNK     1      18.593   5.152  32.342  1.00  0.00     0.015 C 
BRANCH   8   9
HETATM    9  C4  UNK     1      18.084   6.372  32.996  1.00  0.00    -0.001 A 
HETATM   10  C10 UNK     1      18.962   7.344  33.448  1.00  0.00     0.076 A 
HETATM   11  C12 UNK     1      18.458   8.489  34.065  1.00  0.00     0.039 A 
HETATM   12  C14 UNK     1      17.080   8.647  34.222  1.00  0.00     0.026 A 
HETATM   13  C13 UNK     1      16.208   7.661  33.762  1.00  0.00     0.035 A 
HETATM   14  C11 UNK     1      16.713   6.516  33.145  1.00  0.00     0.038 A 
HETATM   15 Cl1  UNK     1      14.510   7.857  33.959  1.00  0.00    -0.084 Cl
BRANCH  10  16
HETATM   16  O1  UNK     1      20.313   7.214  33.308  1.00  0.00    -0.360 OA
HETATM   17  H9  UNK     1      20.779   7.649  34.040  1.00  0.00     0.217 HD
ENDBRANCH  10  16
ENDBRANCH   8   9
ENDBRANCH   1   7
BRANCH   2  18
HETATM   18  N1  UNK     1      18.156   1.444  33.611  1.00  0.00    -0.115 N 
HETATM   19  O2  UNK     1      19.025   1.651  34.489  1.00  0.00    -0.532 OA
HETATM   20  O3  UNK     1      16.976   1.130  33.896  1.00  0.00    -0.532 OA
ENDBRANCH   2  18
BRANCH   5  21
HETATM   21  N2  UNK     1      19.849  -0.607  29.542  1.00  0.00    -0.116 N 
HETATM   22  O4  UNK     1      20.173  -1.621  30.207  1.00  0.00    -0.532 OA
HETATM   23  O5  UNK     1      19.943  -0.574  28.291  1.00  0.00    -0.532 OA
ENDBRANCH   5  21
TORSDOF 5
ENDMDL
MODEL 5
REMARK VINA RESULT:      -8.1     14.328     17.887
REMARK  5 active torsions:
REMARK  status: ('A' for Active; 'I' for Inactive)
REMARK    1  A    between atoms: C10_18  and  O1_2 
REMARK    2  A    between atoms: C2_10  and  N1_7 
REMARK    3  A    between atoms: C7_15  and  N2_8 
REMARK    4  A    between atoms: C1_9  and  C3_11 
REMARK    5  A    between atoms: C4_12  and  C8_16 
ROOT
HETATM    1  C1  UNK     1      19.131  -2.502  15.621  1.00  0.00    -0.003 A 
HETATM    2  C2  UNK     1      20.021  -3.171  14.779  1.00  0.00     0.115 A 
HETATM    3  C5  UNK     1      17.869  -3.039  15.869  1.00  0.00     0.016 A 
HETATM    4  C6  UNK     1      19.646  -4.377  14.187  1.00  0.00     0.073 A 
HETATM    5  C7  UNK     1      18.383  -4.915  14.436  1.00  0.00     0.105 A 
HETATM    6  C9  UNK     1      17.494  -4.246  15.277  1.00  0.00     0.037 A 
ENDROOT
BRANCH   1   7
HETATM    7  C3  UNK     1      19.482  -1.239  16.261  1.00  0.00     0.015 C 
HETATM    8  C8  UNK     1      18.629  -0.463  16.966  1.00  0.00     0.015 C 
BRANCH   8   9
HETATM    9  C4  UNK     1      18.989   0.804  17.629  1.00  0.00    -0.001 A 
HETATM   10  C10 UNK     1      19.223   1.946  16.880  1.00  0.00     0.076 A 
HETATM   11  C12 UNK     1      19.564   3.132  17.528  1.00  0.00     0.039 A 
HETATM   12  C14 UNK     1      19.669   3.162  18.920  1.00  0.00     0.026 A 
HETATM   13  C13 UNK     1      19.431   2.005  19.661  1.00  0.00     0.035 A 
HETATM   14  C11 UNK     1      19.090   0.818  19.012  1.00  0.00     0.038 A 
HETATM   15 Cl1  UNK     1      19.563   2.043  21.377  1.00  0.00    -0.084 Cl
BRANCH  10  16
HETATM   16  O1  UNK     1      19.128   1.945  15.519  1.00  0.00    -0.360 OA
HETATM   17  H9  UNK     1      18.534   1.240  15.215  1.00  0.00     0.217 HD
ENDBRANCH  10  16
ENDBRANCH   8   9
ENDBRANCH   1   7
BRANCH   2  18
HETATM   18  N1  UNK     1      21.317  -2.650  14.503  1.00  0.00    -0.115 N 
HETATM   19  O2  UNK     1      22.294  -3.087  15.154  1.00  0.00    -0.532 OA
HETATM   20  O3  UNK     1      21.439  -1.773  13.616  1.00  0.00    -0.532 OA
ENDBRANCH   2  18
BRANCH   5  21
HETATM   21  N2  UNK     1      18.001  -6.142  13.834  1.00  0.00    -0.116 N 
HETATM   22  O4  UNK     1      16.797  -6.323  13.534  1.00  0.00    -0.532 OA
HETATM   23  O5  UNK     1      18.879  -7.013  13.618  1.00  0.00    -0.532 OA
ENDBRANCH   5  21
TORSDOF 5
ENDMDL
MODEL 6
REMARK VINA RESULT:      -8.0     12.784     15.716
REMARK  5 active torsions:
REMARK  status: ('A' for Active; 'I' for Inactive)
REMARK    1  A    between atoms: C10_18  and  O1_2 
REMARK    2  A    between atoms: C2_10  and  N1_7 
REMARK    3  A    between atoms: C7_15  and  N2_8 
REMARK    4  A    between atoms: C1_9  and  C3_11 
REMARK    5  A    between atoms: C4_12  and  C8_16 
ROOT
HETATM    1  C1  UNK     1      19.062  -0.067  17.584  1.00  0.00    -0.003 A 
HETATM    2  C2  UNK     1      19.249   1.314  17.508  1.00  0.00     0.115 A 
HETATM    3  C5  UNK     1      19.053  -0.702  18.825  1.00  0.00     0.016 A 
HETATM    4  C6  UNK     1      19.426   2.058  18.675  1.00  0.00     0.073 A 
HETATM    5  C7  UNK     1      19.417   1.423  19.917  1.00  0.00     0.105 A 
HETATM    6  C9  UNK     1      19.231   0.042  19.992  1.00  0.00     0.037 A 
ENDROOT
BRANCH   1   7
HETATM    7  C3  UNK     1      18.872  -0.883  16.390  1.00  0.00     0.015 C 
HETATM    8  C8  UNK     1      19.423  -2.100  16.186  1.00  0.00     0.015 C 
BRANCH   8   9
HETATM    9  C4  UNK     1      19.215  -2.933  14.988  1.00  0.00    -0.001 A 
HETATM   10  C10 UNK     1      18.316  -3.987  15.013  1.00  0.00     0.076 A 
HETATM   11  C12 UNK     1      18.137  -4.762  13.868  1.00  0.00     0.039 A 
HETATM   12  C14 UNK     1      18.861  -4.474  12.710  1.00  0.00     0.026 A 
HETATM   13  C13 UNK     1      19.762  -3.410  12.698  1.00  0.00     0.035 A 
HETATM   14  C11 UNK     1      19.941  -2.635  13.844  1.00  0.00     0.038 A 
HETATM   15 Cl1  UNK     1      20.655  -3.058  11.270  1.00  0.00    -0.084 Cl
BRANCH  10  16
HETATM   16  O1  UNK     1      17.597  -4.291  16.131  1.00  0.00    -0.360 OA
HETATM   17  H9  UNK     1      16.782  -3.764  16.172  1.00  0.00     0.217 HD
ENDBRANCH  10  16
ENDBRANCH   8   9
ENDBRANCH   1   7
BRANCH   2  18
HETATM   18  N1  UNK     1      19.263   1.994  16.258  1.00  0.00    -0.115 N 
HETATM   19  O2  UNK     1      20.043   1.595  15.362  1.00  0.00    -0.532 OA
HETATM   20  O3  UNK     1      18.494   2.969  16.092  1.00  0.00    -0.532 OA
ENDBRANCH   2  18
BRANCH   5  21
HETATM   21  N2  UNK     1      19.598   2.179  21.104  1.00  0.00    -0.116 N 
HETATM   22  O4  UNK     1      20.761   2.354  21.542  1.00  0.00    -0.532 OA
HETATM   23  O5  UNK     1      18.590   2.653  21.683  1.00  0.00    -0.532 OA
ENDBRANCH   5  21
TORSDOF 5
ENDMDL
MODEL 7
REMARK VINA RESULT:      -7.9     22.447     24.201
REMARK  5 active torsions:
REMARK  status: ('A' for Active; 'I' for Inactive)
REMARK    1  A    between atoms: C10_18  and  O1_2 
REMARK    2  A    between atoms: C2_10  and  N1_7 
REMARK    3  A    between atoms: C7_15  and  N2_8 
REMARK    4  A    between atoms: C1_9  and  C3_11 
REMARK    5  A    between atoms: C4_12  and  C8_16 
ROOT
HETATM    1  C1  UNK     1      14.688   9.194   8.818  1.00  0.00    -0.003 A 
HETATM    2  C2  UNK     1      15.676   8.524   9.539  1.00  0.00     0.115 A 
HETATM    3  C5  UNK     1      14.979  10.409   8.198  1.00  0.00     0.016 A 
HETATM    4  C6  UNK     1      16.957   9.069   9.638  1.00  0.00     0.073 A 
HETATM    5  C7  UNK     1      17.249  10.283   9.017  1.00  0.00     0.105 A 
HETATM    6  C9  UNK     1      16.260  10.954   8.298  1.00  0.00     0.037 A 
ENDROOT
BRANCH   1   7
HETATM    7  C3  UNK     1      13.336   8.661   8.688  1.00  0.00     0.015 C 
HETATM    8  C8  UNK     1      12.909   7.863   7.684  1.00  0.00     0.015 C 
BRANCH   8   9
HETATM    9  C4  UNK     1      11.549   7.308   7.565  1.00  0.00    -0.001 A 
HETATM   10  C10 UNK     1      11.202   6.528   6.474  1.00  0.00     0.076 A 
HETATM   11  C12 UNK     1       9.908   6.016   6.381  1.00  0.00     0.039 A 
HETATM   12  C14 UNK     1       8.976   6.291   7.382  1.00  0.00     0.026 A 
HETATM   13  C13 UNK     1       9.338   7.077   8.475  1.00  0.00     0.035 A 
HETATM   14  C11 UNK     1      10.632   7.589   8.567  1.00  0.00     0.038 A 
HETATM   15 Cl1  UNK     1       8.186   7.417   9.707  1.00  0.00    -0.084 Cl
BRANCH  10  16
HETATM   16  O1  UNK     1      12.093   6.245   5.481  1.00  0.00    -0.360 OA
HETATM   17  H9  UNK     1      12.436   7.061   5.081  1.00  0.00     0.217 HD
ENDBRANCH  10  16
ENDBRANCH   8   9
ENDBRANCH   1   7
BRANCH   2  18
HETATM   18  N1  UNK     1      15.412   7.282  10.184  1.00  0.00    -0.115 N 
HETATM   19  O2  UNK     1      14.967   7.293  11.355  1.00  0.00    -0.532 OA
HETATM   20  O3  UNK     1      15.632   6.218   9.559  1.00  0.00    -0.532 OA
ENDBRANCH   2  18
BRANCH   5  21
HETATM   21  N2  UNK     1      18.551  10.838   9.119  1.00  0.00    -0.116 N 
HETATM   22  O4  UNK     1      19.219  11.018   8.072  1.00  0.00    -0.532 OA
HETATM   23  O5  UNK     1      18.999  11.134  10.253  1.00  0.00    -0.532 OA
ENDBRANCH   5  21
TORSDOF 5
ENDMDL
MODEL 8
REMARK VINA RESULT:      -7.9     13.980     18.024
REMARK  5 active torsions:
REMARK  status: ('A' for Active; 'I' for Inactive)
REMARK    1  A    between atoms: C10_18  and  O1_2 
REMARK    2  A    between atoms: C2_10  and  N1_7 
REMARK    3  A    between atoms: C7_15  and  N2_8 
REMARK    4  A    between atoms: C1_9  and  C3_11 
REMARK    5  A    between atoms: C4_12  and  C8_16 
ROOT
HETATM    1  C1  UNK     1      18.590  -2.429  15.438  1.00  0.00    -0.003 A 
HETATM    2  C2  UNK     1      19.058  -2.601  14.135  1.00  0.00     0.115 A 
HETATM    3  C5  UNK     1      17.895  -3.459  16.071  1.00  0.00     0.016 A 
HETATM    4  C6  UNK     1      18.832  -3.805  13.467  1.00  0.00     0.073 A 
HETATM    5  C7  UNK     1      18.139  -4.835  14.100  1.00  0.00     0.105 A 
HETATM    6  C9  UNK     1      17.670  -4.663  15.403  1.00  0.00     0.037 A 
ENDROOT
BRANCH   1   7
HETATM    7  C3  UNK     1      18.804  -1.188  16.174  1.00  0.00     0.015 C 
HETATM    8  C8  UNK     1      18.715  -1.056  17.516  1.00  0.00     0.015 C 
BRANCH   8   9
HETATM    9  C4  UNK     1      18.951   0.195  18.260  1.00  0.00    -0.001 A 
HETATM   10  C10 UNK     1      18.997   0.190  19.645  1.00  0.00     0.076 A 
HETATM   11  C12 UNK     1      19.220   1.385  20.328  1.00  0.00     0.039 A 
HETATM   12  C14 UNK     1      19.394   2.573  19.616  1.00  0.00     0.026 A 
HETATM   13  C13 UNK     1      19.346   2.564  18.222  1.00  0.00     0.035 A 
HETATM   14  C11 UNK     1      19.123   1.368  17.540  1.00  0.00     0.038 A 
HETATM   15 Cl1  UNK     1      19.558   4.030  17.347  1.00  0.00    -0.084 Cl
BRANCH  10  16
HETATM   16  O1  UNK     1      18.829  -0.957  20.365  1.00  0.00    -0.360 OA
HETATM   17  H9  UNK     1      19.488  -1.624  20.111  1.00  0.00     0.217 HD
ENDBRANCH  10  16
ENDBRANCH   8   9
ENDBRANCH   1   7
BRANCH   2  18
HETATM   18  N1  UNK     1      19.770  -1.570  13.460  1.00  0.00    -0.115 N 
HETATM   19  O2  UNK     1      21.019  -1.537  13.553  1.00  0.00    -0.532 OA
HETATM   20  O3  UNK     1      19.125  -0.728  12.792  1.00  0.00    -0.532 OA
ENDBRANCH   2  18
BRANCH   5  21
HETATM   21  N2  UNK     1      17.908  -6.060  13.420  1.00  0.00    -0.116 N 
HETATM   22  O4  UNK     1      17.677  -7.094  14.092  1.00  0.00    -0.532 OA
HETATM   23  O5  UNK     1      17.941  -6.074  12.166  1.00  0.00    -0.532 OA
ENDBRANCH   5  21
TORSDOF 5
ENDMDL
MODEL 9
REMARK VINA RESULT:      -7.8      8.286      9.572
REMARK  5 active torsions:
REMARK  status: ('A' for Active; 'I' for Inactive)
REMARK    1  A    between atoms: C10_18  and  O1_2 
REMARK    2  A    between atoms: C2_10  and  N1_7 
REMARK    3  A    between atoms: C7_15  and  N2_8 
REMARK    4  A    between atoms: C1_9  and  C3_11 
REMARK    5  A    between atoms: C4_12  and  C8_16 
ROOT
HETATM    1  C1  UNK     1      19.316  -2.553  36.814  1.00  0.00    -0.003 A 
HETATM    2  C2  UNK     1      19.814  -1.702  35.827  1.00  0.00     0.115 A 
HETATM    3  C5  UNK     1      18.298  -2.117  37.661  1.00  0.00     0.016 A 
HETATM    4  C6  UNK     1      19.293  -0.416  35.687  1.00  0.00     0.073 A 
HETATM    5  C7  UNK     1      18.274   0.020  36.534  1.00  0.00     0.105 A 
HETATM    6  C9  UNK     1      17.777  -0.830  37.522  1.00  0.00     0.037 A 
ENDROOT
BRANCH   1   7
HETATM    7  C3  UNK     1      19.832  -3.905  36.995  1.00  0.00     0.015 C 
HETATM    8  C8  UNK     1      19.327  -5.014  36.410  1.00  0.00     0.015 C 
BRANCH   8   9
HETATM    9  C4  UNK     1      19.862  -6.377  36.578  1.00  0.00    -0.001 A 
HETATM   10  C10 UNK     1      20.483  -7.022  35.521  1.00  0.00     0.076 A 
HETATM   11  C12 UNK     1      20.980  -8.313  35.702  1.00  0.00     0.039 A 
HETATM   12  C14 UNK     1      20.848  -8.943  36.940  1.00  0.00     0.026 A 
HETATM   13  C13 UNK     1      20.222  -8.282  37.996  1.00  0.00     0.035 A 
HETATM   14  C11 UNK     1      19.725  -6.991  37.813  1.00  0.00     0.038 A 
HETATM   15 Cl1  UNK     1      20.059  -9.062  39.521  1.00  0.00    -0.084 Cl
BRANCH  10  16
HETATM   16  O1  UNK     1      20.624  -6.430  34.300  1.00  0.00    -0.360 OA
HETATM   17  H9  UNK     1      20.682  -5.465  34.389  1.00  0.00     0.217 HD
ENDBRANCH  10  16
ENDBRANCH   8   9
ENDBRANCH   1   7
BRANCH   2  18
HETATM   18  N1  UNK     1      20.853  -2.115  34.945  1.00  0.00    -0.115 N 
HETATM   19  O2  UNK     1      22.040  -1.846  35.243  1.00  0.00    -0.532 OA
HETATM   20  O3  UNK     1      20.548  -2.736  33.901  1.00  0.00    -0.532 OA
ENDBRANCH   2  18
BRANCH   5  21
HETATM   21  N2  UNK     1      17.743   1.329  36.393  1.00  0.00    -0.116 N 
HETATM   22  O4  UNK     1      18.281   2.119  35.579  1.00  0.00    -0.532 OA
HETATM   23  O5  UNK     1      16.751   1.661  37.086  1.00  0.00    -0.532 OA
ENDBRANCH   5  21
TORSDOF 5
ENDMDL
MODEL 10
REMARK VINA RESULT:      -7.7      3.852      7.804
REMARK  5 active torsions:
REMARK  status: ('A' for Active; 'I' for Inactive)
REMARK    1  A    between atoms: C10_18  and  O1_2 
REMARK    2  A    between atoms: C2_10  and  N1_7 
REMARK    3  A    between atoms: C7_15  and  N2_8 
REMARK    4  A    between atoms: C1_9  and  C3_11 
REMARK    5  A    between atoms: C4_12  and  C8_16 
ROOT
HETATM    1  C1  UNK     1      18.301   4.861  32.180  1.00  0.00    -0.003 A 
HETATM    2  C2  UNK     1      18.752   4.728  30.866  1.00  0.00     0.115 A 
HETATM    3  C5  UNK     1      18.072   3.726  32.956  1.00  0.00     0.016 A 
HETATM    4  C6  UNK     1      18.975   3.459  30.331  1.00  0.00     0.073 A 
HETATM    5  C7  UNK     1      18.747   2.323  31.109  1.00  0.00     0.105 A 
HETATM    6  C9  UNK     1      18.295   2.457  32.422  1.00  0.00     0.037 A 
ENDROOT
BRANCH   1   7
HETATM    7  C3  UNK     1      18.056   6.168  32.779  1.00  0.00     0.015 C 
HETATM    8  C8  UNK     1      16.843   6.752  32.897  1.00  0.00     0.015 C 
BRANCH   8   9
HETATM    9  C4  UNK     1      16.594   8.065  33.521  1.00  0.00    -0.001 A 
HETATM   10  C10 UNK     1      15.385   8.327  34.145  1.00  0.00     0.076 A 
HETATM   11  C12 UNK     1      15.170   9.576  34.726  1.00  0.00     0.039 A 
HETATM   12  C14 UNK     1      16.169  10.550  34.676  1.00  0.00     0.026 A 
HETATM   13  C13 UNK     1      17.381  10.273  34.044  1.00  0.00     0.035 A 
HETATM   14  C11 UNK     1      17.595   9.023  33.463  1.00  0.00     0.038 A 
HETATM   15 Cl1  UNK     1      18.610  11.475  33.981  1.00  0.00    -0.084 Cl
BRANCH  10  16
HETATM   16  O1  UNK     1      14.391   7.394  34.208  1.00  0.00    -0.360 OA
HETATM   17  H9  UNK     1      14.677   6.558  33.806  1.00  0.00     0.217 HD
ENDBRANCH  10  16
ENDBRANCH   8   9
ENDBRANCH   1   7
BRANCH   2  18
HETATM   18  N1  UNK     1      18.996   5.865  30.045  1.00  0.00    -0.115 N 
HETATM   19  O2  UNK     1      18.018   6.496  29.581  1.00  0.00    -0.532 OA
HETATM   20  O3  UNK     1      20.181   6.201  29.814  1.00  0.00    -0.532 OA
ENDBRANCH   2  18
BRANCH   5  21
HETATM   21  N2  UNK     1      18.972   1.032  30.564  1.00  0.00    -0.116 N 
HETATM   22  O4  UNK     1      18.899   0.033  31.320  1.00  0.00    -0.532 OA
HETATM   23  O5  UNK     1      19.239   0.925  29.343  1.00  0.00    -0.532 OA
ENDBRANCH   5  21
TORSDOF 5
ENDMDL
