MODEL 1
REMARK VINA RESULT:      -7.1      0.000      0.000
REMARK  3 active torsions:
REMARK  status: ('A' for Active; 'I' for Inactive)
REMARK       I    between atoms: C5_8  and  N1_2 
REMARK    1  A    between atoms: C5_8  and  C7_10 
REMARK    2  A    between atoms: C7_10  and  C8_11 
REMARK    3  A    between atoms: C10_13  and  C9_12 
ROOT
HETATM    1  C7  UNK     1      30.870  -7.303  37.421  1.00  0.00     0.043 C 
HETATM    2  C9  UNK     1      31.660  -6.279  37.787  1.00  0.00     0.029 C 
ENDROOT
BRANCH   1   3
HETATM    3  C5  UNK     1      31.225  -7.936  36.134  1.00  0.00     0.254 C 
HETATM    4  O1  UNK     1      32.071  -8.831  36.154  1.00  0.00    -0.267 OA
HETATM    5  N1  UNK     1      30.587  -7.474  34.986  1.00  0.00    -0.345 N 
HETATM    6  C1  UNK     1      30.923  -8.076  33.694  1.00  0.00     0.156 C 
HETATM    7  C2  UNK     1      29.679  -6.323  34.905  1.00  0.00     0.156 C 
HETATM    8  C3  UNK     1      29.678  -8.347  32.852  1.00  0.00     0.291 C 
HETATM    9  N2  UNK     1      28.883  -7.122  32.699  1.00  0.00     0.087 N 
HETATM   10  C4  UNK     1      28.469  -6.619  34.016  1.00  0.00     0.291 C 
HETATM   11  C6  UNK     1      27.716  -7.368  31.852  1.00  0.00     0.310 C 
ENDBRANCH   1   3
BRANCH   1  12
HETATM   12  C8  UNK     1      29.725  -7.814  38.186  1.00  0.00    -0.021 A 
HETATM   13  C11 UNK     1      28.853  -6.919  38.789  1.00  0.00     0.012 A 
HETATM   14  C13 UNK     1      27.766  -7.404  39.516  1.00  0.00     0.001 A 
HETATM   15  C17 UNK     1      27.562  -8.778  39.632  1.00  0.00     0.000 A 
HETATM   16  C14 UNK     1      28.445  -9.668  39.021  1.00  0.00     0.001 A 
HETATM   17  C12 UNK     1      29.532  -9.184  38.295  1.00  0.00     0.012 A 
ENDBRANCH   1  12
BRANCH   2  18
HETATM   18  C10 UNK     1      32.807  -5.762  37.026  1.00  0.00    -0.035 A 
HETATM   19  C15 UNK     1      32.614  -4.732  36.118  1.00  0.00     0.011 A 
HETATM   20  C18 UNK     1      33.701  -4.241  35.395  1.00  0.00     0.001 A 
HETATM   21  C20 UNK     1      34.970  -4.784  35.590  1.00  0.00     0.000 A 
HETATM   22  C19 UNK     1      35.153  -5.819  36.508  1.00  0.00     0.001 A 
HETATM   23  C16 UNK     1      34.065  -6.311  37.230  1.00  0.00     0.011 A 
ENDBRANCH   2  18
TORSDOF 3
ENDMDL
MODEL 2
REMARK VINA RESULT:      -7.1      1.559      1.960
REMARK  3 active torsions:
REMARK  status: ('A' for Active; 'I' for Inactive)
REMARK       I    between atoms: C5_8  and  N1_2 
REMARK    1  A    between atoms: C5_8  and  C7_10 
REMARK    2  A    between atoms: C7_10  and  C8_11 
REMARK    3  A    between atoms: C10_13  and  C9_12 
ROOT
HETATM    1  C7  UNK     1      30.952  -7.380  37.387  1.00  0.00     0.043 C 
HETATM    2  C9  UNK     1      32.233  -7.730  37.598  1.00  0.00     0.029 C 
ENDROOT
BRANCH   1   3
HETATM    3  C5  UNK     1      30.738  -6.440  36.268  1.00  0.00     0.254 C 
HETATM    4  O1  UNK     1      30.844  -5.236  36.507  1.00  0.00    -0.267 OA
HETATM    5  N1  UNK     1      30.423  -6.976  35.022  1.00  0.00    -0.345 N 
HETATM    6  C1  UNK     1      30.197  -6.070  33.895  1.00  0.00     0.156 C 
HETATM    7  C2  UNK     1      30.154  -8.390  34.731  1.00  0.00     0.156 C 
HETATM    8  C3  UNK     1      30.880  -6.564  32.621  1.00  0.00     0.291 C 
HETATM    9  N2  UNK     1      30.463  -7.939  32.315  1.00  0.00     0.087 N 
HETATM   10  C4  UNK     1      30.817  -8.834  33.425  1.00  0.00     0.291 C 
HETATM   11  C6  UNK     1      31.078  -8.398  31.070  1.00  0.00     0.310 C 
ENDBRANCH   1   3
BRANCH   1  12
HETATM   12  C8  UNK     1      29.798  -7.854  38.164  1.00  0.00    -0.021 A 
HETATM   13  C11 UNK     1      28.940  -6.931  38.743  1.00  0.00     0.012 A 
HETATM   14  C13 UNK     1      27.844  -7.381  39.480  1.00  0.00     0.001 A 
HETATM   15  C17 UNK     1      27.619  -8.749  39.630  1.00  0.00     0.000 A 
HETATM   16  C14 UNK     1      28.490  -9.667  39.043  1.00  0.00     0.001 A 
HETATM   17  C12 UNK     1      29.585  -9.218  38.306  1.00  0.00     0.012 A 
ENDBRANCH   1  12
BRANCH   2  18
HETATM   18  C10 UNK     1      33.392  -7.260  36.825  1.00  0.00    -0.035 A 
HETATM   19  C15 UNK     1      34.122  -6.174  37.285  1.00  0.00     0.011 A 
HETATM   20  C18 UNK     1      35.222  -5.728  36.553  1.00  0.00     0.001 A 
HETATM   21  C20 UNK     1      35.580  -6.372  35.370  1.00  0.00     0.000 A 
HETATM   22  C19 UNK     1      34.839  -7.465  34.918  1.00  0.00     0.001 A 
HETATM   23  C16 UNK     1      33.738  -7.911  35.650  1.00  0.00     0.011 A 
ENDBRANCH   2  18
TORSDOF 3
ENDMDL
MODEL 3
REMARK VINA RESULT:      -7.0      2.116      6.336
REMARK  3 active torsions:
REMARK  status: ('A' for Active; 'I' for Inactive)
REMARK       I    between atoms: C5_8  and  N1_2 
REMARK    1  A    between atoms: C5_8  and  C7_10 
REMARK    2  A    between atoms: C7_10  and  C8_11 
REMARK    3  A    between atoms: C10_13  and  C9_12 
ROOT
HETATM    1  C7  UNK     1      28.340  -8.055  34.676  1.00  0.00     0.043 C 
HETATM    2  C9  UNK     1      28.197  -9.252  35.273  1.00  0.00     0.029 C 
ENDROOT
BRANCH   1   3
HETATM    3  C5  UNK     1      28.538  -6.917  35.597  1.00  0.00     0.254 C 
HETATM    4  O1  UNK     1      27.538  -6.436  36.131  1.00  0.00    -0.267 OA
HETATM    5  N1  UNK     1      29.839  -6.460  35.792  1.00  0.00    -0.345 N 
HETATM    6  C1  UNK     1      30.067  -5.329  36.692  1.00  0.00     0.156 C 
HETATM    7  C2  UNK     1      31.034  -6.917  35.071  1.00  0.00     0.156 C 
HETATM    8  C3  UNK     1      31.269  -5.561  37.605  1.00  0.00     0.291 C 
HETATM    9  N2  UNK     1      32.462  -5.883  36.811  1.00  0.00     0.087 N 
HETATM   10  C4  UNK     1      32.228  -7.094  36.012  1.00  0.00     0.291 C 
HETATM   11  C6  UNK     1      33.626  -6.058  37.679  1.00  0.00     0.310 C 
ENDBRANCH   1   3
BRANCH   1  12
HETATM   12  C8  UNK     1      28.315  -7.817  33.226  1.00  0.00    -0.021 A 
HETATM   13  C11 UNK     1      27.930  -6.574  32.745  1.00  0.00     0.012 A 
HETATM   14  C13 UNK     1      27.907  -6.348  31.369  1.00  0.00     0.001 A 
HETATM   15  C17 UNK     1      28.269  -7.366  30.489  1.00  0.00     0.000 A 
HETATM   16  C14 UNK     1      28.655  -8.612  30.984  1.00  0.00     0.001 A 
HETATM   17  C12 UNK     1      28.678  -8.839  32.360  1.00  0.00     0.012 A 
ENDBRANCH   1  12
BRANCH   2  18
HETATM   18  C10 UNK     1      28.220  -9.498  36.723  1.00  0.00    -0.035 A 
HETATM   19  C15 UNK     1      27.030  -9.736  37.392  1.00  0.00     0.011 A 
HETATM   20  C18 UNK     1      27.051  -9.969  38.767  1.00  0.00     0.001 A 
HETATM   21  C20 UNK     1      28.263  -9.964  39.457  1.00  0.00     0.000 A 
HETATM   22  C19 UNK     1      29.454  -9.725  38.771  1.00  0.00     0.001 A 
HETATM   23  C16 UNK     1      29.433  -9.490  37.396  1.00  0.00     0.011 A 
ENDBRANCH   2  18
TORSDOF 3
ENDMDL
MODEL 4
REMARK VINA RESULT:      -7.0      2.104      6.460
REMARK  3 active torsions:
REMARK  status: ('A' for Active; 'I' for Inactive)
REMARK       I    between atoms: C5_8  and  N1_2 
REMARK    1  A    between atoms: C5_8  and  C7_10 
REMARK    2  A    between atoms: C7_10  and  C8_11 
REMARK    3  A    between atoms: C10_13  and  C9_12 
ROOT
HETATM    1  C7  UNK     1      28.343  -8.060  34.635  1.00  0.00     0.043 C 
HETATM    2  C9  UNK     1      28.192  -9.252  35.239  1.00  0.00     0.029 C 
ENDROOT
BRANCH   1   3
HETATM    3  C5  UNK     1      28.554  -6.919  35.549  1.00  0.00     0.254 C 
HETATM    4  O1  UNK     1      27.558  -6.418  36.073  1.00  0.00    -0.267 OA
HETATM    5  N1  UNK     1      29.860  -6.482  35.750  1.00  0.00    -0.345 N 
HETATM    6  C1  UNK     1      30.101  -5.348  36.644  1.00  0.00     0.156 C 
HETATM    7  C2  UNK     1      31.052  -6.964  35.041  1.00  0.00     0.156 C 
HETATM    8  C3  UNK     1      31.294  -5.594  37.566  1.00  0.00     0.291 C 
HETATM    9  N2  UNK     1      32.486  -5.942  36.783  1.00  0.00     0.087 N 
HETATM   10  C4  UNK     1      32.237  -7.154  35.991  1.00  0.00     0.291 C 
HETATM   11  C6  UNK     1      33.641  -6.130  37.660  1.00  0.00     0.310 C 
ENDBRANCH   1   3
BRANCH   1  12
HETATM   12  C8  UNK     1      28.315  -7.829  33.184  1.00  0.00    -0.021 A 
HETATM   13  C11 UNK     1      28.658  -8.861  32.322  1.00  0.00     0.012 A 
HETATM   14  C13 UNK     1      28.631  -8.642  30.945  1.00  0.00     0.001 A 
HETATM   15  C17 UNK     1      28.262  -7.394  30.444  1.00  0.00     0.000 A 
HETATM   16  C14 UNK     1      27.919  -6.365  31.321  1.00  0.00     0.001 A 
HETATM   17  C12 UNK     1      27.946  -6.583  32.698  1.00  0.00     0.012 A 
ENDBRANCH   1  12
BRANCH   2  18
HETATM   18  C10 UNK     1      28.218  -9.491  36.689  1.00  0.00    -0.035 A 
HETATM   19  C15 UNK     1      29.430  -9.469  37.362  1.00  0.00     0.011 A 
HETATM   20  C18 UNK     1      29.456  -9.696  38.738  1.00  0.00     0.001 A 
HETATM   21  C20 UNK     1      28.268  -9.940  39.427  1.00  0.00     0.000 A 
HETATM   22  C19 UNK     1      27.054  -9.958  38.739  1.00  0.00     0.001 A 
HETATM   23  C16 UNK     1      27.029  -9.732  37.362  1.00  0.00     0.011 A 
ENDBRANCH   2  18
TORSDOF 3
ENDMDL
MODEL 5
REMARK VINA RESULT:      -6.9      1.738      4.645
REMARK  3 active torsions:
REMARK  status: ('A' for Active; 'I' for Inactive)
REMARK       I    between atoms: C5_8  and  N1_2 
REMARK    1  A    between atoms: C5_8  and  C7_10 
REMARK    2  A    between atoms: C7_10  and  C8_11 
REMARK    3  A    between atoms: C10_13  and  C9_12 
ROOT
HETATM    1  C7  UNK     1      28.850  -7.383  35.397  1.00  0.00     0.043 C 
HETATM    2  C9  UNK     1      28.070  -6.777  34.485  1.00  0.00     0.029 C 
ENDROOT
BRANCH   1   3
HETATM    3  C5  UNK     1      30.171  -7.816  34.899  1.00  0.00     0.254 C 
HETATM    4  O1  UNK     1      30.218  -8.857  34.241  1.00  0.00    -0.267 OA
HETATM    5  N1  UNK     1      31.274  -7.026  35.213  1.00  0.00    -0.345 N 
HETATM    6  C1  UNK     1      32.598  -7.434  34.740  1.00  0.00     0.156 C 
HETATM    7  C2  UNK     1      31.277  -5.860  36.105  1.00  0.00     0.156 C 
HETATM    8  C3  UNK     1      33.393  -6.253  34.187  1.00  0.00     0.291 C 
HETATM    9  N2  UNK     1      33.470  -5.174  35.181  1.00  0.00     0.087 N 
HETATM   10  C4  UNK     1      32.121  -4.716  35.537  1.00  0.00     0.291 C 
HETATM   11  C6  UNK     1      34.273  -4.062  34.672  1.00  0.00     0.310 C 
ENDBRANCH   1   3
BRANCH   1  12
HETATM   12  C8  UNK     1      28.490  -7.629  36.800  1.00  0.00    -0.021 A 
HETATM   13  C11 UNK     1      27.934  -6.604  37.552  1.00  0.00     0.012 A 
HETATM   14  C13 UNK     1      27.591  -6.839  38.884  1.00  0.00     0.001 A 
HETATM   15  C17 UNK     1      27.807  -8.095  39.448  1.00  0.00     0.000 A 
HETATM   16  C14 UNK     1      28.366  -9.117  38.682  1.00  0.00     0.001 A 
HETATM   17  C12 UNK     1      28.709  -8.884  37.351  1.00  0.00     0.012 A 
ENDBRANCH   1  12
BRANCH   2  18
HETATM   18  C10 UNK     1      28.423  -6.527  33.080  1.00  0.00    -0.035 A 
HETATM   19  C15 UNK     1      27.910  -7.352  32.091  1.00  0.00     0.011 A 
HETATM   20  C18 UNK     1      28.245  -7.116  30.758  1.00  0.00     0.001 A 
HETATM   21  C20 UNK     1      29.088  -6.056  30.428  1.00  0.00     0.000 A 
HETATM   22  C19 UNK     1      29.597  -5.231  31.432  1.00  0.00     0.001 A 
HETATM   23  C16 UNK     1      29.263  -5.468  32.766  1.00  0.00     0.011 A 
ENDBRANCH   2  18
TORSDOF 3
ENDMDL
MODEL 6
REMARK VINA RESULT:      -6.9      1.863      6.297
REMARK  3 active torsions:
REMARK  status: ('A' for Active; 'I' for Inactive)
REMARK       I    between atoms: C5_8  and  N1_2 
REMARK    1  A    between atoms: C5_8  and  C7_10 
REMARK    2  A    between atoms: C7_10  and  C8_11 
REMARK    3  A    between atoms: C10_13  and  C9_12 
ROOT
HETATM    1  C7  UNK     1      31.237  -6.368  33.359  1.00  0.00     0.043 C 
HETATM    2  C9  UNK     1      30.592  -5.840  32.304  1.00  0.00     0.029 C 
ENDROOT
BRANCH   1   3
HETATM    3  C5  UNK     1      30.703  -7.662  33.833  1.00  0.00     0.254 C 
HETATM    4  O1  UNK     1      31.102  -8.683  33.271  1.00  0.00    -0.267 OA
HETATM    5  N1  UNK     1      29.781  -7.639  34.877  1.00  0.00    -0.345 N 
HETATM    6  C1  UNK     1      29.228  -8.904  35.364  1.00  0.00     0.156 C 
HETATM    7  C2  UNK     1      29.183  -6.440  35.477  1.00  0.00     0.156 C 
HETATM    8  C3  UNK     1      29.179  -8.953  36.889  1.00  0.00     0.291 C 
HETATM    9  N2  UNK     1      28.450  -7.793  37.418  1.00  0.00     0.087 N 
HETATM   10  C4  UNK     1      29.109  -6.548  37.002  1.00  0.00     0.291 C 
HETATM   11  C6  UNK     1      28.359  -7.863  38.876  1.00  0.00     0.310 C 
ENDBRANCH   1   3
BRANCH   1  12
HETATM   12  C8  UNK     1      32.392  -5.769  34.041  1.00  0.00    -0.021 A 
HETATM   13  C11 UNK     1      33.627  -6.397  33.972  1.00  0.00     0.012 A 
HETATM   14  C13 UNK     1      34.724  -5.827  34.619  1.00  0.00     0.001 A 
HETATM   15  C17 UNK     1      34.573  -4.636  35.327  1.00  0.00     0.000 A 
HETATM   16  C14 UNK     1      33.327  -4.013  35.389  1.00  0.00     0.001 A 
HETATM   17  C12 UNK     1      32.230  -4.582  34.743  1.00  0.00     0.012 A 
ENDBRANCH   1  12
BRANCH   2  18
HETATM   18  C10 UNK     1      29.436  -6.434  31.617  1.00  0.00    -0.035 A 
HETATM   19  C15 UNK     1      28.154  -6.098  32.025  1.00  0.00     0.011 A 
HETATM   20  C18 UNK     1      27.057  -6.661  31.374  1.00  0.00     0.001 A 
HETATM   21  C20 UNK     1      27.253  -7.553  30.320  1.00  0.00     0.000 A 
HETATM   22  C19 UNK     1      28.548  -7.881  29.917  1.00  0.00     0.001 A 
HETATM   23  C16 UNK     1      29.646  -7.319  30.569  1.00  0.00     0.011 A 
ENDBRANCH   2  18
TORSDOF 3
ENDMDL
MODEL 7
REMARK VINA RESULT:      -6.8      2.604      5.679
REMARK  3 active torsions:
REMARK  status: ('A' for Active; 'I' for Inactive)
REMARK       I    between atoms: C5_8  and  N1_2 
REMARK    1  A    between atoms: C5_8  and  C7_10 
REMARK    2  A    between atoms: C7_10  and  C8_11 
REMARK    3  A    between atoms: C10_13  and  C9_12 
ROOT
HETATM    1  C7  UNK     1      29.892  -6.273  34.571  1.00  0.00     0.043 C 
HETATM    2  C9  UNK     1      28.679  -6.768  34.269  1.00  0.00     0.029 C 
ENDROOT
BRANCH   1   3
HETATM    3  C5  UNK     1      30.822  -6.159  33.429  1.00  0.00     0.254 C 
HETATM    4  O1  UNK     1      30.708  -5.173  32.698  1.00  0.00    -0.267 OA
HETATM    5  N1  UNK     1      31.756  -7.175  33.250  1.00  0.00    -0.345 N 
HETATM    6  C1  UNK     1      32.687  -7.095  32.123  1.00  0.00     0.156 C 
HETATM    7  C2  UNK     1      31.832  -8.426  34.016  1.00  0.00     0.156 C 
HETATM    8  C3  UNK     1      34.110  -7.467  32.532  1.00  0.00     0.291 C 
HETATM    9  N2  UNK     1      34.132  -8.789  33.172  1.00  0.00     0.087 N 
HETATM   10  C4  UNK     1      33.277  -8.788  34.366  1.00  0.00     0.291 C 
HETATM   11  C6  UNK     1      35.501  -9.169  33.521  1.00  0.00     0.310 C 
ENDBRANCH   1   3
BRANCH   1  12
HETATM   12  C8  UNK     1      30.333  -5.852  35.908  1.00  0.00    -0.021 A 
HETATM   13  C11 UNK     1      31.445  -5.032  36.033  1.00  0.00     0.012 A 
HETATM   14  C13 UNK     1      31.864  -4.632  37.302  1.00  0.00     0.001 A 
HETATM   15  C17 UNK     1      31.167  -5.057  38.432  1.00  0.00     0.000 A 
HETATM   16  C14 UNK     1      30.051  -5.882  38.294  1.00  0.00     0.001 A 
HETATM   17  C12 UNK     1      29.632  -6.282  37.026  1.00  0.00     0.012 A 
ENDBRANCH   1  12
BRANCH   2  18
HETATM   18  C10 UNK     1      28.230  -7.191  32.935  1.00  0.00    -0.035 A 
HETATM   19  C15 UNK     1      27.480  -6.319  32.160  1.00  0.00     0.011 A 
HETATM   20  C18 UNK     1      27.053  -6.720  30.894  1.00  0.00     0.001 A 
HETATM   21  C20 UNK     1      27.383  -7.987  30.416  1.00  0.00     0.000 A 
HETATM   22  C19 UNK     1      28.140  -8.855  31.204  1.00  0.00     0.001 A 
HETATM   23  C16 UNK     1      28.565  -8.455  32.471  1.00  0.00     0.011 A 
ENDBRANCH   2  18
TORSDOF 3
ENDMDL
MODEL 8
REMARK VINA RESULT:      -6.8      1.776      2.819
REMARK  3 active torsions:
REMARK  status: ('A' for Active; 'I' for Inactive)
REMARK       I    between atoms: C5_8  and  N1_2 
REMARK    1  A    between atoms: C5_8  and  C7_10 
REMARK    2  A    between atoms: C7_10  and  C8_11 
REMARK    3  A    between atoms: C10_13  and  C9_12 
ROOT
HETATM    1  C7  UNK     1      29.498  -7.321  37.669  1.00  0.00     0.043 C 
HETATM    2  C9  UNK     1      30.417  -6.510  38.223  1.00  0.00     0.029 C 
ENDROOT
BRANCH   1   3
HETATM    3  C5  UNK     1      29.456  -7.300  36.193  1.00  0.00     0.254 C 
HETATM    4  O1  UNK     1      28.741  -6.452  35.656  1.00  0.00    -0.267 OA
HETATM    5  N1  UNK     1      30.217  -8.244  35.509  1.00  0.00    -0.345 N 
HETATM    6  C1  UNK     1      30.190  -8.254  34.045  1.00  0.00     0.156 C 
HETATM    7  C2  UNK     1      30.969  -9.351  36.113  1.00  0.00     0.156 C 
HETATM    8  C3  UNK     1      31.586  -8.431  33.452  1.00  0.00     0.291 C 
HETATM    9  N2  UNK     1      32.230  -9.632  33.999  1.00  0.00     0.087 N 
HETATM   10  C4  UNK     1      32.343  -9.525  35.460  1.00  0.00     0.291 C 
HETATM   11  C6  UNK     1      33.547  -9.830  33.396  1.00  0.00     0.310 C 
ENDBRANCH   1   3
BRANCH   1  12
HETATM   12  C8  UNK     1      28.574  -8.192  38.408  1.00  0.00    -0.021 A 
HETATM   13  C11 UNK     1      27.239  -7.830  38.521  1.00  0.00     0.012 A 
HETATM   14  C13 UNK     1      26.361  -8.658  39.221  1.00  0.00     0.001 A 
HETATM   15  C17 UNK     1      26.827  -9.837  39.800  1.00  0.00     0.000 A 
HETATM   16  C14 UNK     1      28.171 -10.190  39.679  1.00  0.00     0.001 A 
HETATM   17  C12 UNK     1      29.049  -9.364  38.980  1.00  0.00     0.012 A 
ENDBRANCH   1  12
BRANCH   2  18
HETATM   18  C10 UNK     1      31.345  -5.635  37.491  1.00  0.00    -0.035 A 
HETATM   19  C15 UNK     1      32.563  -6.141  37.062  1.00  0.00     0.011 A 
HETATM   20  C18 UNK     1      33.444  -5.312  36.368  1.00  0.00     0.001 A 
HETATM   21  C20 UNK     1      33.097  -3.987  36.109  1.00  0.00     0.000 A 
HETATM   22  C19 UNK     1      31.869  -3.490  36.545  1.00  0.00     0.001 A 
HETATM   23  C16 UNK     1      30.987  -4.318  37.241  1.00  0.00     0.011 A 
ENDBRANCH   2  18
TORSDOF 3
ENDMDL
MODEL 9
REMARK VINA RESULT:      -6.8      2.123      5.976
REMARK  3 active torsions:
REMARK  status: ('A' for Active; 'I' for Inactive)
REMARK       I    between atoms: C5_8  and  N1_2 
REMARK    1  A    between atoms: C5_8  and  C7_10 
REMARK    2  A    between atoms: C7_10  and  C8_11 
REMARK    3  A    between atoms: C10_13  and  C9_12 
ROOT
HETATM    1  C7  UNK     1      29.062  -8.011  33.838  1.00  0.00     0.043 C 
HETATM    2  C9  UNK     1      29.131  -9.147  34.554  1.00  0.00     0.029 C 
ENDROOT
BRANCH   1   3
HETATM    3  C5  UNK     1      29.721  -6.843  34.457  1.00  0.00     0.254 C 
HETATM    4  O1  UNK     1      29.080  -6.205  35.295  1.00  0.00    -0.267 OA
HETATM    5  N1  UNK     1      31.015  -6.535  34.046  1.00  0.00    -0.345 N 
HETATM    6  C1  UNK     1      31.692  -5.378  34.635  1.00  0.00     0.156 C 
HETATM    7  C2  UNK     1      31.755  -7.185  32.957  1.00  0.00     0.156 C 
HETATM    8  C3  UNK     1      33.144  -5.690  34.993  1.00  0.00     0.291 C 
HETATM    9  N2  UNK     1      33.861  -6.212  33.823  1.00  0.00     0.087 N 
HETATM   10  C4  UNK     1      33.215  -7.439  33.338  1.00  0.00     0.291 C 
HETATM   11  C6  UNK     1      35.264  -6.465  34.151  1.00  0.00     0.310 C 
ENDBRANCH   1   3
BRANCH   1  12
HETATM   12  C8  UNK     1      28.403  -7.863  32.533  1.00  0.00    -0.021 A 
HETATM   13  C11 UNK     1      28.533  -8.867  31.585  1.00  0.00     0.012 A 
HETATM   14  C13 UNK     1      27.906  -8.727  30.346  1.00  0.00     0.001 A 
HETATM   15  C17 UNK     1      27.158  -7.584  30.070  1.00  0.00     0.000 A 
HETATM   16  C14 UNK     1      27.035  -6.580  31.031  1.00  0.00     0.001 A 
HETATM   17  C12 UNK     1      27.660  -6.720  32.269  1.00  0.00     0.012 A 
ENDBRANCH   1  12
BRANCH   2  18
HETATM   18  C10 UNK     1      29.788  -9.303  35.860  1.00  0.00    -0.035 A 
HETATM   19  C15 UNK     1      31.152  -9.544  35.911  1.00  0.00     0.011 A 
HETATM   20  C18 UNK     1      31.776  -9.692  37.150  1.00  0.00     0.001 A 
HETATM   21  C20 UNK     1      31.029  -9.597  38.323  1.00  0.00     0.000 A 
HETATM   22  C19 UNK     1      29.657  -9.353  38.258  1.00  0.00     0.001 A 
HETATM   23  C16 UNK     1      29.032  -9.205  37.019  1.00  0.00     0.011 A 
ENDBRANCH   2  18
TORSDOF 3
ENDMDL
MODEL 10
REMARK VINA RESULT:      -6.8      1.652      6.037
REMARK  3 active torsions:
REMARK  status: ('A' for Active; 'I' for Inactive)
REMARK       I    between atoms: C5_8  and  N1_2 
REMARK    1  A    between atoms: C5_8  and  C7_10 
REMARK    2  A    between atoms: C7_10  and  C8_11 
REMARK    3  A    between atoms: C10_13  and  C9_12 
ROOT
HETATM    1  C7  UNK     1      28.505  -8.041  34.865  1.00  0.00     0.043 C 
HETATM    2  C9  UNK     1      27.484  -7.970  35.738  1.00  0.00     0.029 C 
ENDROOT
BRANCH   1   3
HETATM    3  C5  UNK     1      29.792  -8.478  35.444  1.00  0.00     0.254 C 
HETATM    4  O1  UNK     1      29.981  -9.690  35.560  1.00  0.00    -0.267 OA
HETATM    5  N1  UNK     1      30.698  -7.494  35.828  1.00  0.00    -0.345 N 
HETATM    6  C1  UNK     1      31.979  -7.895  36.413  1.00  0.00     0.156 C 
HETATM    7  C2  UNK     1      30.453  -6.046  35.832  1.00  0.00     0.156 C 
HETATM    8  C3  UNK     1      33.142  -7.084  35.846  1.00  0.00     0.291 C 
HETATM    9  N2  UNK     1      32.891  -5.646  36.003  1.00  0.00     0.087 N 
HETATM   10  C4  UNK     1      31.658  -5.267  35.301  1.00  0.00     0.291 C 
HETATM   11  C6  UNK     1      34.026  -4.868  35.505  1.00  0.00     0.310 C 
ENDBRANCH   1   3
BRANCH   1  12
HETATM   12  C8  UNK     1      28.427  -7.727  33.432  1.00  0.00    -0.021 A 
HETATM   13  C11 UNK     1      28.120  -6.434  33.033  1.00  0.00     0.012 A 
HETATM   14  C13 UNK     1      28.046  -6.136  31.672  1.00  0.00     0.001 A 
HETATM   15  C17 UNK     1      28.279  -7.133  30.726  1.00  0.00     0.000 A 
HETATM   16  C14 UNK     1      28.586  -8.429  31.140  1.00  0.00     0.001 A 
HETATM   17  C12 UNK     1      28.660  -8.728  32.500  1.00  0.00     0.012 A 
ENDBRANCH   1  12
BRANCH   2  18
HETATM   18  C10 UNK     1      27.555  -8.282  37.173  1.00  0.00    -0.035 A 
HETATM   19  C15 UNK     1      27.873  -7.277  38.074  1.00  0.00     0.011 A 
HETATM   20  C18 UNK     1      27.940  -7.572  39.435  1.00  0.00     0.001 A 
HETATM   21  C20 UNK     1      27.688  -8.869  39.881  1.00  0.00     0.000 A 
HETATM   22  C19 UNK     1      27.368  -9.872  38.964  1.00  0.00     0.001 A 
HETATM   23  C16 UNK     1      27.302  -9.577  37.602  1.00  0.00     0.011 A 
ENDBRANCH   2  18
TORSDOF 3
ENDMDL
