MODEL 1
REMARK VINA RESULT:     -10.4      0.000      0.000
REMARK  4 active torsions:
REMARK  status: ('A' for Active; 'I' for Inactive)
REMARK       I    between atoms: C14_18  and  N1_4 
REMARK    1  A    between atoms: C4_8  and  N1_4 
REMARK    2  A    between atoms: C1_5  and  C3_7 
REMARK    3  A    between atoms: C13_17  and  C14_18 
REMARK    4  A    between atoms: C13_17  and  C16_20 
ROOT
HETATM    1  C1  UNK     1      18.137   6.479  32.042  1.00  0.00    -0.014 A 
HETATM    2  C2  UNK     1      18.116   5.250  32.703  1.00  0.00    -0.049 A 
HETATM    3  C4  UNK     1      18.963   4.164  30.719  1.00  0.00     0.035 A 
HETATM    4  C5  UNK     1      18.528   4.094  32.042  1.00  0.00     0.037 A 
HETATM    5  C6  UNK     1      18.573   6.548  30.718  1.00  0.00     0.015 A 
HETATM    6  C9  UNK     1      18.985   5.391  30.056  1.00  0.00     0.030 A 
HETATM    7  C11 UNK     1      17.657   5.138  34.122  1.00  0.00     0.049 C 
ENDROOT
BRANCH   1   8
HETATM    8  C3  UNK     1      17.706   7.720  32.713  1.00  0.00     0.051 A 
HETATM    9  C12 UNK     1      18.655   8.478  33.574  1.00  0.00     0.299 A 
HETATM   10  O1  UNK     1      18.183   9.656  34.149  1.00  0.00    -0.274 OA
HETATM   11  O2  UNK     1      19.801   8.090  33.780  1.00  0.00    -0.259 OA
HETATM   12  C10 UNK     1      16.866  10.109  33.948  1.00  0.00     0.089 A 
HETATM   13  C8  UNK     1      15.987   9.389  33.148  1.00  0.00    -0.001 A 
HETATM   14  C17 UNK     1      16.485  11.293  34.575  1.00  0.00     0.038 A 
HETATM   15  C15 UNK     1      14.687   9.869  32.971  1.00  0.00     0.014 A 
HETATM   16  C7  UNK     1      16.455   8.162  32.521  1.00  0.00     0.032 A 
HETATM   17  C18 UNK     1      14.290  11.055  33.594  1.00  0.00     0.001 A 
HETATM   18  C19 UNK     1      15.186  11.766  34.395  1.00  0.00     0.003 A 
ENDBRANCH   1   8
BRANCH   3  19
HETATM   19  N1  UNK     1      19.374   3.007  30.057  1.00  0.00    -0.327 N 
HETATM   20  C14 UNK     1      18.546   1.988  29.591  1.00  0.00     0.226 C 
HETATM   21  O3  UNK     1      17.324   1.918  29.671  1.00  0.00    -0.273 OA
HETATM   22  H8  UNK     1      20.377   2.921  29.909  1.00  0.00     0.169 HD
BRANCH  20  23
HETATM   23  C13 UNK     1      19.374   0.900  28.924  1.00  0.00     0.141 C 
BRANCH  23  24
HETATM   24  C16 UNK     1      19.737  -0.231  29.850  1.00  0.00    -0.050 A 
HETATM   25  C20 UNK     1      19.423  -0.138  31.198  1.00  0.00     0.007 A 
HETATM   26  C22 UNK     1      19.759  -1.187  32.054  1.00  0.00     0.001 A 
HETATM   27  C24 UNK     1      20.404  -2.318  31.554  1.00  0.00     0.000 A 
HETATM   28  C23 UNK     1      20.714  -2.400  30.196  1.00  0.00     0.001 A 
HETATM   29  C21 UNK     1      20.379  -1.350  29.339  1.00  0.00     0.007 A 
ENDBRANCH  23  24
ENDBRANCH  20  23
ENDBRANCH   3  19
TORSDOF 4
ENDMDL
MODEL 2
REMARK VINA RESULT:     -10.0      1.176      1.797
REMARK  4 active torsions:
REMARK  status: ('A' for Active; 'I' for Inactive)
REMARK       I    between atoms: C14_18  and  N1_4 
REMARK    1  A    between atoms: C4_8  and  N1_4 
REMARK    2  A    between atoms: C1_5  and  C3_7 
REMARK    3  A    between atoms: C13_17  and  C14_18 
REMARK    4  A    between atoms: C13_17  and  C16_20 
ROOT
HETATM    1  C1  UNK     1      17.932   6.545  31.940  1.00  0.00    -0.014 A 
HETATM    2  C2  UNK     1      18.044   5.366  32.678  1.00  0.00    -0.049 A 
HETATM    3  C4  UNK     1      18.896   4.223  30.728  1.00  0.00     0.035 A 
HETATM    4  C5  UNK     1      18.525   4.205  32.073  1.00  0.00     0.037 A 
HETATM    5  C6  UNK     1      18.303   6.561  30.595  1.00  0.00     0.015 A 
HETATM    6  C9  UNK     1      18.785   5.400  29.989  1.00  0.00     0.030 A 
HETATM    7  C11 UNK     1      17.657   5.311  34.121  1.00  0.00     0.049 C 
ENDROOT
BRANCH   1   8
HETATM    8  C3  UNK     1      17.424   7.788  32.551  1.00  0.00     0.051 A 
HETATM    9  C12 UNK     1      15.959   8.034  32.649  1.00  0.00     0.299 A 
HETATM   10  O1  UNK     1      15.558   9.218  33.265  1.00  0.00    -0.274 OA
HETATM   11  O2  UNK     1      15.134   7.243  32.205  1.00  0.00    -0.259 OA
HETATM   12  C10 UNK     1      16.486  10.153  33.760  1.00  0.00     0.089 A 
HETATM   13  C8  UNK     1      17.851   9.916  33.656  1.00  0.00    -0.001 A 
HETATM   14  C17 UNK     1      15.985  11.312  34.350  1.00  0.00     0.038 A 
HETATM   15  C15 UNK     1      18.742  10.867  34.158  1.00  0.00     0.014 A 
HETATM   16  C7  UNK     1      18.301   8.682  33.031  1.00  0.00     0.032 A 
HETATM   17  C18 UNK     1      18.255  12.035  34.752  1.00  0.00     0.001 A 
HETATM   18  C19 UNK     1      16.880  12.257  34.848  1.00  0.00     0.003 A 
ENDBRANCH   1   8
BRANCH   3  19
HETATM   19  N1  UNK     1      19.377   3.062  30.122  1.00  0.00    -0.327 N 
HETATM   20  C14 UNK     1      18.606   2.002  29.649  1.00  0.00     0.226 C 
HETATM   21  O3  UNK     1      17.385   1.893  29.673  1.00  0.00    -0.273 OA
HETATM   22  H8  UNK     1      20.388   3.006  30.024  1.00  0.00     0.169 HD
BRANCH  20  23
HETATM   23  C13 UNK     1      19.501   0.924  29.055  1.00  0.00     0.141 C 
BRANCH  23  24
HETATM   24  C16 UNK     1      19.772  -0.218  29.998  1.00  0.00    -0.050 A 
HETATM   25  C20 UNK     1      19.383  -0.115  31.326  1.00  0.00     0.007 A 
HETATM   26  C22 UNK     1      19.634  -1.174  32.198  1.00  0.00     0.001 A 
HETATM   27  C24 UNK     1      20.270  -2.325  31.734  1.00  0.00     0.000 A 
HETATM   28  C23 UNK     1      20.657  -2.417  30.397  1.00  0.00     0.001 A 
HETATM   29  C21 UNK     1      20.406  -1.358  29.524  1.00  0.00     0.007 A 
ENDBRANCH  23  24
ENDBRANCH  20  23
ENDBRANCH   3  19
TORSDOF 4
ENDMDL
MODEL 3
REMARK VINA RESULT:      -9.0     22.590     25.068
REMARK  4 active torsions:
REMARK  status: ('A' for Active; 'I' for Inactive)
REMARK       I    between atoms: C14_18  and  N1_4 
REMARK    1  A    between atoms: C4_8  and  N1_4 
REMARK    2  A    between atoms: C1_5  and  C3_7 
REMARK    3  A    between atoms: C13_17  and  C14_18 
REMARK    4  A    between atoms: C13_17  and  C16_20 
ROOT
HETATM    1  C1  UNK     1      14.483   8.798   8.971  1.00  0.00    -0.014 A 
HETATM    2  C2  UNK     1      15.453   8.080   9.672  1.00  0.00    -0.049 A 
HETATM    3  C4  UNK     1      17.021   9.893   9.363  1.00  0.00     0.035 A 
HETATM    4  C5  UNK     1      16.721   8.627   9.867  1.00  0.00     0.037 A 
HETATM    5  C6  UNK     1      14.784  10.064   8.466  1.00  0.00     0.015 A 
HETATM    6  C9  UNK     1      16.052  10.612   8.662  1.00  0.00     0.030 A 
HETATM    7  C11 UNK     1      15.167   6.722  10.228  1.00  0.00     0.049 C 
ENDROOT
BRANCH   1   8
HETATM    8  C3  UNK     1      13.133   8.246   8.745  1.00  0.00     0.051 A 
HETATM    9  C12 UNK     1      12.096   8.339   9.809  1.00  0.00     0.299 A 
HETATM   10  O1  UNK     1      10.838   7.822   9.510  1.00  0.00    -0.274 OA
HETATM   11  O2  UNK     1      12.329   8.839  10.905  1.00  0.00    -0.259 OA
HETATM   12  C10 UNK     1      10.553   7.221   8.270  1.00  0.00     0.089 A 
HETATM   13  C8  UNK     1      11.532   7.134   7.287  1.00  0.00    -0.001 A 
HETATM   14  C17 UNK     1       9.267   6.724   8.070  1.00  0.00     0.038 A 
HETATM   15  C15 UNK     1      11.213   6.531   6.069  1.00  0.00     0.014 A 
HETATM   16  C7  UNK     1      12.852   7.678   7.563  1.00  0.00     0.032 A 
HETATM   17  C18 UNK     1       9.927   6.027   5.853  1.00  0.00     0.001 A 
HETATM   18  C19 UNK     1       8.956   6.122   6.852  1.00  0.00     0.003 A 
ENDBRANCH   1   8
BRANCH   3  19
HETATM   19  N1  UNK     1      18.289  10.440   9.558  1.00  0.00    -0.327 N 
HETATM   20  C14 UNK     1      18.606  11.501  10.403  1.00  0.00     0.226 C 
HETATM   21  O3  UNK     1      17.845  12.141  11.122  1.00  0.00    -0.273 OA
HETATM   22  H8  UNK     1      19.039  10.005   9.025  1.00  0.00     0.169 HD
BRANCH  20  23
HETATM   23  C13 UNK     1      20.096  11.800  10.338  1.00  0.00     0.141 C 
BRANCH  23  24
HETATM   24  C16 UNK     1      20.499  12.577   9.112  1.00  0.00    -0.050 A 
HETATM   25  C20 UNK     1      19.700  13.622   8.671  1.00  0.00     0.007 A 
HETATM   26  C22 UNK     1      20.075  14.341   7.537  1.00  0.00     0.001 A 
HETATM   27  C24 UNK     1      21.245  14.008   6.855  1.00  0.00     0.000 A 
HETATM   28  C23 UNK     1      22.041  12.955   7.307  1.00  0.00     0.001 A 
HETATM   29  C21 UNK     1      21.666  12.235   8.442  1.00  0.00     0.007 A 
ENDBRANCH  23  24
ENDBRANCH  20  23
ENDBRANCH   3  19
TORSDOF 4
ENDMDL
MODEL 4
REMARK VINA RESULT:      -9.0     21.789     24.315
REMARK  4 active torsions:
REMARK  status: ('A' for Active; 'I' for Inactive)
REMARK       I    between atoms: C14_18  and  N1_4 
REMARK    1  A    between atoms: C4_8  and  N1_4 
REMARK    2  A    between atoms: C1_5  and  C3_7 
REMARK    3  A    between atoms: C13_17  and  C14_18 
REMARK    4  A    between atoms: C13_17  and  C16_20 
ROOT
HETATM    1  C1  UNK     1      14.578   8.700   9.072  1.00  0.00    -0.014 A 
HETATM    2  C2  UNK     1      15.615   7.968   9.652  1.00  0.00    -0.049 A 
HETATM    3  C4  UNK     1      17.068   9.891   9.490  1.00  0.00     0.035 A 
HETATM    4  C5  UNK     1      16.859   8.563   9.861  1.00  0.00     0.037 A 
HETATM    5  C6  UNK     1      14.788  10.029   8.701  1.00  0.00     0.015 A 
HETATM    6  C9  UNK     1      16.032  10.625   8.910  1.00  0.00     0.030 A 
HETATM    7  C11 UNK     1      15.426   6.543  10.063  1.00  0.00     0.049 C 
ENDROOT
BRANCH   1   8
HETATM    8  C3  UNK     1      13.251   8.099   8.836  1.00  0.00     0.051 A 
HETATM    9  C12 UNK     1      12.277   7.967   9.954  1.00  0.00     0.299 A 
HETATM   10  O1  UNK     1      11.035   7.417   9.645  1.00  0.00    -0.274 OA
HETATM   11  O2  UNK     1      12.546   8.317  11.098  1.00  0.00    -0.259 OA
HETATM   12  C10 UNK     1      10.711   6.984   8.346  1.00  0.00     0.089 A 
HETATM   13  C8  UNK     1      11.632   7.106   7.313  1.00  0.00    -0.001 A 
HETATM   14  C17 UNK     1       9.446   6.437   8.141  1.00  0.00     0.038 A 
HETATM   15  C15 UNK     1      11.276   6.666   6.036  1.00  0.00     0.014 A 
HETATM   16  C7  UNK     1      12.933   7.691   7.599  1.00  0.00     0.032 A 
HETATM   17  C18 UNK     1      10.011   6.114   5.814  1.00  0.00     0.001 A 
HETATM   18  C19 UNK     1       9.098   6.000   6.865  1.00  0.00     0.003 A 
ENDBRANCH   1   8
BRANCH   3  19
HETATM   19  N1  UNK     1      18.312  10.487   9.698  1.00  0.00    -0.327 N 
HETATM   20  C14 UNK     1      18.807  11.609   9.037  1.00  0.00     0.226 C 
HETATM   21  O3  UNK     1      18.253  12.273   8.167  1.00  0.00    -0.273 OA
HETATM   22  H8  UNK     1      18.895  10.045  10.405  1.00  0.00     0.169 HD
BRANCH  20  23
HETATM   23  C13 UNK     1      20.200  11.947   9.546  1.00  0.00     0.141 C 
BRANCH  23  24
HETATM   24  C16 UNK     1      20.227  12.350  10.997  1.00  0.00    -0.050 A 
HETATM   25  C20 UNK     1      21.316  12.003  11.783  1.00  0.00     0.007 A 
HETATM   26  C22 UNK     1      21.340  12.377  13.127  1.00  0.00     0.001 A 
HETATM   27  C24 UNK     1      20.275  13.095  13.670  1.00  0.00     0.000 A 
HETATM   28  C23 UNK     1      19.185  13.439  12.870  1.00  0.00     0.001 A 
HETATM   29  C21 UNK     1      19.161  13.064  11.526  1.00  0.00     0.007 A 
ENDBRANCH  23  24
ENDBRANCH  20  23
ENDBRANCH   3  19
TORSDOF 4
ENDMDL
MODEL 5
REMARK VINA RESULT:      -9.0      6.067      8.732
REMARK  4 active torsions:
REMARK  status: ('A' for Active; 'I' for Inactive)
REMARK       I    between atoms: C14_18  and  N1_4 
REMARK    1  A    between atoms: C4_8  and  N1_4 
REMARK    2  A    between atoms: C1_5  and  C3_7 
REMARK    3  A    between atoms: C13_17  and  C14_18 
REMARK    4  A    between atoms: C13_17  and  C16_20 
ROOT
HETATM    1  C1  UNK     1      18.567  -0.448  35.441  1.00  0.00    -0.014 A 
HETATM    2  C2  UNK     1      17.421  -1.120  35.868  1.00  0.00    -0.049 A 
HETATM    3  C4  UNK     1      18.767  -3.027  36.492  1.00  0.00     0.035 A 
HETATM    4  C5  UNK     1      17.521  -2.408  36.393  1.00  0.00     0.037 A 
HETATM    5  C6  UNK     1      19.813  -1.068  35.540  1.00  0.00     0.015 A 
HETATM    6  C9  UNK     1      19.914  -2.357  36.066  1.00  0.00     0.030 A 
HETATM    7  C11 UNK     1      16.069  -0.487  35.779  1.00  0.00     0.049 C 
ENDROOT
BRANCH   1   8
HETATM    8  C3  UNK     1      18.495   0.914  34.880  1.00  0.00     0.051 A 
HETATM    9  C12 UNK     1      18.546   2.101  35.778  1.00  0.00     0.299 A 
HETATM   10  O1  UNK     1      18.502   3.354  35.170  1.00  0.00    -0.274 OA
HETATM   11  O2  UNK     1      18.616   1.993  36.997  1.00  0.00    -0.259 OA
HETATM   12  C10 UNK     1      18.396   3.504  33.775  1.00  0.00     0.089 A 
HETATM   13  C8  UNK     1      18.342   2.389  32.948  1.00  0.00    -0.001 A 
HETATM   14  C17 UNK     1      18.349   4.799  33.264  1.00  0.00     0.038 A 
HETATM   15  C15 UNK     1      18.237   2.576  31.568  1.00  0.00     0.014 A 
HETATM   16  C7  UNK     1      18.401   1.066  33.550  1.00  0.00     0.032 A 
HETATM   17  C18 UNK     1      18.188   3.869  31.040  1.00  0.00     0.001 A 
HETATM   18  C19 UNK     1      18.243   4.979  31.886  1.00  0.00     0.003 A 
ENDBRANCH   1   8
BRANCH   3  19
HETATM   19  N1  UNK     1      18.867  -4.316  37.016  1.00  0.00    -0.327 N 
HETATM   20  C14 UNK     1      19.502  -5.401  36.415  1.00  0.00     0.226 C 
HETATM   21  O3  UNK     1      20.083  -5.426  35.335  1.00  0.00    -0.273 OA
HETATM   22  H8  UNK     1      18.430  -4.453  37.924  1.00  0.00     0.169 HD
BRANCH  20  23
HETATM   23  C13 UNK     1      19.394  -6.631  37.303  1.00  0.00     0.141 C 
BRANCH  23  24
HETATM   24  C16 UNK     1      20.610  -6.862  38.160  1.00  0.00    -0.050 A 
HETATM   25  C20 UNK     1      21.643  -5.936  38.145  1.00  0.00     0.007 A 
HETATM   26  C22 UNK     1      22.768  -6.150  38.940  1.00  0.00     0.001 A 
HETATM   27  C24 UNK     1      22.850  -7.289  39.742  1.00  0.00     0.000 A 
HETATM   28  C23 UNK     1      21.806  -8.214  39.748  1.00  0.00     0.001 A 
HETATM   29  C21 UNK     1      20.679  -7.999  38.953  1.00  0.00     0.007 A 
ENDBRANCH  23  24
ENDBRANCH  20  23
ENDBRANCH   3  19
TORSDOF 4
ENDMDL
MODEL 6
REMARK VINA RESULT:      -8.8     14.882     18.303
REMARK  4 active torsions:
REMARK  status: ('A' for Active; 'I' for Inactive)
REMARK       I    between atoms: C14_18  and  N1_4 
REMARK    1  A    between atoms: C4_8  and  N1_4 
REMARK    2  A    between atoms: C1_5  and  C3_7 
REMARK    3  A    between atoms: C13_17  and  C14_18 
REMARK    4  A    between atoms: C13_17  and  C16_20 
ROOT
HETATM    1  C1  UNK     1      28.986  -7.564  37.839  1.00  0.00    -0.014 A 
HETATM    2  C2  UNK     1      28.136  -8.286  37.000  1.00  0.00    -0.049 A 
HETATM    3  C4  UNK     1      26.386  -8.161  38.662  1.00  0.00     0.035 A 
HETATM    4  C5  UNK     1      26.837  -8.585  37.411  1.00  0.00     0.037 A 
HETATM    5  C6  UNK     1      28.533  -7.140  39.090  1.00  0.00     0.015 A 
HETATM    6  C9  UNK     1      27.234  -7.438  39.501  1.00  0.00     0.030 A 
HETATM    7  C11 UNK     1      28.585  -8.754  35.654  1.00  0.00     0.049 C 
ENDROOT
BRANCH   1   8
HETATM    8  C3  UNK     1      30.366  -7.233  37.434  1.00  0.00     0.051 A 
HETATM    9  C12 UNK     1      31.477  -8.185  37.708  1.00  0.00     0.299 A 
HETATM   10  O1  UNK     1      32.746  -7.815  37.269  1.00  0.00    -0.274 OA
HETATM   11  O2  UNK     1      31.297  -9.246  38.298  1.00  0.00    -0.259 OA
HETATM   12  C10 UNK     1      32.983  -6.593  36.613  1.00  0.00     0.089 A 
HETATM   13  C8  UNK     1      31.938  -5.710  36.370  1.00  0.00    -0.001 A 
HETATM   14  C17 UNK     1      34.290  -6.309  36.222  1.00  0.00     0.038 A 
HETATM   15  C15 UNK     1      32.210  -4.506  35.716  1.00  0.00     0.014 A 
HETATM   16  C7  UNK     1      30.598  -6.074  36.803  1.00  0.00     0.032 A 
HETATM   17  C18 UNK     1      33.516  -4.206  35.319  1.00  0.00     0.001 A 
HETATM   18  C19 UNK     1      34.554  -5.106  35.572  1.00  0.00     0.003 A 
ENDBRANCH   1   8
BRANCH   3  19
HETATM   19  N1  UNK     1      25.087  -8.460  39.073  1.00  0.00    -0.327 N 
HETATM   20  C14 UNK     1      24.001  -7.587  39.066  1.00  0.00     0.226 C 
HETATM   21  O3  UNK     1      23.982  -6.416  38.703  1.00  0.00    -0.273 OA
HETATM   22  H8  UNK     1      24.941  -9.412  39.403  1.00  0.00     0.169 HD
BRANCH  20  23
HETATM   23  C13 UNK     1      22.757  -8.291  39.589  1.00  0.00     0.141 C 
BRANCH  23  24
HETATM   24  C16 UNK     1      21.560  -8.143  38.687  1.00  0.00    -0.050 A 
HETATM   25  C20 UNK     1      21.594  -8.685  37.411  1.00  0.00     0.007 A 
HETATM   26  C22 UNK     1      20.484  -8.548  36.578  1.00  0.00     0.001 A 
HETATM   27  C24 UNK     1      19.352  -7.870  37.029  1.00  0.00     0.000 A 
HETATM   28  C23 UNK     1      19.330  -7.328  38.314  1.00  0.00     0.001 A 
HETATM   29  C21 UNK     1      20.440  -7.465  39.148  1.00  0.00     0.007 A 
ENDBRANCH  23  24
ENDBRANCH  20  23
ENDBRANCH   3  19
TORSDOF 4
ENDMDL
MODEL 7
REMARK VINA RESULT:      -8.8     15.775     18.243
REMARK  4 active torsions:
REMARK  status: ('A' for Active; 'I' for Inactive)
REMARK       I    between atoms: C14_18  and  N1_4 
REMARK    1  A    between atoms: C4_8  and  N1_4 
REMARK    2  A    between atoms: C1_5  and  C3_7 
REMARK    3  A    between atoms: C13_17  and  C14_18 
REMARK    4  A    between atoms: C13_17  and  C16_20 
ROOT
HETATM    1  C1  UNK     1      28.195  -7.597  37.341  1.00  0.00    -0.014 A 
HETATM    2  C2  UNK     1      27.478  -8.715  36.914  1.00  0.00    -0.049 A 
HETATM    3  C4  UNK     1      25.719  -8.191  38.485  1.00  0.00     0.035 A 
HETATM    4  C5  UNK     1      26.241  -9.012  37.485  1.00  0.00     0.037 A 
HETATM    5  C6  UNK     1      27.672  -6.776  38.341  1.00  0.00     0.015 A 
HETATM    6  C9  UNK     1      26.434  -7.072  38.913  1.00  0.00     0.030 A 
HETATM    7  C11 UNK     1      28.006  -9.616  35.844  1.00  0.00     0.049 C 
ENDROOT
BRANCH   1   8
HETATM    8  C3  UNK     1      29.507  -7.256  36.758  1.00  0.00     0.051 A 
HETATM    9  C12 UNK     1      29.589  -6.599  35.424  1.00  0.00     0.299 A 
HETATM   10  O1  UNK     1      30.862  -6.283  34.955  1.00  0.00    -0.274 OA
HETATM   11  O2  UNK     1      28.590  -6.350  34.758  1.00  0.00    -0.259 OA
HETATM   12  C10 UNK     1      32.024  -6.582  35.689  1.00  0.00     0.089 A 
HETATM   13  C8  UNK     1      31.935  -7.202  36.929  1.00  0.00    -0.001 A 
HETATM   14  C17 UNK     1      33.252  -6.235  35.129  1.00  0.00     0.038 A 
HETATM   15  C15 UNK     1      33.110  -7.483  37.629  1.00  0.00     0.014 A 
HETATM   16  C7  UNK     1      30.619  -7.532  37.454  1.00  0.00     0.032 A 
HETATM   17  C18 UNK     1      34.349  -7.142  37.080  1.00  0.00     0.001 A 
HETATM   18  C19 UNK     1      34.420  -6.519  35.832  1.00  0.00     0.003 A 
ENDBRANCH   1   8
BRANCH   3  19
HETATM   19  N1  UNK     1      24.482  -8.488  39.057  1.00  0.00    -0.327 N 
HETATM   20  C14 UNK     1      23.331  -7.706  38.980  1.00  0.00     0.226 C 
HETATM   21  O3  UNK     1      23.191  -6.632  38.405  1.00  0.00    -0.273 OA
HETATM   22  H8  UNK     1      24.438  -9.364  39.572  1.00  0.00     0.169 HD
BRANCH  20  23
HETATM   23  C13 UNK     1      22.190  -8.374  39.733  1.00  0.00     0.141 C 
BRANCH  23  24
HETATM   24  C16 UNK     1      21.049  -8.794  38.844  1.00  0.00    -0.050 A 
HETATM   25  C20 UNK     1      21.249  -9.792  37.901  1.00  0.00     0.007 A 
HETATM   26  C22 UNK     1      20.192 -10.181  37.079  1.00  0.00     0.001 A 
HETATM   27  C24 UNK     1      18.945  -9.569  37.209  1.00  0.00     0.000 A 
HETATM   28  C23 UNK     1      18.756  -8.566  38.161  1.00  0.00     0.001 A 
HETATM   29  C21 UNK     1      19.814  -8.177  38.983  1.00  0.00     0.007 A 
ENDBRANCH  23  24
ENDBRANCH  20  23
ENDBRANCH   3  19
TORSDOF 4
ENDMDL
MODEL 8
REMARK VINA RESULT:      -8.8      6.081      9.176
REMARK  4 active torsions:
REMARK  status: ('A' for Active; 'I' for Inactive)
REMARK       I    between atoms: C14_18  and  N1_4 
REMARK    1  A    between atoms: C4_8  and  N1_4 
REMARK    2  A    between atoms: C1_5  and  C3_7 
REMARK    3  A    between atoms: C13_17  and  C14_18 
REMARK    4  A    between atoms: C13_17  and  C16_20 
ROOT
HETATM    1  C1  UNK     1      18.914  -0.829  35.050  1.00  0.00    -0.014 A 
HETATM    2  C2  UNK     1      17.849  -1.390  35.756  1.00  0.00    -0.049 A 
HETATM    3  C4  UNK     1      19.363  -2.960  36.796  1.00  0.00     0.035 A 
HETATM    4  C5  UNK     1      18.073  -2.455  36.628  1.00  0.00     0.037 A 
HETATM    5  C6  UNK     1      20.203  -1.335  35.219  1.00  0.00     0.015 A 
HETATM    6  C9  UNK     1      20.428  -2.400  36.091  1.00  0.00     0.030 A 
HETATM    7  C11 UNK     1      16.455  -0.874  35.603  1.00  0.00     0.049 C 
ENDROOT
BRANCH   1   8
HETATM    8  C3  UNK     1      18.709   0.297  34.119  1.00  0.00     0.051 A 
HETATM    9  C12 UNK     1      18.599   0.051  32.655  1.00  0.00     0.299 A 
HETATM   10  O1  UNK     1      18.377   1.161  31.844  1.00  0.00    -0.274 OA
HETATM   11  O2  UNK     1      18.703  -1.073  32.172  1.00  0.00    -0.259 OA
HETATM   12  C10 UNK     1      18.278   2.462  32.370  1.00  0.00     0.089 A 
HETATM   13  C8  UNK     1      18.390   2.680  33.737  1.00  0.00    -0.001 A 
HETATM   14  C17 UNK     1      18.066   3.509  31.475  1.00  0.00     0.038 A 
HETATM   15  C15 UNK     1      18.287   3.985  34.224  1.00  0.00     0.014 A 
HETATM   16  C7  UNK     1      18.607   1.539  34.613  1.00  0.00     0.032 A 
HETATM   17  C18 UNK     1      18.075   5.046  33.339  1.00  0.00     0.001 A 
HETATM   18  C19 UNK     1      17.965   4.809  31.967  1.00  0.00     0.003 A 
ENDBRANCH   1   8
BRANCH   3  19
HETATM   19  N1  UNK     1      19.587  -4.026  37.668  1.00  0.00    -0.327 N 
HETATM   20  C14 UNK     1      20.148  -5.257  37.334  1.00  0.00     0.226 C 
HETATM   21  O3  UNK     1      20.545  -5.627  36.234  1.00  0.00    -0.273 OA
HETATM   22  H8  UNK     1      19.309  -3.867  38.634  1.00  0.00     0.169 HD
BRANCH  20  23
HETATM   23  C13 UNK     1      20.225  -6.151  38.563  1.00  0.00     0.141 C 
BRANCH  23  24
HETATM   24  C16 UNK     1      20.189  -7.621  38.239  1.00  0.00    -0.050 A 
HETATM   25  C20 UNK     1      21.378  -8.302  38.019  1.00  0.00     0.007 A 
HETATM   26  C22 UNK     1      21.343  -9.664  37.720  1.00  0.00     0.001 A 
HETATM   27  C24 UNK     1      20.120 -10.331  37.643  1.00  0.00     0.000 A 
HETATM   28  C23 UNK     1      18.932  -9.635  37.865  1.00  0.00     0.001 A 
HETATM   29  C21 UNK     1      18.966  -8.273  38.165  1.00  0.00     0.007 A 
ENDBRANCH  23  24
ENDBRANCH  20  23
ENDBRANCH   3  19
TORSDOF 4
ENDMDL
MODEL 9
REMARK VINA RESULT:      -8.8     22.470     24.335
REMARK  4 active torsions:
REMARK  status: ('A' for Active; 'I' for Inactive)
REMARK       I    between atoms: C14_18  and  N1_4 
REMARK    1  A    between atoms: C4_8  and  N1_4 
REMARK    2  A    between atoms: C1_5  and  C3_7 
REMARK    3  A    between atoms: C13_17  and  C14_18 
REMARK    4  A    between atoms: C13_17  and  C16_20 
ROOT
HETATM    1  C1  UNK     1      16.556  10.137   9.518  1.00  0.00    -0.014 A 
HETATM    2  C2  UNK     1      15.519  10.233   8.589  1.00  0.00    -0.049 A 
HETATM    3  C4  UNK     1      14.643   8.112   9.343  1.00  0.00     0.035 A 
HETATM    4  C5  UNK     1      14.563   9.222   8.501  1.00  0.00     0.037 A 
HETATM    5  C6  UNK     1      16.634   9.027  10.360  1.00  0.00     0.015 A 
HETATM    6  C9  UNK     1      15.678   8.014  10.273  1.00  0.00     0.030 A 
HETATM    7  C11 UNK     1      15.402  11.409   7.672  1.00  0.00     0.049 C 
ENDROOT
BRANCH   1   8
HETATM    8  C3  UNK     1      17.583  11.190   9.635  1.00  0.00     0.051 A 
HETATM    9  C12 UNK     1      17.401  12.315  10.592  1.00  0.00     0.299 A 
HETATM   10  O1  UNK     1      18.429  13.253  10.665  1.00  0.00    -0.274 OA
HETATM   11  O2  UNK     1      16.395  12.426  11.285  1.00  0.00    -0.259 OA
HETATM   12  C10 UNK     1      19.582  13.161   9.864  1.00  0.00     0.089 A 
HETATM   13  C8  UNK     1      19.736  12.110   8.968  1.00  0.00    -0.001 A 
HETATM   14  C17 UNK     1      20.549  14.155  10.003  1.00  0.00     0.038 A 
HETATM   15  C15 UNK     1      20.894  12.053   8.189  1.00  0.00     0.014 A 
HETATM   16  C7  UNK     1      18.688  11.106   8.879  1.00  0.00     0.032 A 
HETATM   17  C18 UNK     1      21.873  13.042   8.316  1.00  0.00     0.001 A 
HETATM   18  C19 UNK     1      21.700  14.092   9.221  1.00  0.00     0.003 A 
ENDBRANCH   1   8
BRANCH   3  19
HETATM   19  N1  UNK     1      13.687   7.099   9.255  1.00  0.00    -0.327 N 
HETATM   20  C14 UNK     1      13.851   5.867   8.625  1.00  0.00     0.226 C 
HETATM   21  O3  UNK     1      14.846   5.449   8.043  1.00  0.00    -0.273 OA
HETATM   22  H8  UNK     1      12.795   7.300   9.702  1.00  0.00     0.169 HD
BRANCH  20  23
HETATM   23  C13 UNK     1      12.580   5.041   8.747  1.00  0.00     0.141 C 
BRANCH  23  24
HETATM   24  C16 UNK     1      11.438   5.569   7.920  1.00  0.00    -0.050 A 
HETATM   25  C20 UNK     1      10.191   5.741   8.504  1.00  0.00     0.007 A 
HETATM   26  C22 UNK     1       9.135   6.231   7.737  1.00  0.00     0.001 A 
HETATM   27  C24 UNK     1       9.336   6.544   6.392  1.00  0.00     0.000 A 
HETATM   28  C23 UNK     1      10.593   6.367   5.815  1.00  0.00     0.001 A 
HETATM   29  C21 UNK     1      11.650   5.877   6.583  1.00  0.00     0.007 A 
ENDBRANCH  23  24
ENDBRANCH  20  23
ENDBRANCH   3  19
TORSDOF 4
ENDMDL
MODEL 10
REMARK VINA RESULT:      -8.8     13.972     18.384
REMARK  4 active torsions:
REMARK  status: ('A' for Active; 'I' for Inactive)
REMARK       I    between atoms: C14_18  and  N1_4 
REMARK    1  A    between atoms: C4_8  and  N1_4 
REMARK    2  A    between atoms: C1_5  and  C3_7 
REMARK    3  A    between atoms: C13_17  and  C14_18 
REMARK    4  A    between atoms: C13_17  and  C16_20 
ROOT
HETATM    1  C1  UNK     1      28.393  -8.631  37.425  1.00  0.00    -0.014 A 
HETATM    2  C2  UNK     1      27.466  -8.212  38.381  1.00  0.00    -0.049 A 
HETATM    3  C4  UNK     1      25.702  -9.326  37.163  1.00  0.00     0.035 A 
HETATM    4  C5  UNK     1      26.122  -8.560  38.250  1.00  0.00     0.037 A 
HETATM    5  C6  UNK     1      27.971  -9.398  36.338  1.00  0.00     0.015 A 
HETATM    6  C9  UNK     1      26.627  -9.746  36.207  1.00  0.00     0.030 A 
HETATM    7  C11 UNK     1      27.881  -7.391  39.559  1.00  0.00     0.049 C 
ENDROOT
BRANCH   1   8
HETATM    8  C3  UNK     1      29.821  -8.278  37.534  1.00  0.00     0.051 A 
HETATM    9  C12 UNK     1      30.771  -9.193  38.225  1.00  0.00     0.299 A 
HETATM   10  O1  UNK     1      32.108  -8.805  38.260  1.00  0.00    -0.274 OA
HETATM   11  O2  UNK     1      30.403 -10.240  38.749  1.00  0.00    -0.259 OA
HETATM   12  C10 UNK     1      32.550  -7.598  37.689  1.00  0.00     0.089 A 
HETATM   13  C8  UNK     1      31.653  -6.749  37.053  1.00  0.00    -0.001 A 
HETATM   14  C17 UNK     1      33.906  -7.293  37.786  1.00  0.00     0.038 A 
HETATM   15  C15 UNK     1      32.128  -5.558  36.497  1.00  0.00     0.014 A 
HETATM   16  C7  UNK     1      30.252  -7.133  36.986  1.00  0.00     0.032 A 
HETATM   17  C18 UNK     1      33.486  -5.238  36.587  1.00  0.00     0.001 A 
HETATM   18  C19 UNK     1      34.374  -6.104  37.230  1.00  0.00     0.003 A 
ENDBRANCH   1   8
BRANCH   3  19
HETATM   19  N1  UNK     1      24.357  -9.673  37.032  1.00  0.00    -0.327 N 
HETATM   20  C14 UNK     1      23.266  -8.846  37.290  1.00  0.00     0.226 C 
HETATM   21  O3  UNK     1      23.282  -7.681  37.671  1.00  0.00    -0.273 OA
HETATM   22  H8  UNK     1      24.180 -10.623  36.714  1.00  0.00     0.169 HD
BRANCH  20  23
HETATM   23  C13 UNK     1      21.967  -9.592  37.027  1.00  0.00     0.141 C 
BRANCH  23  24
HETATM   24  C16 UNK     1      20.878  -8.720  36.460  1.00  0.00    -0.050 A 
HETATM   25  C20 UNK     1      19.714  -8.519  37.187  1.00  0.00     0.007 A 
HETATM   26  C22 UNK     1      18.707  -7.710  36.661  1.00  0.00     0.001 A 
HETATM   27  C24 UNK     1      18.874  -7.110  35.413  1.00  0.00     0.000 A 
HETATM   28  C23 UNK     1      20.048  -7.320  34.690  1.00  0.00     0.001 A 
HETATM   29  C21 UNK     1      21.056  -8.130  35.216  1.00  0.00     0.007 A 
ENDBRANCH  23  24
ENDBRANCH  20  23
ENDBRANCH   3  19
TORSDOF 4
ENDMDL
