MODEL 1
REMARK VINA RESULT:      -8.8      0.000      0.000
REMARK  4 active torsions:
REMARK  status: ('A' for Active; 'I' for Inactive)
REMARK    1  A    between atoms: C2_5  and  N1_3 
REMARK       I    between atoms: C5_8  and  N1_3 
REMARK    2  A    between atoms: C1_4  and  C3_6 
REMARK    3  A    between atoms: C1_4  and  C5_8 
REMARK    4  A    between atoms: C6_9  and  C7_10 
ROOT
HETATM    1  C1  UNK     1      20.140  -4.636  36.925  1.00  0.00     0.043 C 
HETATM    2  C6  UNK     1      20.984  -4.893  37.962  1.00  0.00     0.031 C 
ENDROOT
BRANCH   1   3
HETATM    3  C3  UNK     1      19.252  -5.634  36.350  1.00  0.00    -0.021 A 
HETATM    4  C10 UNK     1      17.927  -5.719  36.778  1.00  0.00     0.012 A 
HETATM    5  C18 UNK     1      17.076  -6.677  36.227  1.00  0.00     0.001 A 
HETATM    6  C19 UNK     1      17.551  -7.550  35.247  1.00  0.00     0.000 A 
HETATM    7  C17 UNK     1      18.875  -7.465  34.820  1.00  0.00     0.001 A 
HETATM    8  C9  UNK     1      19.726  -6.507  35.371  1.00  0.00     0.012 A 
ENDBRANCH   1   3
BRANCH   1   9
HETATM    9  C5  UNK     1      20.174  -3.194  36.432  1.00  0.00     0.257 C 
HETATM   10  O1  UNK     1      21.241  -2.617  36.241  1.00  0.00    -0.267 OA
HETATM   11  N1  UNK     1      18.901  -2.671  36.242  1.00  0.00    -0.322 N 
HETATM   12  H2  UNK     1      18.103  -3.267  36.438  1.00  0.00     0.169 HD
BRANCH  11  13
HETATM   13  C2  UNK     1      18.562  -1.371  35.794  1.00  0.00     0.041 A 
HETATM   14  C4  UNK     1      18.138  -0.411  36.698  1.00  0.00    -0.035 A 
HETATM   15  C11 UNK     1      17.810   0.864  36.236  1.00  0.00     0.009 A 
HETATM   16  C12 UNK     1      18.020  -0.701  38.159  1.00  0.00     0.050 C 
HETATM   17  C14 UNK     1      17.911   1.161  34.877  1.00  0.00     0.001 A 
HETATM   18  C13 UNK     1      18.339   0.183  33.979  1.00  0.00     0.002 A 
HETATM   19  C8  UNK     1      18.667  -1.092  34.441  1.00  0.00     0.030 A 
ENDBRANCH  11  13
ENDBRANCH   1   9
BRANCH   2  20
HETATM   20  C7  UNK     1      21.112  -6.186  38.652  1.00  0.00    -0.013 A 
HETATM   21  C15 UNK     1      22.336  -6.649  39.116  1.00  0.00     0.044 A 
HETATM   22 Cl1  UNK     1      23.800  -5.750  38.921  1.00  0.00    -0.083 Cl
HETATM   23  C20 UNK     1      22.404  -7.883  39.764  1.00  0.00     0.024 A 
HETATM   24  C22 UNK     1      21.247  -8.642  39.942  1.00  0.00     0.002 A 
HETATM   25  C21 UNK     1      20.022  -8.167  39.473  1.00  0.00     0.001 A 
HETATM   26  C16 UNK     1      19.954  -6.934  38.825  1.00  0.00     0.013 A 
ENDBRANCH   2  20
TORSDOF 4
ENDMDL
MODEL 2
REMARK VINA RESULT:      -8.8     10.022     12.214
REMARK  4 active torsions:
REMARK  status: ('A' for Active; 'I' for Inactive)
REMARK    1  A    between atoms: C2_5  and  N1_3 
REMARK       I    between atoms: C5_8  and  N1_3 
REMARK    2  A    between atoms: C1_4  and  C3_6 
REMARK    3  A    between atoms: C1_4  and  C5_8 
REMARK    4  A    between atoms: C6_9  and  C7_10 
ROOT
HETATM    1  C1  UNK     1      30.057  -6.427  35.481  1.00  0.00     0.043 C 
HETATM    2  C6  UNK     1      31.278  -6.722  34.953  1.00  0.00     0.031 C 
ENDROOT
BRANCH   1   3
HETATM    3  C3  UNK     1      29.878  -5.821  36.791  1.00  0.00    -0.021 A 
HETATM    4  C10 UNK     1      29.325  -6.565  37.834  1.00  0.00     0.012 A 
HETATM    5  C18 UNK     1      29.152  -5.984  39.090  1.00  0.00     0.001 A 
HETATM    6  C19 UNK     1      29.532  -4.658  39.303  1.00  0.00     0.000 A 
HETATM    7  C17 UNK     1      30.083  -3.915  38.260  1.00  0.00     0.001 A 
HETATM    8  C9  UNK     1      30.257  -4.496  37.004  1.00  0.00     0.012 A 
ENDBRANCH   1   3
BRANCH   1   9
HETATM    9  C5  UNK     1      28.883  -6.755  34.567  1.00  0.00     0.257 C 
HETATM   10  O1  UNK     1      27.734  -6.777  34.999  1.00  0.00    -0.267 OA
HETATM   11  N1  UNK     1      29.284  -7.005  33.261  1.00  0.00    -0.322 N 
HETATM   12  H2  UNK     1      30.273  -6.948  33.044  1.00  0.00     0.169 HD
BRANCH  11  13
HETATM   13  C2  UNK     1      28.462  -7.338  32.156  1.00  0.00     0.041 A 
HETATM   14  C4  UNK     1      28.552  -8.592  31.574  1.00  0.00    -0.035 A 
HETATM   15  C11 UNK     1      27.734  -8.901  30.488  1.00  0.00     0.009 A 
HETATM   16  C12 UNK     1      29.505  -9.627  32.076  1.00  0.00     0.050 C 
HETATM   17  C14 UNK     1      26.835  -7.951  29.999  1.00  0.00     0.001 A 
HETATM   18  C13 UNK     1      26.757  -6.693  30.597  1.00  0.00     0.002 A 
HETATM   19  C8  UNK     1      27.576  -6.384  31.683  1.00  0.00     0.030 A 
ENDBRANCH  11  13
ENDBRANCH   1   9
BRANCH   2  20
HETATM   20  C7  UNK     1      32.570  -6.464  35.606  1.00  0.00    -0.013 A 
HETATM   21  C15 UNK     1      33.081  -7.313  36.578  1.00  0.00     0.044 A 
HETATM   22 Cl1  UNK     1      32.244  -8.734  37.098  1.00  0.00    -0.083 Cl
HETATM   23  C20 UNK     1      34.312  -7.024  37.167  1.00  0.00     0.024 A 
HETATM   24  C22 UNK     1      35.021  -5.887  36.779  1.00  0.00     0.002 A 
HETATM   25  C21 UNK     1      34.499  -5.040  35.800  1.00  0.00     0.001 A 
HETATM   26  C16 UNK     1      33.269  -5.329  35.211  1.00  0.00     0.013 A 
ENDBRANCH   2  20
TORSDOF 4
ENDMDL
MODEL 3
REMARK VINA RESULT:      -8.7      9.297     10.925
REMARK  4 active torsions:
REMARK  status: ('A' for Active; 'I' for Inactive)
REMARK    1  A    between atoms: C2_5  and  N1_3 
REMARK       I    between atoms: C5_8  and  N1_3 
REMARK    2  A    between atoms: C1_4  and  C3_6 
REMARK    3  A    between atoms: C1_4  and  C5_8 
REMARK    4  A    between atoms: C6_9  and  C7_10 
ROOT
HETATM    1  C1  UNK     1      28.982  -7.278  36.125  1.00  0.00     0.043 C 
HETATM    2  C6  UNK     1      28.497  -8.517  36.413  1.00  0.00     0.031 C 
ENDROOT
BRANCH   1   3
HETATM    3  C3  UNK     1      29.327  -6.298  37.143  1.00  0.00    -0.021 A 
HETATM    4  C10 UNK     1      30.662  -6.096  37.494  1.00  0.00     0.012 A 
HETATM    5  C18 UNK     1      30.993  -5.157  38.471  1.00  0.00     0.001 A 
HETATM    6  C19 UNK     1      29.987  -4.419  39.097  1.00  0.00     0.000 A 
HETATM    7  C17 UNK     1      28.653  -4.622  38.748  1.00  0.00     0.001 A 
HETATM    8  C9  UNK     1      28.322  -5.561  37.771  1.00  0.00     0.012 A 
ENDBRANCH   1   3
BRANCH   1   9
HETATM    9  C5  UNK     1      29.170  -7.007  34.638  1.00  0.00     0.257 C 
HETATM   10  O1  UNK     1      30.058  -6.259  34.239  1.00  0.00    -0.267 OA
HETATM   11  N1  UNK     1      28.248  -7.691  33.856  1.00  0.00    -0.322 N 
HETATM   12  H2  UNK     1      27.568  -8.282  34.323  1.00  0.00     0.169 HD
BRANCH  11  13
HETATM   13  C2  UNK     1      28.132  -7.673  32.445  1.00  0.00     0.041 A 
HETATM   14  C4  UNK     1      28.588  -8.744  31.694  1.00  0.00    -0.035 A 
HETATM   15  C11 UNK     1      28.464  -8.708  30.305  1.00  0.00     0.009 A 
HETATM   16  C12 UNK     1      29.213  -9.943  32.331  1.00  0.00     0.050 C 
HETATM   17  C14 UNK     1      27.884  -7.600  29.686  1.00  0.00     0.001 A 
HETATM   18  C13 UNK     1      27.430  -6.529  30.456  1.00  0.00     0.002 A 
HETATM   19  C8  UNK     1      27.554  -6.565  31.845  1.00  0.00     0.030 A 
ENDBRANCH  11  13
ENDBRANCH   1   9
BRANCH   2  20
HETATM   20  C7  UNK     1      28.268  -9.046  37.766  1.00  0.00    -0.013 A 
HETATM   21  C15 UNK     1      29.285  -9.636  38.504  1.00  0.00     0.044 A 
HETATM   22 Cl1  UNK     1      30.895  -9.798  37.894  1.00  0.00    -0.083 Cl
HETATM   23  C20 UNK     1      29.015 -10.122  39.783  1.00  0.00     0.024 A 
HETATM   24  C22 UNK     1      27.730 -10.014  40.314  1.00  0.00     0.002 A 
HETATM   25  C21 UNK     1      26.714  -9.418  39.565  1.00  0.00     0.001 A 
HETATM   26  C16 UNK     1      26.984  -8.932  38.286  1.00  0.00     0.013 A 
ENDBRANCH   2  20
TORSDOF 4
ENDMDL
MODEL 4
REMARK VINA RESULT:      -8.6     29.075     31.867
REMARK  4 active torsions:
REMARK  status: ('A' for Active; 'I' for Inactive)
REMARK    1  A    between atoms: C2_5  and  N1_3 
REMARK       I    between atoms: C5_8  and  N1_3 
REMARK    2  A    between atoms: C1_4  and  C3_6 
REMARK    3  A    between atoms: C1_4  and  C5_8 
REMARK    4  A    between atoms: C6_9  and  C7_10 
ROOT
HETATM    1  C1  UNK     1      13.458   8.872   9.802  1.00  0.00     0.043 C 
HETATM    2  C6  UNK     1      14.437   8.860   8.855  1.00  0.00     0.031 C 
ENDROOT
BRANCH   1   3
HETATM    3  C3  UNK     1      13.407   9.841  10.886  1.00  0.00    -0.021 A 
HETATM    4  C10 UNK     1      13.990   9.542  12.118  1.00  0.00     0.012 A 
HETATM    5  C18 UNK     1      13.940  10.470  13.157  1.00  0.00     0.001 A 
HETATM    6  C19 UNK     1      13.306  11.699  12.965  1.00  0.00     0.000 A 
HETATM    7  C17 UNK     1      12.722  11.997  11.734  1.00  0.00     0.001 A 
HETATM    8  C9  UNK     1      12.773  11.069  10.694  1.00  0.00     0.012 A 
ENDBRANCH   1   3
BRANCH   1   9
HETATM    9  C5  UNK     1      12.391   7.800   9.616  1.00  0.00     0.257 C 
HETATM   10  O1  UNK     1      12.421   6.761  10.269  1.00  0.00    -0.267 OA
HETATM   11  N1  UNK     1      11.446   8.156   8.663  1.00  0.00    -0.322 N 
HETATM   12  H2  UNK     1      11.545   9.054   8.201  1.00  0.00     0.169 HD
BRANCH  11  13
HETATM   13  C2  UNK     1      10.323   7.404   8.240  1.00  0.00     0.041 A 
HETATM   14  C4  UNK     1      10.381   6.660   7.073  1.00  0.00    -0.035 A 
HETATM   15  C11 UNK     1       9.265   5.924   6.675  1.00  0.00     0.009 A 
HETATM   16  C12 UNK     1      11.610   6.622   6.223  1.00  0.00     0.050 C 
HETATM   17  C14 UNK     1       8.105   5.943   7.451  1.00  0.00     0.001 A 
HETATM   18  C13 UNK     1       8.062   6.697   8.623  1.00  0.00     0.002 A 
HETATM   19  C8  UNK     1       9.178   7.433   9.021  1.00  0.00     0.030 A 
ENDBRANCH  11  13
ENDBRANCH   1   9
BRANCH   2  20
HETATM   20  C7  UNK     1      15.555   9.812   8.777  1.00  0.00    -0.013 A 
HETATM   21  C15 UNK     1      16.737   9.612   9.476  1.00  0.00     0.044 A 
HETATM   22 Cl1  UNK     1      16.989   8.234  10.491  1.00  0.00    -0.083 Cl
HETATM   23  C20 UNK     1      17.768  10.545   9.368  1.00  0.00     0.024 A 
HETATM   24  C22 UNK     1      17.607  11.671   8.561  1.00  0.00     0.002 A 
HETATM   25  C21 UNK     1      16.416  11.864   7.861  1.00  0.00     0.001 A 
HETATM   26  C16 UNK     1      15.385  10.931   7.969  1.00  0.00     0.013 A 
ENDBRANCH   2  20
TORSDOF 4
ENDMDL
MODEL 5
REMARK VINA RESULT:      -8.6      9.055     12.269
REMARK  4 active torsions:
REMARK  status: ('A' for Active; 'I' for Inactive)
REMARK    1  A    between atoms: C2_5  and  N1_3 
REMARK       I    between atoms: C5_8  and  N1_3 
REMARK    2  A    between atoms: C1_4  and  C3_6 
REMARK    3  A    between atoms: C1_4  and  C5_8 
REMARK    4  A    between atoms: C6_9  and  C7_10 
ROOT
HETATM    1  C1  UNK     1      18.139   5.946  31.656  1.00  0.00     0.043 C 
HETATM    2  C6  UNK     1      17.439   4.803  31.415  1.00  0.00     0.031 C 
ENDROOT
BRANCH   1   3
HETATM    3  C3  UNK     1      19.591   5.995  31.720  1.00  0.00    -0.021 A 
HETATM    4  C10 UNK     1      20.229   6.215  32.941  1.00  0.00     0.012 A 
HETATM    5  C18 UNK     1      21.621   6.263  33.003  1.00  0.00     0.001 A 
HETATM    6  C19 UNK     1      22.377   6.091  31.842  1.00  0.00     0.000 A 
HETATM    7  C17 UNK     1      21.739   5.873  30.621  1.00  0.00     0.001 A 
HETATM    8  C9  UNK     1      20.347   5.824  30.560  1.00  0.00     0.012 A 
ENDBRANCH   1   3
BRANCH   1   9
HETATM    9  C5  UNK     1      17.274   7.189  31.821  1.00  0.00     0.257 C 
HETATM   10  O1  UNK     1      16.816   7.774  30.843  1.00  0.00    -0.267 OA
HETATM   11  N1  UNK     1      17.094   7.534  33.154  1.00  0.00    -0.322 N 
HETATM   12  H2  UNK     1      17.530   6.954  33.863  1.00  0.00     0.169 HD
BRANCH  11  13
HETATM   13  C2  UNK     1      16.351   8.625  33.670  1.00  0.00     0.041 A 
HETATM   14  C4  UNK     1      16.997   9.792  34.045  1.00  0.00    -0.035 A 
HETATM   15  C11 UNK     1      16.248  10.855  34.548  1.00  0.00     0.009 A 
HETATM   16  C12 UNK     1      18.478   9.946  33.926  1.00  0.00     0.050 C 
HETATM   17  C14 UNK     1      14.863  10.737  34.670  1.00  0.00     0.001 A 
HETATM   18  C13 UNK     1      14.228   9.555  34.287  1.00  0.00     0.002 A 
HETATM   19  C8  UNK     1      14.977   8.491  33.784  1.00  0.00     0.030 A 
ENDBRANCH  11  13
ENDBRANCH   1   9
BRANCH   2  20
HETATM   20  C7  UNK     1      18.031   3.479  31.175  1.00  0.00    -0.013 A 
HETATM   21  C15 UNK     1      18.376   2.630  32.218  1.00  0.00     0.044 A 
HETATM   22 Cl1  UNK     1      18.139   3.060  33.876  1.00  0.00    -0.083 Cl
HETATM   23  C20 UNK     1      18.935   1.384  31.936  1.00  0.00     0.024 A 
HETATM   24  C22 UNK     1      19.145   0.997  30.612  1.00  0.00     0.002 A 
HETATM   25  C21 UNK     1      18.794   1.856  29.570  1.00  0.00     0.001 A 
HETATM   26  C16 UNK     1      18.235   3.102  29.852  1.00  0.00     0.013 A 
ENDBRANCH   2  20
TORSDOF 4
ENDMDL
MODEL 6
REMARK VINA RESULT:      -8.6      9.230     10.929
REMARK  4 active torsions:
REMARK  status: ('A' for Active; 'I' for Inactive)
REMARK    1  A    between atoms: C2_5  and  N1_3 
REMARK       I    between atoms: C5_8  and  N1_3 
REMARK    2  A    between atoms: C1_4  and  C3_6 
REMARK    3  A    between atoms: C1_4  and  C5_8 
REMARK    4  A    between atoms: C6_9  and  C7_10 
ROOT
HETATM    1  C1  UNK     1      28.893  -7.349  36.126  1.00  0.00     0.043 C 
HETATM    2  C6  UNK     1      28.443  -8.602  36.415  1.00  0.00     0.031 C 
ENDROOT
BRANCH   1   3
HETATM    3  C3  UNK     1      29.232  -6.367  37.144  1.00  0.00    -0.021 A 
HETATM    4  C10 UNK     1      30.567  -6.145  37.483  1.00  0.00     0.012 A 
HETATM    5  C18 UNK     1      30.892  -5.204  38.459  1.00  0.00     0.001 A 
HETATM    6  C19 UNK     1      29.881  -4.484  39.098  1.00  0.00     0.000 A 
HETATM    7  C17 UNK     1      28.546  -4.707  38.760  1.00  0.00     0.001 A 
HETATM    8  C9  UNK     1      28.221  -5.648  37.783  1.00  0.00     0.012 A 
ENDBRANCH   1   3
BRANCH   1   9
HETATM    9  C5  UNK     1      29.048  -7.065  34.637  1.00  0.00     0.257 C 
HETATM   10  O1  UNK     1      29.789  -6.172  34.238  1.00  0.00    -0.267 OA
HETATM   11  N1  UNK     1      28.275  -7.915  33.855  1.00  0.00    -0.322 N 
HETATM   12  H2  UNK     1      27.708  -8.614  34.322  1.00  0.00     0.169 HD
BRANCH  11  13
HETATM   13  C2  UNK     1      28.177  -7.933  32.442  1.00  0.00     0.041 A 
HETATM   14  C4  UNK     1      28.718  -8.985  31.719  1.00  0.00    -0.035 A 
HETATM   15  C11 UNK     1      28.609  -8.985  30.329  1.00  0.00     0.009 A 
HETATM   16  C12 UNK     1      29.418 -10.123  32.388  1.00  0.00     0.050 C 
HETATM   17  C14 UNK     1      27.960  -7.934  29.680  1.00  0.00     0.001 A 
HETATM   18  C13 UNK     1      27.421  -6.883  30.422  1.00  0.00     0.002 A 
HETATM   19  C8  UNK     1      27.530  -6.882  31.812  1.00  0.00     0.030 A 
ENDBRANCH  11  13
ENDBRANCH   1   9
BRANCH   2  20
HETATM   20  C7  UNK     1      28.251  -9.144  37.768  1.00  0.00    -0.013 A 
HETATM   21  C15 UNK     1      27.000  -9.185  38.369  1.00  0.00     0.044 A 
HETATM   22 Cl1  UNK     1      25.575  -8.605  37.579  1.00  0.00    -0.083 Cl
HETATM   23  C20 UNK     1      26.871  -9.710  39.654  1.00  0.00     0.024 A 
HETATM   24  C22 UNK     1      27.994 -10.189  40.329  1.00  0.00     0.002 A 
HETATM   25  C21 UNK     1      29.247 -10.144  39.716  1.00  0.00     0.001 A 
HETATM   26  C16 UNK     1      29.376  -9.619  38.431  1.00  0.00     0.013 A 
ENDBRANCH   2  20
TORSDOF 4
ENDMDL
MODEL 7
REMARK VINA RESULT:      -8.5      2.517      4.219
REMARK  4 active torsions:
REMARK  status: ('A' for Active; 'I' for Inactive)
REMARK    1  A    between atoms: C2_5  and  N1_3 
REMARK       I    between atoms: C5_8  and  N1_3 
REMARK    2  A    between atoms: C1_4  and  C3_6 
REMARK    3  A    between atoms: C1_4  and  C5_8 
REMARK    4  A    between atoms: C6_9  and  C7_10 
ROOT
HETATM    1  C1  UNK     1      19.773  -6.396  36.997  1.00  0.00     0.043 C 
HETATM    2  C6  UNK     1      19.496  -7.395  36.115  1.00  0.00     0.031 C 
ENDROOT
BRANCH   1   3
HETATM    3  C3  UNK     1      20.830  -6.478  37.992  1.00  0.00    -0.021 A 
HETATM    4  C10 UNK     1      21.996  -5.728  37.835  1.00  0.00     0.012 A 
HETATM    5  C18 UNK     1      23.011  -5.807  38.789  1.00  0.00     0.001 A 
HETATM    6  C19 UNK     1      22.859  -6.636  39.901  1.00  0.00     0.000 A 
HETATM    7  C17 UNK     1      21.694  -7.386  40.058  1.00  0.00     0.001 A 
HETATM    8  C9  UNK     1      20.679  -7.307  39.104  1.00  0.00     0.012 A 
ENDBRANCH   1   3
BRANCH   1   9
HETATM    9  C5  UNK     1      18.900  -5.157  36.835  1.00  0.00     0.257 C 
HETATM   10  O1  UNK     1      17.687  -5.255  36.676  1.00  0.00    -0.267 OA
HETATM   11  N1  UNK     1      19.638  -3.981  36.893  1.00  0.00    -0.322 N 
HETATM   12  H2  UNK     1      20.640  -4.049  37.033  1.00  0.00     0.169 HD
BRANCH  11  13
HETATM   13  C2  UNK     1      19.154  -2.654  36.781  1.00  0.00     0.041 A 
HETATM   14  C4  UNK     1      19.394  -1.920  35.631  1.00  0.00    -0.035 A 
HETATM   15  C11 UNK     1      18.908  -0.616  35.539  1.00  0.00     0.009 A 
HETATM   16  C12 UNK     1      20.162  -2.486  34.480  1.00  0.00     0.050 C 
HETATM   17  C14 UNK     1      18.188  -0.064  36.600  1.00  0.00     0.001 A 
HETATM   18  C13 UNK     1      17.955  -0.816  37.751  1.00  0.00     0.002 A 
HETATM   19  C8  UNK     1      18.442  -2.120  37.843  1.00  0.00     0.030 A 
ENDBRANCH  11  13
ENDBRANCH   1   9
BRANCH   2  20
HETATM   20  C7  UNK     1      20.217  -8.674  36.027  1.00  0.00    -0.013 A 
HETATM   21  C15 UNK     1      19.905  -9.748  36.850  1.00  0.00     0.044 A 
HETATM   22 Cl1  UNK     1      18.652  -9.669  38.039  1.00  0.00    -0.083 Cl
HETATM   23  C20 UNK     1      20.620 -10.940  36.727  1.00  0.00     0.024 A 
HETATM   24  C22 UNK     1      21.640 -11.047  35.781  1.00  0.00     0.002 A 
HETATM   25  C21 UNK     1      21.945  -9.962  34.958  1.00  0.00     0.001 A 
HETATM   26  C16 UNK     1      21.230  -8.771  35.081  1.00  0.00     0.013 A 
ENDBRANCH   2  20
TORSDOF 4
ENDMDL
MODEL 8
REMARK VINA RESULT:      -8.5      6.701     10.438
REMARK  4 active torsions:
REMARK  status: ('A' for Active; 'I' for Inactive)
REMARK    1  A    between atoms: C2_5  and  N1_3 
REMARK       I    between atoms: C5_8  and  N1_3 
REMARK    2  A    between atoms: C1_4  and  C3_6 
REMARK    3  A    between atoms: C1_4  and  C5_8 
REMARK    4  A    between atoms: C6_9  and  C7_10 
ROOT
HETATM    1  C1  UNK     1      18.387   3.153  32.704  1.00  0.00     0.043 C 
HETATM    2  C6  UNK     1      18.308   4.459  32.328  1.00  0.00     0.031 C 
ENDROOT
BRANCH   1   3
HETATM    3  C3  UNK     1      18.364   2.718  34.092  1.00  0.00    -0.021 A 
HETATM    4  C10 UNK     1      17.390   1.817  34.524  1.00  0.00     0.012 A 
HETATM    5  C18 UNK     1      17.367   1.400  35.855  1.00  0.00     0.001 A 
HETATM    6  C19 UNK     1      18.318   1.885  36.754  1.00  0.00     0.000 A 
HETATM    7  C17 UNK     1      19.290   2.786  36.322  1.00  0.00     0.001 A 
HETATM    8  C9  UNK     1      19.314   3.203  34.991  1.00  0.00     0.012 A 
ENDBRANCH   1   3
BRANCH   1   9
HETATM    9  C5  UNK     1      18.469   2.169  31.543  1.00  0.00     0.257 C 
HETATM   10  O1  UNK     1      17.762   2.306  30.549  1.00  0.00    -0.267 OA
HETATM   11  N1  UNK     1      19.402   1.165  31.767  1.00  0.00    -0.322 N 
HETATM   12  H2  UNK     1      19.921   1.178  32.639  1.00  0.00     0.169 HD
BRANCH  11  13
HETATM   13  C2  UNK     1      19.737   0.092  30.905  1.00  0.00     0.041 A 
HETATM   14  C4  UNK     1      19.731  -1.210  31.380  1.00  0.00    -0.035 A 
HETATM   15  C11 UNK     1      20.062  -2.253  30.515  1.00  0.00     0.009 A 
HETATM   16  C12 UNK     1      19.381  -1.531  32.796  1.00  0.00     0.050 C 
HETATM   17  C14 UNK     1      20.393  -1.980  29.187  1.00  0.00     0.001 A 
HETATM   18  C13 UNK     1      20.394  -0.663  28.725  1.00  0.00     0.002 A 
HETATM   19  C8  UNK     1      20.064   0.380  29.590  1.00  0.00     0.030 A 
ENDBRANCH  11  13
ENDBRANCH   1   9
BRANCH   2  20
HETATM   20  C7  UNK     1      18.174   5.601  33.245  1.00  0.00    -0.013 A 
HETATM   21  C15 UNK     1      19.255   6.410  33.569  1.00  0.00     0.044 A 
HETATM   22 Cl1  UNK     1      20.837   6.143  32.924  1.00  0.00    -0.083 Cl
HETATM   23  C20 UNK     1      19.075   7.481  34.444  1.00  0.00     0.024 A 
HETATM   24  C22 UNK     1      17.816   7.733  34.989  1.00  0.00     0.002 A 
HETATM   25  C21 UNK     1      16.736   6.914  34.657  1.00  0.00     0.001 A 
HETATM   26  C16 UNK     1      16.915   5.844  33.782  1.00  0.00     0.013 A 
ENDBRANCH   2  20
TORSDOF 4
ENDMDL
MODEL 9
REMARK VINA RESULT:      -8.5      6.635     12.303
REMARK  4 active torsions:
REMARK  status: ('A' for Active; 'I' for Inactive)
REMARK    1  A    between atoms: C2_5  and  N1_3 
REMARK       I    between atoms: C5_8  and  N1_3 
REMARK    2  A    between atoms: C1_4  and  C3_6 
REMARK    3  A    between atoms: C1_4  and  C5_8 
REMARK    4  A    between atoms: C6_9  and  C7_10 
ROOT
HETATM    1  C1  UNK     1      19.294   5.680  34.143  1.00  0.00     0.043 C 
HETATM    2  C6  UNK     1      19.057   6.718  34.992  1.00  0.00     0.031 C 
ENDROOT
BRANCH   1   3
HETATM    3  C3  UNK     1      19.400   5.835  32.700  1.00  0.00    -0.021 A 
HETATM    4  C10 UNK     1      18.247   5.975  31.927  1.00  0.00     0.012 A 
HETATM    5  C18 UNK     1      18.348   6.122  30.544  1.00  0.00     0.001 A 
HETATM    6  C19 UNK     1      19.603   6.131  29.934  1.00  0.00     0.000 A 
HETATM    7  C17 UNK     1      20.756   5.990  30.707  1.00  0.00     0.001 A 
HETATM    8  C9  UNK     1      20.654   5.843  32.090  1.00  0.00     0.012 A 
ENDBRANCH   1   3
BRANCH   1   9
HETATM    9  C5  UNK     1      19.476   4.334  34.833  1.00  0.00     0.257 C 
HETATM   10  O1  UNK     1      20.486   4.090  35.486  1.00  0.00    -0.267 OA
HETATM   11  N1  UNK     1      18.397   3.484  34.624  1.00  0.00    -0.322 N 
HETATM   12  H2  UNK     1      17.623   3.821  34.062  1.00  0.00     0.169 HD
BRANCH  11  13
HETATM   13  C2  UNK     1      18.231   2.166  35.115  1.00  0.00     0.041 A 
HETATM   14  C4  UNK     1      18.281   1.087  34.247  1.00  0.00    -0.035 A 
HETATM   15  C11 UNK     1      18.117  -0.203  34.750  1.00  0.00     0.009 A 
HETATM   16  C12 UNK     1      18.507   1.266  32.780  1.00  0.00     0.050 C 
HETATM   17  C14 UNK     1      17.905  -0.398  36.115  1.00  0.00     0.001 A 
HETATM   18  C13 UNK     1      17.857   0.699  36.977  1.00  0.00     0.002 A 
HETATM   19  C8  UNK     1      18.021   1.989  36.473  1.00  0.00     0.030 A 
ENDBRANCH  11  13
ENDBRANCH   1   9
BRANCH   2  20
HETATM   20  C7  UNK     1      18.891   8.123  34.590  1.00  0.00    -0.013 A 
HETATM   21  C15 UNK     1      17.645   8.654  34.285  1.00  0.00     0.044 A 
HETATM   22 Cl1  UNK     1      16.196   7.713  34.350  1.00  0.00    -0.083 Cl
HETATM   23  C20 UNK     1      17.541   9.993  33.909  1.00  0.00     0.024 A 
HETATM   24  C22 UNK     1      18.685  10.790  33.841  1.00  0.00     0.002 A 
HETATM   25  C21 UNK     1      19.932  10.247  34.151  1.00  0.00     0.001 A 
HETATM   26  C16 UNK     1      20.036   8.908  34.527  1.00  0.00     0.013 A 
ENDBRANCH   2  20
TORSDOF 4
ENDMDL
MODEL 10
REMARK VINA RESULT:      -8.5      9.688     12.982
REMARK  4 active torsions:
REMARK  status: ('A' for Active; 'I' for Inactive)
REMARK    1  A    between atoms: C2_5  and  N1_3 
REMARK       I    between atoms: C5_8  and  N1_3 
REMARK    2  A    between atoms: C1_4  and  C3_6 
REMARK    3  A    between atoms: C1_4  and  C5_8 
REMARK    4  A    between atoms: C6_9  and  C7_10 
ROOT
HETATM    1  C1  UNK     1      30.319  -6.380  35.162  1.00  0.00     0.043 C 
HETATM    2  C6  UNK     1      29.485  -6.532  34.096  1.00  0.00     0.031 C 
ENDROOT
BRANCH   1   3
HETATM    3  C3  UNK     1      31.706  -5.962  35.038  1.00  0.00    -0.021 A 
HETATM    4  C10 UNK     1      32.717  -6.918  34.932  1.00  0.00     0.012 A 
HETATM    5  C18 UNK     1      34.048  -6.517  34.814  1.00  0.00     0.001 A 
HETATM    6  C19 UNK     1      34.368  -5.159  34.801  1.00  0.00     0.000 A 
HETATM    7  C17 UNK     1      33.358  -4.203  34.907  1.00  0.00     0.001 A 
HETATM    8  C9  UNK     1      32.027  -4.604  35.026  1.00  0.00     0.012 A 
ENDBRANCH   1   3
BRANCH   1   9
HETATM    9  C5  UNK     1      29.668  -6.652  36.513  1.00  0.00     0.257 C 
HETATM   10  O1  UNK     1      29.671  -5.801  37.398  1.00  0.00    -0.267 OA
HETATM   11  N1  UNK     1      29.109  -7.922  36.583  1.00  0.00    -0.322 N 
HETATM   12  H2  UNK     1      29.179  -8.523  35.768  1.00  0.00     0.169 HD
BRANCH  11  13
HETATM   13  C2  UNK     1      28.429  -8.505  37.680  1.00  0.00     0.041 A 
HETATM   14  C4  UNK     1      29.084  -9.400  38.510  1.00  0.00    -0.035 A 
HETATM   15  C11 UNK     1      28.397  -9.962  39.586  1.00  0.00     0.009 A 
HETATM   16  C12 UNK     1      30.510  -9.785  38.285  1.00  0.00     0.050 C 
HETATM   17  C14 UNK     1      27.064  -9.620  39.818  1.00  0.00     0.001 A 
HETATM   18  C13 UNK     1      26.419  -8.716  38.973  1.00  0.00     0.002 A 
HETATM   19  C8  UNK     1      27.106  -8.155  37.897  1.00  0.00     0.030 A 
ENDBRANCH  11  13
ENDBRANCH   1   9
BRANCH   2  20
HETATM   20  C7  UNK     1      29.848  -6.288  32.692  1.00  0.00    -0.013 A 
HETATM   21  C15 UNK     1      30.460  -7.262  31.915  1.00  0.00     0.044 A 
HETATM   22 Cl1  UNK     1      30.845  -8.831  32.531  1.00  0.00    -0.083 Cl
HETATM   23  C20 UNK     1      30.784  -6.979  30.588  1.00  0.00     0.024 A 
HETATM   24  C22 UNK     1      30.492  -5.726  30.049  1.00  0.00     0.002 A 
HETATM   25  C21 UNK     1      29.875  -4.754  30.839  1.00  0.00     0.001 A 
HETATM   26  C16 UNK     1      29.552  -5.036  32.166  1.00  0.00     0.013 A 
ENDBRANCH   2  20
TORSDOF 4
ENDMDL
