MODEL 1
REMARK VINA RESULT:      -7.2      0.000      0.000
REMARK  2 active torsions:
REMARK  status: ('A' for Active; 'I' for Inactive)
REMARK    1  A    between atoms: C12_15  and  O3_3 
REMARK    2  A    between atoms: C2_5  and  C4_7 
ROOT
HETATM    1  O1  UNK     1      18.897   0.578  32.715  1.00  0.00    -0.274 OA
HETATM    2  O2  UNK     1      18.020   2.205  34.032  1.00  0.00    -0.259 OA
HETATM    3  C1  UNK     1      18.728   2.351  30.513  1.00  0.00    -0.037 A 
HETATM    4  C2  UNK     1      18.292   2.747  31.728  1.00  0.00     0.024 A 
HETATM    5  C3  UNK     1      19.253   0.981  30.341  1.00  0.00     0.005 A 
HETATM    6  C5  UNK     1      19.321   0.142  31.450  1.00  0.00     0.092 A 
HETATM    7  C6  UNK     1      18.380   1.847  32.914  1.00  0.00     0.295 A 
HETATM    8  C7  UNK     1      18.729   3.240  29.294  1.00  0.00     0.050 C 
HETATM    9  C8  UNK     1      19.686   0.455  29.114  1.00  0.00     0.017 A 
HETATM   10  C9  UNK     1      19.805  -1.167  31.375  1.00  0.00     0.074 A 
HETATM   11  C11 UNK     1      20.174  -0.855  29.020  1.00  0.00     0.037 A 
HETATM   12  C12 UNK     1      20.233  -1.665  30.151  1.00  0.00     0.068 A 
ENDROOT
BRANCH   4  13
HETATM   13  C4  UNK     1      17.676   4.090  32.028  1.00  0.00     0.041 C 
HETATM   14  C10 UNK     1      18.734   5.122  32.353  1.00  0.00     0.010 C 
ENDBRANCH   4  13
BRANCH  12  15
HETATM   15  O3  UNK     1      20.707  -2.936  30.057  1.00  0.00    -0.361 OA
HETATM   16  H12 UNK     1      20.728  -3.196  29.119  1.00  0.00     0.217 HD
ENDBRANCH  12  15
TORSDOF 2
ENDMDL
MODEL 2
REMARK VINA RESULT:      -7.0      1.975      3.163
REMARK  2 active torsions:
REMARK  status: ('A' for Active; 'I' for Inactive)
REMARK    1  A    between atoms: C12_15  and  O3_3 
REMARK    2  A    between atoms: C2_5  and  C4_7 
ROOT
HETATM    1  O1  UNK     1      18.623   0.594  32.857  1.00  0.00    -0.274 OA
HETATM    2  O2  UNK     1      17.808   2.532  32.002  1.00  0.00    -0.259 OA
HETATM    3  C1  UNK     1      19.863   0.083  30.364  1.00  0.00    -0.037 A 
HETATM    4  C2  UNK     1      19.116   1.195  30.525  1.00  0.00     0.024 A 
HETATM    5  C3  UNK     1      19.991  -0.875  31.482  1.00  0.00     0.005 A 
HETATM    6  C5  UNK     1      19.367  -0.584  32.692  1.00  0.00     0.092 A 
HETATM    7  C6  UNK     1      18.461   1.507  31.829  1.00  0.00     0.295 A 
HETATM    8  C7  UNK     1      20.605  -0.250  29.093  1.00  0.00     0.050 C 
HETATM    9  C8  UNK     1      20.702  -2.082  31.404  1.00  0.00     0.017 A 
HETATM   10  C9  UNK     1      19.438  -1.434  33.799  1.00  0.00     0.074 A 
HETATM   11  C11 UNK     1      20.785  -2.947  32.503  1.00  0.00     0.037 A 
HETATM   12  C12 UNK     1      20.153  -2.621  33.700  1.00  0.00     0.068 A 
ENDROOT
BRANCH   4  13
HETATM   13  C4  UNK     1      18.850   2.219  29.451  1.00  0.00     0.041 C 
HETATM   14  C10 UNK     1      17.745   1.767  28.521  1.00  0.00     0.010 C 
ENDBRANCH   4  13
BRANCH  12  15
HETATM   15  O3  UNK     1      20.235  -3.462  34.766  1.00  0.00    -0.361 OA
HETATM   16  H12 UNK     1      21.098  -3.910  34.749  1.00  0.00     0.217 HD
ENDBRANCH  12  15
TORSDOF 2
ENDMDL
MODEL 3
REMARK VINA RESULT:      -6.7      5.615      7.009
REMARK  2 active torsions:
REMARK  status: ('A' for Active; 'I' for Inactive)
REMARK    1  A    between atoms: C12_15  and  O3_3 
REMARK    2  A    between atoms: C2_5  and  C4_7 
ROOT
HETATM    1  O1  UNK     1      16.603   6.600  31.239  1.00  0.00    -0.274 OA
HETATM    2  O2  UNK     1      14.387   7.070  31.387  1.00  0.00    -0.259 OA
HETATM    3  C1  UNK     1      16.903   7.449  33.924  1.00  0.00    -0.037 A 
HETATM    4  C2  UNK     1      15.691   7.508  33.333  1.00  0.00     0.024 A 
HETATM    5  C3  UNK     1      18.067   6.976  33.146  1.00  0.00     0.005 A 
HETATM    6  C5  UNK     1      17.876   6.566  31.830  1.00  0.00     0.092 A 
HETATM    7  C6  UNK     1      15.490   7.055  31.926  1.00  0.00     0.295 A 
HETATM    8  C7  UNK     1      17.152   7.827  35.362  1.00  0.00     0.050 C 
HETATM    9  C8  UNK     1      19.377   6.922  33.649  1.00  0.00     0.017 A 
HETATM   10  C9  UNK     1      18.921   6.106  31.025  1.00  0.00     0.074 A 
HETATM   11  C11 UNK     1      20.437   6.463  32.857  1.00  0.00     0.037 A 
HETATM   12  C12 UNK     1      20.209   6.054  31.546  1.00  0.00     0.068 A 
ENDROOT
BRANCH   4  13
HETATM   13  C4  UNK     1      14.437   8.029  33.988  1.00  0.00     0.041 C 
HETATM   14  C10 UNK     1      14.318   9.530  33.837  1.00  0.00     0.010 C 
ENDBRANCH   4  13
BRANCH  12  15
HETATM   15  O3  UNK     1      21.240   5.609  30.779  1.00  0.00    -0.361 OA
HETATM   16  H12 UNK     1      20.882   5.075  30.049  1.00  0.00     0.217 HD
ENDBRANCH  12  15
TORSDOF 2
ENDMDL
MODEL 4
REMARK VINA RESULT:      -6.7     22.128     23.803
REMARK  2 active torsions:
REMARK  status: ('A' for Active; 'I' for Inactive)
REMARK    1  A    between atoms: C12_15  and  O3_3 
REMARK    2  A    between atoms: C2_5  and  C4_7 
ROOT
HETATM    1  O1  UNK     1      14.086   4.917   8.932  1.00  0.00    -0.274 OA
HETATM    2  O2  UNK     1      12.233   3.835   8.191  1.00  0.00    -0.259 OA
HETATM    3  C1  UNK     1      12.685   7.364   8.685  1.00  0.00    -0.037 A 
HETATM    4  C2  UNK     1      12.081   6.208   8.339  1.00  0.00     0.024 A 
HETATM    5  C3  UNK     1      14.086   7.340   9.154  1.00  0.00     0.005 A 
HETATM    6  C5  UNK     1      14.738   6.115   9.262  1.00  0.00     0.092 A 
HETATM    7  C6  UNK     1      12.781   4.898   8.470  1.00  0.00     0.295 A 
HETATM    8  C7  UNK     1      12.005   8.710   8.640  1.00  0.00     0.050 C 
HETATM    9  C8  UNK     1      14.821   8.487   9.493  1.00  0.00     0.017 A 
HETATM   10  C9  UNK     1      16.061   6.002   9.697  1.00  0.00     0.074 A 
HETATM   11  C11 UNK     1      16.148   8.393   9.930  1.00  0.00     0.037 A 
HETATM   12  C12 UNK     1      16.768   7.150  10.033  1.00  0.00     0.068 A 
ENDROOT
BRANCH   4  13
HETATM   13  C4  UNK     1      10.683   6.098   7.787  1.00  0.00     0.041 C 
HETATM   14  C10 UNK     1      10.673   6.233   6.279  1.00  0.00     0.010 C 
ENDBRANCH   4  13
BRANCH  12  15
HETATM   15  O3  UNK     1      18.056   7.062  10.458  1.00  0.00    -0.361 OA
HETATM   16  H12 UNK     1      18.162   7.606  11.257  1.00  0.00     0.217 HD
ENDBRANCH  12  15
TORSDOF 2
ENDMDL
MODEL 5
REMARK VINA RESULT:      -6.6      2.535      6.066
REMARK  2 active torsions:
REMARK  status: ('A' for Active; 'I' for Inactive)
REMARK    1  A    between atoms: C12_15  and  O3_3 
REMARK    2  A    between atoms: C2_5  and  C4_7 
ROOT
HETATM    1  O1  UNK     1      18.015   3.440  33.194  1.00  0.00    -0.274 OA
HETATM    2  O2  UNK     1      18.202   1.391  32.234  1.00  0.00    -0.259 OA
HETATM    3  C1  UNK     1      18.788   4.599  30.729  1.00  0.00    -0.037 A 
HETATM    4  C2  UNK     1      18.720   3.256  30.845  1.00  0.00     0.024 A 
HETATM    5  C3  UNK     1      18.494   5.446  31.903  1.00  0.00     0.005 A 
HETATM    6  C5  UNK     1      18.116   4.836  33.096  1.00  0.00     0.092 A 
HETATM    7  C6  UNK     1      18.302   2.609  32.123  1.00  0.00     0.295 A 
HETATM    8  C7  UNK     1      19.137   5.311  29.445  1.00  0.00     0.050 C 
HETATM    9  C8  UNK     1      18.582   6.847  31.902  1.00  0.00     0.017 A 
HETATM   10  C9  UNK     1      17.821   5.561  34.252  1.00  0.00     0.074 A 
HETATM   11  C11 UNK     1      18.289   7.591  33.053  1.00  0.00     0.037 A 
HETATM   12  C12 UNK     1      17.908   6.948  34.227  1.00  0.00     0.068 A 
ENDROOT
BRANCH   4  13
HETATM   13  C4  UNK     1      19.055   2.278  29.749  1.00  0.00     0.041 C 
HETATM   14  C10 UNK     1      17.859   2.013  28.862  1.00  0.00     0.010 C 
ENDBRANCH   4  13
BRANCH  12  15
HETATM   15  O3  UNK     1      17.625   7.673  35.342  1.00  0.00    -0.361 OA
HETATM   16  H12 UNK     1      17.010   8.389  35.105  1.00  0.00     0.217 HD
ENDBRANCH  12  15
TORSDOF 2
ENDMDL
MODEL 6
REMARK VINA RESULT:      -6.5      1.792      3.143
REMARK  2 active torsions:
REMARK  status: ('A' for Active; 'I' for Inactive)
REMARK    1  A    between atoms: C12_15  and  O3_3 
REMARK    2  A    between atoms: C2_5  and  C4_7 
ROOT
HETATM    1  O1  UNK     1      18.638   1.986  31.550  1.00  0.00    -0.274 OA
HETATM    2  O2  UNK     1      17.756   3.355  33.131  1.00  0.00    -0.259 OA
HETATM    3  C1  UNK     1      18.717  -0.089  33.474  1.00  0.00    -0.037 A 
HETATM    4  C2  UNK     1      18.267   1.134  33.825  1.00  0.00     0.024 A 
HETATM    5  C3  UNK     1      19.200  -0.318  32.096  1.00  0.00     0.005 A 
HETATM    6  C5  UNK     1      19.142   0.729  31.181  1.00  0.00     0.092 A 
HETATM    7  C6  UNK     1      18.195   2.247  32.835  1.00  0.00     0.295 A 
HETATM    8  C7  UNK     1      18.747  -1.271  34.411  1.00  0.00     0.050 C 
HETATM    9  C8  UNK     1      19.731  -1.535  31.642  1.00  0.00     0.017 A 
HETATM   10  C9  UNK     1      19.576   0.599  29.859  1.00  0.00     0.074 A 
HETATM   11  C11 UNK     1      20.172  -1.684  30.321  1.00  0.00     0.037 A 
HETATM   12  C12 UNK     1      20.094  -0.618  29.430  1.00  0.00     0.068 A 
ENDROOT
BRANCH   4  13
HETATM   13  C4  UNK     1      17.808   1.519  35.208  1.00  0.00     0.041 C 
HETATM   14  C10 UNK     1      18.970   1.956  36.073  1.00  0.00     0.010 C 
ENDBRANCH   4  13
BRANCH  12  15
HETATM   15  O3  UNK     1      20.522  -0.765  28.148  1.00  0.00    -0.361 OA
HETATM   16  H12 UNK     1      21.442  -0.456  28.085  1.00  0.00     0.217 HD
ENDBRANCH  12  15
TORSDOF 2
ENDMDL
MODEL 7
REMARK VINA RESULT:      -6.4      3.433      4.905
REMARK  2 active torsions:
REMARK  status: ('A' for Active; 'I' for Inactive)
REMARK    1  A    between atoms: C12_15  and  O3_3 
REMARK    2  A    between atoms: C2_5  and  C4_7 
ROOT
HETATM    1  O1  UNK     1      17.475  -0.254  33.451  1.00  0.00    -0.274 OA
HETATM    2  O2  UNK     1      15.880   0.771  34.700  1.00  0.00    -0.259 OA
HETATM    3  C1  UNK     1      18.553  -1.346  35.830  1.00  0.00    -0.037 A 
HETATM    4  C2  UNK     1      17.482  -0.528  35.894  1.00  0.00     0.024 A 
HETATM    5  C3  UNK     1      19.173  -1.630  34.519  1.00  0.00     0.005 A 
HETATM    6  C5  UNK     1      18.611  -1.075  33.374  1.00  0.00     0.092 A 
HETATM    7  C6  UNK     1      16.876   0.054  34.661  1.00  0.00     0.295 A 
HETATM    8  C7  UNK     1      19.166  -2.018  37.033  1.00  0.00     0.050 C 
HETATM    9  C8  UNK     1      20.316  -2.427  34.347  1.00  0.00     0.017 A 
HETATM   10  C9  UNK     1      19.133  -1.292  32.096  1.00  0.00     0.074 A 
HETATM   11  C11 UNK     1      20.854  -2.656  33.074  1.00  0.00     0.037 A 
HETATM   12  C12 UNK     1      20.262  -2.089  31.949  1.00  0.00     0.068 A 
ENDROOT
BRANCH   4  13
HETATM   13  C4  UNK     1      16.794  -0.105  37.167  1.00  0.00     0.041 C 
HETATM   14  C10 UNK     1      17.480   1.090  37.793  1.00  0.00     0.010 C 
ENDBRANCH   4  13
BRANCH  12  15
HETATM   15  O3  UNK     1      20.786  -2.313  30.715  1.00  0.00    -0.361 OA
HETATM   16  H12 UNK     1      21.595  -1.782  30.615  1.00  0.00     0.217 HD
ENDBRANCH  12  15
TORSDOF 2
ENDMDL
MODEL 8
REMARK VINA RESULT:      -6.4      2.274      4.870
REMARK  2 active torsions:
REMARK  status: ('A' for Active; 'I' for Inactive)
REMARK    1  A    between atoms: C12_15  and  O3_3 
REMARK    2  A    between atoms: C2_5  and  C4_7 
ROOT
HETATM    1  O1  UNK     1      18.407   1.796  31.915  1.00  0.00    -0.274 OA
HETATM    2  O2  UNK     1      18.966   2.431  29.808  1.00  0.00    -0.259 OA
HETATM    3  C1  UNK     1      19.680  -0.688  31.442  1.00  0.00    -0.037 A 
HETATM    4  C2  UNK     1      19.634   0.238  30.461  1.00  0.00     0.024 A 
HETATM    5  C3  UNK     1      19.030  -0.407  32.739  1.00  0.00     0.005 A 
HETATM    6  C5  UNK     1      18.417   0.828  32.930  1.00  0.00     0.092 A 
HETATM    7  C6  UNK     1      18.986   1.565  30.678  1.00  0.00     0.295 A 
HETATM    8  C7  UNK     1      20.380  -2.017  31.305  1.00  0.00     0.050 C 
HETATM    9  C8  UNK     1      18.979  -1.318  33.805  1.00  0.00     0.017 A 
HETATM   10  C9  UNK     1      17.781   1.175  34.125  1.00  0.00     0.074 A 
HETATM   11  C11 UNK     1      18.345  -0.988  35.010  1.00  0.00     0.037 A 
HETATM   12  C12 UNK     1      17.747   0.259  35.169  1.00  0.00     0.068 A 
ENDROOT
BRANCH   4  13
HETATM   13  C4  UNK     1      20.197   0.056  29.075  1.00  0.00     0.041 C 
HETATM   14  C10 UNK     1      19.163  -0.517  28.131  1.00  0.00     0.010 C 
ENDBRANCH   4  13
BRANCH  12  15
HETATM   15  O3  UNK     1      17.133   0.577  36.340  1.00  0.00    -0.361 OA
HETATM   16  H12 UNK     1      16.505  -0.130  36.569  1.00  0.00     0.217 HD
ENDBRANCH  12  15
TORSDOF 2
ENDMDL
MODEL 9
REMARK VINA RESULT:      -6.4     22.031     23.876
REMARK  2 active torsions:
REMARK  status: ('A' for Active; 'I' for Inactive)
REMARK    1  A    between atoms: C12_15  and  O3_3 
REMARK    2  A    between atoms: C2_5  and  C4_7 
ROOT
HETATM    1  O1  UNK     1      14.046   5.167   8.487  1.00  0.00    -0.274 OA
HETATM    2  O2  UNK     1      16.126   4.894   9.354  1.00  0.00    -0.259 OA
HETATM    3  C1  UNK     1      13.863   7.638   9.857  1.00  0.00    -0.037 A 
HETATM    4  C2  UNK     1      14.971   6.879   9.990  1.00  0.00     0.024 A 
HETATM    5  C3  UNK     1      12.743   7.150   9.027  1.00  0.00     0.005 A 
HETATM    6  C5  UNK     1      12.874   5.930   8.369  1.00  0.00     0.092 A 
HETATM    7  C6  UNK     1      15.111   5.579   9.271  1.00  0.00     0.295 A 
HETATM    8  C7  UNK     1      13.693   8.991  10.503  1.00  0.00     0.050 C 
HETATM    9  C8  UNK     1      11.530   7.837   8.862  1.00  0.00     0.017 A 
HETATM   10  C9  UNK     1      11.865   5.396   7.564  1.00  0.00     0.074 A 
HETATM   11  C11 UNK     1      10.506   7.317   8.059  1.00  0.00     0.037 A 
HETATM   12  C12 UNK     1      10.675   6.097   7.410  1.00  0.00     0.068 A 
ENDROOT
BRANCH   4  13
HETATM   13  C4  UNK     1      16.156   7.226  10.854  1.00  0.00     0.041 C 
HETATM   14  C10 UNK     1      17.178   8.038  10.088  1.00  0.00     0.010 C 
ENDBRANCH   4  13
BRANCH  12  15
HETATM   15  O3  UNK     1       9.680   5.594   6.632  1.00  0.00    -0.361 OA
HETATM   16  H12 UNK     1       9.427   6.263   5.972  1.00  0.00     0.217 HD
ENDBRANCH  12  15
TORSDOF 2
ENDMDL
MODEL 10
REMARK VINA RESULT:      -6.3      1.937      4.858
REMARK  2 active torsions:
REMARK  status: ('A' for Active; 'I' for Inactive)
REMARK    1  A    between atoms: C12_15  and  O3_3 
REMARK    2  A    between atoms: C2_5  and  C4_7 
ROOT
HETATM    1  O1  UNK     1      19.599  -1.849  32.632  1.00  0.00    -0.274 OA
HETATM    2  O2  UNK     1      20.646  -2.637  30.778  1.00  0.00    -0.259 OA
HETATM    3  C1  UNK     1      19.240   0.626  31.306  1.00  0.00    -0.037 A 
HETATM    4  C2  UNK     1      19.892  -0.379  30.684  1.00  0.00     0.024 A 
HETATM    5  C3  UNK     1      18.756   0.432  32.688  1.00  0.00     0.005 A 
HETATM    6  C5  UNK     1      18.951  -0.801  33.303  1.00  0.00     0.092 A 
HETATM    7  C6  UNK     1      20.086  -1.702  31.344  1.00  0.00     0.295 A 
HETATM    8  C7  UNK     1      18.953   1.961  30.664  1.00  0.00     0.050 C 
HETATM    9  C8  UNK     1      18.111   1.426  33.441  1.00  0.00     0.017 A 
HETATM   10  C9  UNK     1      18.525  -1.069  34.606  1.00  0.00     0.074 A 
HETATM   11  C11 UNK     1      17.676   1.176  34.749  1.00  0.00     0.037 A 
HETATM   12  C12 UNK     1      17.882  -0.072  35.331  1.00  0.00     0.068 A 
ENDROOT
BRANCH   4  13
HETATM   13  C4  UNK     1      20.492  -0.294  29.304  1.00  0.00     0.041 C 
HETATM   14  C10 UNK     1      19.464  -0.598  28.236  1.00  0.00     0.010 C 
ENDBRANCH   4  13
BRANCH  12  15
HETATM   15  O3  UNK     1      17.460  -0.312  36.600  1.00  0.00    -0.361 OA
HETATM   16  H12 UNK     1      16.527  -0.588  36.575  1.00  0.00     0.217 HD
ENDBRANCH  12  15
TORSDOF 2
ENDMDL
