MODEL 1
REMARK VINA RESULT:      -8.9      0.000      0.000
REMARK  1 active torsions:
REMARK  status: ('A' for Active; 'I' for Inactive)
REMARK    1  A    between atoms: C1_6  and  C4_9 
ROOT
HETATM    1  O1  UNK     1      28.473  -6.244  39.573  1.00  0.00    -0.303 OA
HETATM    2  O2  UNK     1      29.920  -7.371  35.895  1.00  0.00    -0.287 OA
HETATM    3  O3  UNK     1      29.383  -3.499  40.162  1.00  0.00    -0.265 OA
HETATM    4  N1  UNK     1      30.469  -3.645  38.078  1.00  0.00    -0.342 N 
HETATM    5  C1  UNK     1      30.607  -4.632  37.024  1.00  0.00     0.158 A 
HETATM    6  C2  UNK     1      29.791  -5.739  37.596  1.00  0.00     0.059 A 
HETATM    7  C3  UNK     1      29.266  -5.456  38.791  1.00  0.00     0.156 A 
HETATM    8  C5  UNK     1      29.499  -7.046  36.995  1.00  0.00     0.196 A 
HETATM    9  C6  UNK     1      29.685  -4.089  39.140  1.00  0.00     0.277 A 
HETATM   10  C7  UNK     1      28.652  -7.938  37.821  1.00  0.00     0.049 A 
HETATM   11  C8  UNK     1      28.183  -7.492  39.067  1.00  0.00     0.090 A 
HETATM   12  C11 UNK     1      28.321  -9.216  37.364  1.00  0.00     0.018 A 
HETATM   13  C12 UNK     1      27.385  -8.324  39.852  1.00  0.00     0.038 A 
HETATM   14  C15 UNK     1      27.522 -10.044  38.154  1.00  0.00     0.001 A 
HETATM   15  C16 UNK     1      27.056  -9.600  39.393  1.00  0.00     0.003 A 
HETATM   16  H2  UNK     1      30.880  -2.717  38.040  1.00  0.00     0.163 HD
ENDROOT
BRANCH   5  17
HETATM   17  C4  UNK     1      32.035  -4.989  36.812  1.00  0.00    -0.031 A 
HETATM   18  C10 UNK     1      32.752  -5.639  37.818  1.00  0.00     0.012 A 
HETATM   19  C14 UNK     1      34.092  -5.974  37.620  1.00  0.00     0.043 A 
HETATM   20  C17 UNK     1      34.718  -5.658  36.414  1.00  0.00     0.116 A 
HETATM   21  C13 UNK     1      34.004  -5.009  35.406  1.00  0.00     0.043 A 
HETATM   22  F1  UNK     1      36.003  -5.980  36.223  1.00  0.00    -0.206 F 
HETATM   23  C9  UNK     1      32.664  -4.675  35.605  1.00  0.00     0.012 A 
ENDBRANCH   5  17
TORSDOF 1
ENDMDL
MODEL 2
REMARK VINA RESULT:      -8.2     19.103     20.948
REMARK  1 active torsions:
REMARK  status: ('A' for Active; 'I' for Inactive)
REMARK    1  A    between atoms: C1_6  and  C4_9 
ROOT
HETATM    1  O1  UNK     1      15.359  10.186  34.020  1.00  0.00    -0.303 OA
HETATM    2  O2  UNK     1      19.454   9.931  34.262  1.00  0.00    -0.287 OA
HETATM    3  O3  UNK     1      14.220   7.465  34.118  1.00  0.00    -0.265 OA
HETATM    4  N1  UNK     1      16.465   6.766  34.246  1.00  0.00    -0.342 N 
HETATM    5  C1  UNK     1      17.771   7.398  34.265  1.00  0.00     0.158 A 
HETATM    6  C2  UNK     1      17.367   8.829  34.173  1.00  0.00     0.059 A 
HETATM    7  C3  UNK     1      16.046   9.011  34.105  1.00  0.00     0.156 A 
HETATM    8  C5  UNK     1      18.238  10.011  34.175  1.00  0.00     0.196 A 
HETATM    9  C6  UNK     1      15.419   7.680  34.153  1.00  0.00     0.277 A 
HETATM   10  C7  UNK     1      17.529  11.308  34.069  1.00  0.00     0.049 A 
HETATM   11  C8  UNK     1      16.127  11.329  33.996  1.00  0.00     0.090 A 
HETATM   12  C11 UNK     1      18.251  12.504  34.041  1.00  0.00     0.018 A 
HETATM   13  C12 UNK     1      15.451  12.545  33.896  1.00  0.00     0.038 A 
HETATM   14  C15 UNK     1      17.568  13.718  33.941  1.00  0.00     0.001 A 
HETATM   15  C16 UNK     1      16.174  13.738  33.869  1.00  0.00     0.003 A 
HETATM   16  H2  UNK     1      16.323   5.763  34.315  1.00  0.00     0.163 HD
ENDROOT
BRANCH   5  17
HETATM   17  C4  UNK     1      18.603   6.937  33.121  1.00  0.00    -0.031 A 
HETATM   18  C10 UNK     1      18.026   6.753  31.863  1.00  0.00     0.012 A 
HETATM   19  C14 UNK     1      18.806   6.320  30.791  1.00  0.00     0.043 A 
HETATM   20  C17 UNK     1      20.165   6.070  30.975  1.00  0.00     0.116 A 
HETATM   21  C13 UNK     1      20.746   6.253  32.230  1.00  0.00     0.043 A 
HETATM   22  F1  UNK     1      20.915   5.655  29.945  1.00  0.00    -0.206 F 
HETATM   23  C9  UNK     1      19.964   6.685  33.302  1.00  0.00     0.012 A 
ENDBRANCH   5  17
TORSDOF 1
ENDMDL
MODEL 3
REMARK VINA RESULT:      -8.2     18.279     19.827
REMARK  1 active torsions:
REMARK  status: ('A' for Active; 'I' for Inactive)
REMARK    1  A    between atoms: C1_6  and  C4_9 
ROOT
HETATM    1  O1  UNK     1      17.170   8.742  34.943  1.00  0.00    -0.303 OA
HETATM    2  O2  UNK     1      16.706   8.110  30.909  1.00  0.00    -0.287 OA
HETATM    3  O3  UNK     1      19.760   7.615  35.799  1.00  0.00    -0.265 OA
HETATM    4  N1  UNK     1      19.979   6.975  33.544  1.00  0.00    -0.342 N 
HETATM    5  C1  UNK     1      19.195   7.094  32.329  1.00  0.00     0.158 A 
HETATM    6  C2  UNK     1      18.009   7.826  32.856  1.00  0.00     0.059 A 
HETATM    7  C3  UNK     1      18.079   8.089  34.163  1.00  0.00     0.156 A 
HETATM    8  C5  UNK     1      16.833   8.288  32.111  1.00  0.00     0.196 A 
HETATM    9  C6  UNK     1      19.359   7.549  34.651  1.00  0.00     0.277 A 
HETATM   10  C7  UNK     1      15.813   8.991  32.925  1.00  0.00     0.049 A 
HETATM   11  C8  UNK     1      16.034   9.181  34.299  1.00  0.00     0.090 A 
HETATM   12  C11 UNK     1      14.640   9.461  32.331  1.00  0.00     0.018 A 
HETATM   13  C12 UNK     1      15.081   9.841  35.074  1.00  0.00     0.038 A 
HETATM   14  C15 UNK     1      13.690  10.121  33.113  1.00  0.00     0.001 A 
HETATM   15  C16 UNK     1      13.910  10.311  34.478  1.00  0.00     0.003 A 
HETATM   16  H2  UNK     1      20.896   6.540  33.583  1.00  0.00     0.163 HD
ENDROOT
BRANCH   5  17
HETATM   17  C4  UNK     1      18.871   5.753  31.772  1.00  0.00    -0.031 A 
HETATM   18  C10 UNK     1      18.257   4.790  32.574  1.00  0.00     0.012 A 
HETATM   19  C14 UNK     1      17.953   3.532  32.051  1.00  0.00     0.043 A 
HETATM   20  C17 UNK     1      18.264   3.236  30.724  1.00  0.00     0.116 A 
HETATM   21  C13 UNK     1      18.878   4.196  29.919  1.00  0.00     0.043 A 
HETATM   22  F1  UNK     1      17.973   2.030  30.222  1.00  0.00    -0.206 F 
HETATM   23  C9  UNK     1      19.181   5.453  30.443  1.00  0.00     0.012 A 
ENDBRANCH   5  17
TORSDOF 1
ENDMDL
MODEL 4
REMARK VINA RESULT:      -8.1     14.698     15.776
REMARK  1 active torsions:
REMARK  status: ('A' for Active; 'I' for Inactive)
REMARK    1  A    between atoms: C1_6  and  C4_9 
ROOT
HETATM    1  O1  UNK     1      19.105  -0.286  32.692  1.00  0.00    -0.303 OA
HETATM    2  O2  UNK     1      18.767   2.798  29.997  1.00  0.00    -0.287 OA
HETATM    3  O3  UNK     1      17.956   0.565  35.274  1.00  0.00    -0.265 OA
HETATM    4  N1  UNK     1      17.557   2.609  34.174  1.00  0.00    -0.342 N 
HETATM    5  C1  UNK     1      17.781   3.159  32.851  1.00  0.00     0.158 A 
HETATM    6  C2  UNK     1      18.426   1.991  32.189  1.00  0.00     0.059 A 
HETATM    7  C3  UNK     1      18.565   0.931  32.989  1.00  0.00     0.156 A 
HETATM    8  C5  UNK     1      18.883   1.884  30.799  1.00  0.00     0.196 A 
HETATM    9  C6  UNK     1      18.004   1.295  34.300  1.00  0.00     0.277 A 
HETATM   10  C7  UNK     1      19.490   0.580  30.439  1.00  0.00     0.049 A 
HETATM   11  C8  UNK     1      19.571  -0.437  31.404  1.00  0.00     0.090 A 
HETATM   12  C11 UNK     1      19.980   0.364  29.149  1.00  0.00     0.018 A 
HETATM   13  C12 UNK     1      20.141  -1.667  31.077  1.00  0.00     0.038 A 
HETATM   14  C15 UNK     1      20.549  -0.870  28.827  1.00  0.00     0.001 A 
HETATM   15  C16 UNK     1      20.629  -1.880  29.787  1.00  0.00     0.003 A 
HETATM   16  H2  UNK     1      17.101   3.115  34.927  1.00  0.00     0.163 HD
ENDROOT
BRANCH   5  17
HETATM   17  C4  UNK     1      18.650   4.365  32.916  1.00  0.00    -0.031 A 
HETATM   18  C10 UNK     1      19.207   4.763  34.133  1.00  0.00     0.012 A 
HETATM   19  C14 UNK     1      20.022   5.893  34.195  1.00  0.00     0.043 A 
HETATM   20  C17 UNK     1      20.281   6.629  33.038  1.00  0.00     0.116 A 
HETATM   21  C13 UNK     1      19.727   6.234  31.820  1.00  0.00     0.043 A 
HETATM   22  F1  UNK     1      21.064   7.714  33.096  1.00  0.00    -0.206 F 
HETATM   23  C9  UNK     1      18.912   5.103  31.760  1.00  0.00     0.012 A 
ENDBRANCH   5  17
TORSDOF 1
ENDMDL
MODEL 5
REMARK VINA RESULT:      -8.1     34.581     35.733
REMARK  1 active torsions:
REMARK  status: ('A' for Active; 'I' for Inactive)
REMARK    1  A    between atoms: C1_6  and  C4_9 
ROOT
HETATM    1  O1  UNK     1      13.861   5.506   8.471  1.00  0.00    -0.303 OA
HETATM    2  O2  UNK     1      12.717   8.961  10.379  1.00  0.00    -0.287 OA
HETATM    3  O3  UNK     1      16.557   4.744   9.400  1.00  0.00    -0.265 OA
HETATM    4  N1  UNK     1      16.420   6.697  10.708  1.00  0.00    -0.342 N 
HETATM    5  C1  UNK     1      15.453   7.755  10.931  1.00  0.00     0.158 A 
HETATM    6  C2  UNK     1      14.363   7.307  10.021  1.00  0.00     0.059 A 
HETATM    7  C3  UNK     1      14.642   6.178   9.366  1.00  0.00     0.156 A 
HETATM    8  C5  UNK     1      13.058   7.941   9.799  1.00  0.00     0.196 A 
HETATM    9  C6  UNK     1      15.982   5.744   9.792  1.00  0.00     0.277 A 
HETATM   10  C7  UNK     1      12.185   7.249   8.822  1.00  0.00     0.049 A 
HETATM   11  C8  UNK     1      12.631   6.068   8.208  1.00  0.00     0.090 A 
HETATM   12  C11 UNK     1      10.926   7.768   8.512  1.00  0.00     0.018 A 
HETATM   13  C12 UNK     1      11.817   5.408   7.287  1.00  0.00     0.038 A 
HETATM   14  C15 UNK     1      10.115   7.103   7.590  1.00  0.00     0.001 A 
HETATM   15  C16 UNK     1      10.559   5.929   6.980  1.00  0.00     0.003 A 
HETATM   16  H2  UNK     1      17.315   6.640  11.185  1.00  0.00     0.163 HD
ENDROOT
BRANCH   5  17
HETATM   17  C4  UNK     1      16.024   9.082  10.573  1.00  0.00    -0.031 A 
HETATM   18  C10 UNK     1      17.004   9.180   9.584  1.00  0.00     0.012 A 
HETATM   19  C14 UNK     1      17.540  10.424   9.248  1.00  0.00     0.043 A 
HETATM   20  C17 UNK     1      17.095  11.573   9.902  1.00  0.00     0.116 A 
HETATM   21  C13 UNK     1      16.115  11.479  10.890  1.00  0.00     0.043 A 
HETATM   22  F1  UNK     1      17.608  12.767   9.579  1.00  0.00    -0.206 F 
HETATM   23  C9  UNK     1      15.580  10.234  11.225  1.00  0.00     0.012 A 
ENDBRANCH   5  17
TORSDOF 1
ENDMDL
MODEL 6
REMARK VINA RESULT:      -7.9     36.871     37.641
REMARK  1 active torsions:
REMARK  status: ('A' for Active; 'I' for Inactive)
REMARK    1  A    between atoms: C1_6  and  C4_9 
ROOT
HETATM    1  O1  UNK     1       6.438   6.288  11.732  1.00  0.00    -0.303 OA
HETATM    2  O2  UNK     1       7.352   3.704   8.670  1.00  0.00    -0.287 OA
HETATM    3  O3  UNK     1       7.400   8.988  11.030  1.00  0.00    -0.265 OA
HETATM    4  N1  UNK     1       8.178   7.960   9.058  1.00  0.00    -0.342 N 
HETATM    5  C1  UNK     1       8.171   6.627   8.487  1.00  0.00     0.158 A 
HETATM    6  C2  UNK     1       7.455   5.887   9.564  1.00  0.00     0.059 A 
HETATM    7  C3  UNK     1       7.104   6.653  10.599  1.00  0.00     0.156 A 
HETATM    8  C5  UNK     1       7.091   4.466   9.589  1.00  0.00     0.196 A 
HETATM    9  C6  UNK     1       7.558   8.022  10.304  1.00  0.00     0.277 A 
HETATM   10  C7  UNK     1       6.378   4.025  10.812  1.00  0.00     0.049 A 
HETATM   11  C8  UNK     1       6.089   4.958  11.820  1.00  0.00     0.090 A 
HETATM   12  C11 UNK     1       5.996   2.690  10.960  1.00  0.00     0.018 A 
HETATM   13  C12 UNK     1       5.418   4.554  12.974  1.00  0.00     0.038 A 
HETATM   14  C15 UNK     1       5.324   2.292  12.118  1.00  0.00     0.001 A 
HETATM   15  C16 UNK     1       5.037   3.220  13.121  1.00  0.00     0.003 A 
HETATM   16  H2  UNK     1       8.571   8.772   8.593  1.00  0.00     0.163 HD
ENDROOT
BRANCH   5  17
HETATM   17  C4  UNK     1       9.557   6.143   8.249  1.00  0.00    -0.031 A 
HETATM   18  C10 UNK     1      10.133   6.262   6.982  1.00  0.00     0.012 A 
HETATM   19  C14 UNK     1      11.433   5.808   6.758  1.00  0.00     0.043 A 
HETATM   20  C17 UNK     1      12.160   5.233   7.801  1.00  0.00     0.116 A 
HETATM   21  C13 UNK     1      11.588   5.113   9.068  1.00  0.00     0.043 A 
HETATM   22  F1  UNK     1      13.408   4.798   7.587  1.00  0.00    -0.206 F 
HETATM   23  C9  UNK     1      10.288   5.568   9.291  1.00  0.00     0.012 A 
ENDBRANCH   5  17
TORSDOF 1
ENDMDL
MODEL 7
REMARK VINA RESULT:      -7.9     24.273     25.464
REMARK  1 active torsions:
REMARK  status: ('A' for Active; 'I' for Inactive)
REMARK    1  A    between atoms: C1_6  and  C4_9 
ROOT
HETATM    1  O1  UNK     1      20.897  -2.397  17.306  1.00  0.00    -0.303 OA
HETATM    2  O2  UNK     1      21.591  -5.496  14.698  1.00  0.00    -0.287 OA
HETATM    3  O3  UNK     1      18.344  -1.098  16.596  1.00  0.00    -0.265 OA
HETATM    4  N1  UNK     1      18.272  -2.685  14.857  1.00  0.00    -0.342 N 
HETATM    5  C1  UNK     1      19.105  -3.774  14.384  1.00  0.00     0.158 A 
HETATM    6  C2  UNK     1      20.217  -3.700  15.373  1.00  0.00     0.059 A 
HETATM    7  C3  UNK     1      20.068  -2.725  16.274  1.00  0.00     0.156 A 
HETATM    8  C5  UNK     1      21.396  -4.567  15.467  1.00  0.00     0.196 A 
HETATM    9  C6  UNK     1      18.802  -2.038  15.971  1.00  0.00     0.277 A 
HETATM   10  C7  UNK     1      22.330  -4.234  16.569  1.00  0.00     0.049 A 
HETATM   11  C8  UNK     1      22.033  -3.167  17.431  1.00  0.00     0.090 A 
HETATM   12  C11 UNK     1      23.499  -4.977  16.749  1.00  0.00     0.018 A 
HETATM   13  C12 UNK     1      22.905  -2.845  18.470  1.00  0.00     0.038 A 
HETATM   14  C15 UNK     1      24.368  -4.650  17.792  1.00  0.00     0.001 A 
HETATM   15  C16 UNK     1      24.073  -3.589  18.648  1.00  0.00     0.003 A 
HETATM   16  H2  UNK     1      17.383  -2.430  14.437  1.00  0.00     0.163 HD
ENDROOT
BRANCH   5  17
HETATM   17  C4  UNK     1      19.537  -3.543  12.979  1.00  0.00    -0.031 A 
HETATM   18  C10 UNK     1      20.301  -2.420  12.656  1.00  0.00     0.012 A 
HETATM   19  C14 UNK     1      20.706  -2.203  11.339  1.00  0.00     0.043 A 
HETATM   20  C17 UNK     1      20.347  -3.110  10.342  1.00  0.00     0.116 A 
HETATM   21  C13 UNK     1      19.584  -4.234  10.661  1.00  0.00     0.043 A 
HETATM   22  F1  UNK     1      20.736  -2.903   9.078  1.00  0.00    -0.206 F 
HETATM   23  C9  UNK     1      19.179  -4.449  11.979  1.00  0.00     0.012 A 
ENDBRANCH   5  17
TORSDOF 1
ENDMDL
MODEL 8
REMARK VINA RESULT:      -7.8     20.268     22.068
REMARK  1 active torsions:
REMARK  status: ('A' for Active; 'I' for Inactive)
REMARK    1  A    between atoms: C1_6  and  C4_9 
ROOT
HETATM    1  O1  UNK     1      16.085   6.542  33.075  1.00  0.00    -0.303 OA
HETATM    2  O2  UNK     1      17.901  10.214  33.403  1.00  0.00    -0.287 OA
HETATM    3  O3  UNK     1      13.208   6.938  32.548  1.00  0.00    -0.265 OA
HETATM    4  N1  UNK     1      13.723   9.232  32.678  1.00  0.00    -0.342 N 
HETATM    5  C1  UNK     1      14.906  10.039  32.909  1.00  0.00     0.158 A 
HETATM    6  C2  UNK     1      15.924   8.965  33.081  1.00  0.00     0.059 A 
HETATM    7  C3  UNK     1      15.424   7.731  32.976  1.00  0.00     0.156 A 
HETATM    8  C5  UNK     1      17.363   9.120  33.320  1.00  0.00     0.196 A 
HETATM    9  C6  UNK     1      13.983   7.864  32.708  1.00  0.00     0.277 A 
HETATM   10  C7  UNK     1      18.115   7.849  33.450  1.00  0.00     0.049 A 
HETATM   11  C8  UNK     1      17.438   6.626  33.321  1.00  0.00     0.090 A 
HETATM   12  C11 UNK     1      19.489   7.867  33.698  1.00  0.00     0.018 A 
HETATM   13  C12 UNK     1      18.136   5.425  33.441  1.00  0.00     0.038 A 
HETATM   14  C15 UNK     1      20.183   6.661  33.817  1.00  0.00     0.001 A 
HETATM   15  C16 UNK     1      19.509   5.446  33.689  1.00  0.00     0.003 A 
HETATM   16  H2  UNK     1      12.803   9.619  32.490  1.00  0.00     0.163 HD
ENDROOT
BRANCH   5  17
HETATM   17  C4  UNK     1      14.736  10.901  34.110  1.00  0.00    -0.031 A 
HETATM   18  C10 UNK     1      14.319  10.343  35.320  1.00  0.00     0.012 A 
HETATM   19  C14 UNK     1      14.159  11.150  36.446  1.00  0.00     0.043 A 
HETATM   20  C17 UNK     1      14.417  12.518  36.364  1.00  0.00     0.116 A 
HETATM   21  C13 UNK     1      14.835  13.080  35.157  1.00  0.00     0.043 A 
HETATM   22  F1  UNK     1      14.265  13.294  37.445  1.00  0.00    -0.206 F 
HETATM   23  C9  UNK     1      14.994  12.271  34.031  1.00  0.00     0.012 A 
ENDBRANCH   5  17
TORSDOF 1
ENDMDL
MODEL 9
REMARK VINA RESULT:      -7.8     36.290     37.147
REMARK  1 active torsions:
REMARK  status: ('A' for Active; 'I' for Inactive)
REMARK    1  A    between atoms: C1_6  and  C4_9 
ROOT
HETATM    1  O1  UNK     1       8.442   8.328  10.300  1.00  0.00    -0.303 OA
HETATM    2  O2  UNK     1      10.052   5.368   7.947  1.00  0.00    -0.287 OA
HETATM    3  O3  UNK     1      10.169  10.717  10.153  1.00  0.00    -0.265 OA
HETATM    4  N1  UNK     1      11.505   9.394   8.735  1.00  0.00    -0.342 N 
HETATM    5  C1  UNK     1      11.469   8.046   8.202  1.00  0.00     0.158 A 
HETATM    6  C2  UNK     1      10.208   7.554   8.824  1.00  0.00     0.059 A 
HETATM    7  C3  UNK     1       9.604   8.459   9.599  1.00  0.00     0.156 A 
HETATM    8  C5  UNK     1       9.577   6.240   8.659  1.00  0.00     0.196 A 
HETATM    9  C6  UNK     1      10.423   9.681   9.564  1.00  0.00     0.277 A 
HETATM   10  C7  UNK     1       8.317   6.052   9.417  1.00  0.00     0.049 A 
HETATM   11  C8  UNK     1       7.815   7.105  10.199  1.00  0.00     0.090 A 
HETATM   12  C11 UNK     1       7.633   4.836   9.355  1.00  0.00     0.018 A 
HETATM   13  C12 UNK     1       6.630   6.940  10.916  1.00  0.00     0.038 A 
HETATM   14  C15 UNK     1       6.447   4.677  10.076  1.00  0.00     0.001 A 
HETATM   15  C16 UNK     1       5.948   5.723  10.852  1.00  0.00     0.003 A 
HETATM   16  H2  UNK     1      12.229  10.071   8.511  1.00  0.00     0.163 HD
ENDROOT
BRANCH   5  17
HETATM   17  C4  UNK     1      12.677   7.279   8.612  1.00  0.00    -0.031 A 
HETATM   18  C10 UNK     1      13.235   6.336   7.748  1.00  0.00     0.012 A 
HETATM   19  C14 UNK     1      14.367   5.617   8.132  1.00  0.00     0.043 A 
HETATM   20  C17 UNK     1      14.943   5.840   9.382  1.00  0.00     0.116 A 
HETATM   21  C13 UNK     1      14.388   6.782  10.249  1.00  0.00     0.043 A 
HETATM   22  F1  UNK     1      16.030   5.151   9.751  1.00  0.00    -0.206 F 
HETATM   23  C9  UNK     1      13.256   7.501   9.863  1.00  0.00     0.012 A 
ENDBRANCH   5  17
TORSDOF 1
ENDMDL
MODEL 10
REMARK VINA RESULT:      -7.6     36.089     37.032
REMARK  1 active torsions:
REMARK  status: ('A' for Active; 'I' for Inactive)
REMARK    1  A    between atoms: C1_6  and  C4_9 
ROOT
HETATM    1  O1  UNK     1       8.913   6.818   7.545  1.00  0.00    -0.303 OA
HETATM    2  O2  UNK     1      10.780   4.356  10.254  1.00  0.00    -0.287 OA
HETATM    3  O3  UNK     1      10.726   7.286   5.263  1.00  0.00    -0.265 OA
HETATM    4  N1  UNK     1      12.229   5.924   6.461  1.00  0.00    -0.342 N 
HETATM    5  C1  UNK     1      12.233   5.208   7.721  1.00  0.00     0.158 A 
HETATM    6  C2  UNK     1      10.869   5.546   8.217  1.00  0.00     0.059 A 
HETATM    7  C3  UNK     1      10.179   6.336   7.390  1.00  0.00     0.156 A 
HETATM    8  C5  UNK     1      10.226   5.099   9.458  1.00  0.00     0.196 A 
HETATM    9  C6  UNK     1      11.036   6.604   6.224  1.00  0.00     0.277 A 
HETATM   10  C7  UNK     1       8.853   5.614   9.671  1.00  0.00     0.049 A 
HETATM   11  C8  UNK     1       8.267   6.447   8.704  1.00  0.00     0.090 A 
HETATM   12  C11 UNK     1       8.145   5.273  10.825  1.00  0.00     0.018 A 
HETATM   13  C12 UNK     1       6.975   6.937   8.894  1.00  0.00     0.038 A 
HETATM   14  C15 UNK     1       6.851   5.767  11.010  1.00  0.00     0.001 A 
HETATM   15  C16 UNK     1       6.270   6.595  10.049  1.00  0.00     0.003 A 
HETATM   16  H2  UNK     1      13.004   5.916   5.804  1.00  0.00     0.163 HD
ENDROOT
BRANCH   5  17
HETATM   17  C4  UNK     1      13.327   5.691   8.606  1.00  0.00    -0.031 A 
HETATM   18  C10 UNK     1      14.219   4.782   9.178  1.00  0.00     0.012 A 
HETATM   19  C14 UNK     1      15.246   5.235  10.008  1.00  0.00     0.043 A 
HETATM   20  C17 UNK     1      15.382   6.599  10.266  1.00  0.00     0.116 A 
HETATM   21  C13 UNK     1      14.493   7.510   9.695  1.00  0.00     0.043 A 
HETATM   22  F1  UNK     1      16.367   7.034  11.061  1.00  0.00    -0.206 F 
HETATM   23  C9  UNK     1      13.467   7.056   8.866  1.00  0.00     0.012 A 
ENDBRANCH   5  17
TORSDOF 1
ENDMDL
