MODEL 1
REMARK VINA RESULT:      -7.8      0.000      0.000
REMARK  3 active torsions:
REMARK  status: ('A' for Active; 'I' for Inactive)
REMARK       I    between atoms: C5_10  and  N1_5 
REMARK    1  A    between atoms: C8_13  and  N1_5 
REMARK    2  A    between atoms: C2_7  and  C5_10 
REMARK    3  A    between atoms: C12_17  and  C8_13 
ROOT
HETATM    1  O1  UNK     1      18.148   3.048  32.844  1.00  0.00    -0.274 OA
HETATM    2  O3  UNK     1      18.357   0.850  32.260  1.00  0.00    -0.259 OA
HETATM    3  C1  UNK     1      18.539   4.775  31.179  1.00  0.00    -0.001 A 
HETATM    4  C2  UNK     1      18.760   2.445  30.555  1.00  0.00     0.108 A 
HETATM    5  C3  UNK     1      18.210   4.407  32.480  1.00  0.00     0.089 A 
HETATM    6  C4  UNK     1      18.819   3.734  30.202  1.00  0.00     0.037 A 
HETATM    7  C6  UNK     1      18.589   6.133  30.855  1.00  0.00     0.014 A 
HETATM    8  C7  UNK     1      18.411   2.030  31.933  1.00  0.00     0.304 A 
HETATM    9  C9  UNK     1      17.931   5.355  33.462  1.00  0.00     0.038 A 
HETATM   10  C10 UNK     1      18.311   7.096  31.830  1.00  0.00     0.001 A 
HETATM   11  C11 UNK     1      17.982   6.707  33.130  1.00  0.00     0.003 A 
ENDROOT
BRANCH   4  12
HETATM   12  C5  UNK     1      19.060   1.469  29.500  1.00  0.00     0.257 C 
HETATM   13  O2  UNK     1      18.454   1.489  28.431  1.00  0.00    -0.267 OA
HETATM   14  N1  UNK     1      20.057   0.579  29.859  1.00  0.00    -0.356 N 
HETATM   15  H5  UNK     1      20.483   0.631  30.778  1.00  0.00     0.162 HD
BRANCH  14  16
HETATM   16  C8  UNK     1      20.523  -0.475  28.986  1.00  0.00     0.137 C 
BRANCH  16  17
HETATM   17  C12 UNK     1      20.425  -1.820  29.685  1.00  0.00     0.134 C 
HETATM   18 Cl1  UNK     1      20.473  -1.635  31.456  1.00  0.00    -0.129 Cl
ENDBRANCH  16  17
ENDBRANCH  14  16
ENDBRANCH   4  12
TORSDOF 3
ENDMDL
MODEL 2
REMARK VINA RESULT:      -7.6      2.577      5.935
REMARK  3 active torsions:
REMARK  status: ('A' for Active; 'I' for Inactive)
REMARK       I    between atoms: C5_10  and  N1_5 
REMARK    1  A    between atoms: C8_13  and  N1_5 
REMARK    2  A    between atoms: C2_7  and  C5_10 
REMARK    3  A    between atoms: C12_17  and  C8_13 
ROOT
HETATM    1  O1  UNK     1      18.883   0.402  32.246  1.00  0.00    -0.274 OA
HETATM    2  O3  UNK     1      17.980   2.495  32.398  1.00  0.00    -0.259 OA
HETATM    3  C1  UNK     1      19.908  -0.315  30.162  1.00  0.00    -0.001 A 
HETATM    4  C2  UNK     1      18.953   1.905  30.319  1.00  0.00     0.108 A 
HETATM    5  C3  UNK     1      19.548  -0.575  31.481  1.00  0.00     0.089 A 
HETATM    6  C4  UNK     1      19.585   0.981  29.586  1.00  0.00     0.037 A 
HETATM    7  C6  UNK     1      20.567  -1.309  29.435  1.00  0.00     0.014 A 
HETATM    8  C7  UNK     1      18.561   1.651  31.724  1.00  0.00     0.304 A 
HETATM    9  C9  UNK     1      19.828  -1.797  32.090  1.00  0.00     0.038 A 
HETATM   10  C10 UNK     1      20.855  -2.540  30.033  1.00  0.00     0.001 A 
HETATM   11  C11 UNK     1      20.486  -2.782  31.358  1.00  0.00     0.003 A 
ENDROOT
BRANCH   4  12
HETATM   12  C5  UNK     1      18.670   3.181  29.650  1.00  0.00     0.257 C 
HETATM   13  O2  UNK     1      18.013   3.218  28.613  1.00  0.00    -0.267 OA
HETATM   14  N1  UNK     1      19.216   4.267  30.312  1.00  0.00    -0.356 N 
HETATM   15  H5  UNK     1      19.764   4.130  31.155  1.00  0.00     0.162 HD
BRANCH  14  16
HETATM   16  C8  UNK     1      19.074   5.627  29.843  1.00  0.00     0.137 C 
BRANCH  16  17
HETATM   17  C12 UNK     1      18.669   6.540  30.987  1.00  0.00     0.134 C 
HETATM   18 Cl1  UNK     1      19.851   6.473  32.319  1.00  0.00    -0.129 Cl
ENDBRANCH  16  17
ENDBRANCH  14  16
ENDBRANCH   4  12
TORSDOF 3
ENDMDL
MODEL 3
REMARK VINA RESULT:      -7.4      2.582      6.242
REMARK  3 active torsions:
REMARK  status: ('A' for Active; 'I' for Inactive)
REMARK       I    between atoms: C5_10  and  N1_5 
REMARK    1  A    between atoms: C8_13  and  N1_5 
REMARK    2  A    between atoms: C2_7  and  C5_10 
REMARK    3  A    between atoms: C12_17  and  C8_13 
ROOT
HETATM    1  O1  UNK     1      19.001   1.242  28.613  1.00  0.00    -0.274 OA
HETATM    2  O3  UNK     1      18.150   3.361  28.566  1.00  0.00    -0.259 OA
HETATM    3  C1  UNK     1      19.595   0.234  30.743  1.00  0.00    -0.001 A 
HETATM    4  C2  UNK     1      18.692   2.481  30.698  1.00  0.00     0.108 A 
HETATM    5  C3  UNK     1      19.503   0.157  29.357  1.00  0.00     0.089 A 
HETATM    6  C4  UNK     1      19.167   1.453  31.411  1.00  0.00     0.037 A 
HETATM    7  C6  UNK     1      20.098  -0.863  31.447  1.00  0.00     0.014 A 
HETATM    8  C7  UNK     1      18.583   2.421  29.222  1.00  0.00     0.304 A 
HETATM    9  C9  UNK     1      19.897  -0.982  28.658  1.00  0.00     0.038 A 
HETATM   10  C10 UNK     1      20.497  -2.013  30.759  1.00  0.00     0.001 A 
HETATM   11  C11 UNK     1      20.396  -2.072  29.367  1.00  0.00     0.003 A 
ENDROOT
BRANCH   4  12
HETATM   12  C5  UNK     1      18.286   3.667  31.461  1.00  0.00     0.257 C 
HETATM   13  O2  UNK     1      17.596   3.561  32.472  1.00  0.00    -0.267 OA
HETATM   14  N1  UNK     1      18.758   4.847  30.913  1.00  0.00    -0.356 N 
HETATM   15  H5  UNK     1      19.304   4.831  30.058  1.00  0.00     0.162 HD
BRANCH  14  16
HETATM   16  C8  UNK     1      18.486   6.146  31.486  1.00  0.00     0.137 C 
BRANCH  16  17
HETATM   17  C12 UNK     1      19.658   6.604  32.336  1.00  0.00     0.134 C 
HETATM   18 Cl1  UNK     1      19.527   5.992  34.004  1.00  0.00    -0.129 Cl
ENDBRANCH  16  17
ENDBRANCH  14  16
ENDBRANCH   4  12
TORSDOF 3
ENDMDL
MODEL 4
REMARK VINA RESULT:      -7.4      3.979      6.640
REMARK  3 active torsions:
REMARK  status: ('A' for Active; 'I' for Inactive)
REMARK       I    between atoms: C5_10  and  N1_5 
REMARK    1  A    between atoms: C8_13  and  N1_5 
REMARK    2  A    between atoms: C2_7  and  C5_10 
REMARK    3  A    between atoms: C12_17  and  C8_13 
ROOT
HETATM    1  O1  UNK     1      18.821   1.320  31.488  1.00  0.00    -0.274 OA
HETATM    2  O3  UNK     1      17.797   2.258  33.301  1.00  0.00    -0.259 OA
HETATM    3  C1  UNK     1      19.511  -1.010  31.571  1.00  0.00    -0.001 A 
HETATM    4  C2  UNK     1      18.424  -0.019  33.496  1.00  0.00     0.108 A 
HETATM    5  C3  UNK     1      19.416   0.196  30.883  1.00  0.00     0.089 A 
HETATM    6  C4  UNK     1      18.987  -1.090  32.926  1.00  0.00     0.037 A 
HETATM    7  C6  UNK     1      20.107  -2.102  30.937  1.00  0.00     0.014 A 
HETATM    8  C7  UNK     1      18.311   1.274  32.782  1.00  0.00     0.304 A 
HETATM    9  C9  UNK     1      19.898   0.339  29.583  1.00  0.00     0.038 A 
HETATM   10  C10 UNK     1      20.595  -1.974  29.633  1.00  0.00     0.001 A 
HETATM   11  C11 UNK     1      20.490  -0.756  28.958  1.00  0.00     0.003 A 
ENDROOT
BRANCH   4  12
HETATM   12  C5  UNK     1      17.926  -0.198  34.865  1.00  0.00     0.257 C 
HETATM   13  O2  UNK     1      18.575  -0.832  35.694  1.00  0.00    -0.267 OA
HETATM   14  N1  UNK     1      16.700   0.407  35.075  1.00  0.00    -0.356 N 
HETATM   15  H5  UNK     1      16.231   0.891  34.316  1.00  0.00     0.162 HD
BRANCH  14  16
HETATM   16  C8  UNK     1      16.007   0.364  36.343  1.00  0.00     0.137 C 
BRANCH  16  17
HETATM   17  C12 UNK     1      16.407   1.551  37.202  1.00  0.00     0.134 C 
HETATM   18 Cl1  UNK     1      17.677   1.106  38.370  1.00  0.00    -0.129 Cl
ENDBRANCH  16  17
ENDBRANCH  14  16
ENDBRANCH   4  12
TORSDOF 3
ENDMDL
MODEL 5
REMARK VINA RESULT:      -7.2      6.341      7.705
REMARK  3 active torsions:
REMARK  status: ('A' for Active; 'I' for Inactive)
REMARK       I    between atoms: C5_10  and  N1_5 
REMARK    1  A    between atoms: C8_13  and  N1_5 
REMARK    2  A    between atoms: C2_7  and  C5_10 
REMARK    3  A    between atoms: C12_17  and  C8_13 
ROOT
HETATM    1  O1  UNK     1      19.594  -0.876  34.823  1.00  0.00    -0.274 OA
HETATM    2  O3  UNK     1      20.598  -2.827  34.189  1.00  0.00    -0.259 OA
HETATM    3  C1  UNK     1      18.424  -0.764  36.951  1.00  0.00    -0.001 A 
HETATM    4  C2  UNK     1      19.488  -2.835  36.282  1.00  0.00     0.108 A 
HETATM    5  C3  UNK     1      18.842  -0.156  35.771  1.00  0.00     0.089 A 
HETATM    6  C4  UNK     1      18.774  -2.156  37.187  1.00  0.00     0.037 A 
HETATM    7  C6  UNK     1      17.680  -0.017  37.867  1.00  0.00     0.014 A 
HETATM    8  C7  UNK     1      19.945  -2.208  35.021  1.00  0.00     0.304 A 
HETATM    9  C9  UNK     1      18.539   1.174  35.484  1.00  0.00     0.038 A 
HETATM   10  C10 UNK     1      17.368   1.318  37.593  1.00  0.00     0.001 A 
HETATM   11  C11 UNK     1      17.797   1.912  36.404  1.00  0.00     0.003 A 
ENDROOT
BRANCH   4  12
HETATM   12  C5  UNK     1      19.791  -4.233  36.611  1.00  0.00     0.257 C 
HETATM   13  O2  UNK     1      20.932  -4.577  36.913  1.00  0.00    -0.267 OA
HETATM   14  N1  UNK     1      18.682  -5.056  36.535  1.00  0.00    -0.356 N 
HETATM   15  H5  UNK     1      17.783  -4.678  36.254  1.00  0.00     0.162 HD
BRANCH  14  16
HETATM   16  C8  UNK     1      18.732  -6.474  36.812  1.00  0.00     0.137 C 
BRANCH  16  17
HETATM   17  C12 UNK     1      18.631  -7.268  35.522  1.00  0.00     0.134 C 
HETATM   18 Cl1  UNK     1      20.124  -7.134  34.559  1.00  0.00    -0.129 Cl
ENDBRANCH  16  17
ENDBRANCH  14  16
ENDBRANCH   4  12
TORSDOF 3
ENDMDL
MODEL 6
REMARK VINA RESULT:      -7.1      3.824      6.425
REMARK  3 active torsions:
REMARK  status: ('A' for Active; 'I' for Inactive)
REMARK       I    between atoms: C5_10  and  N1_5 
REMARK    1  A    between atoms: C8_13  and  N1_5 
REMARK    2  A    between atoms: C2_7  and  C5_10 
REMARK    3  A    between atoms: C12_17  and  C8_13 
ROOT
HETATM    1  O1  UNK     1      18.862   1.244  31.640  1.00  0.00    -0.274 OA
HETATM    2  O3  UNK     1      17.710   2.099  33.418  1.00  0.00    -0.259 OA
HETATM    3  C1  UNK     1      19.465  -1.111  31.620  1.00  0.00    -0.001 A 
HETATM    4  C2  UNK     1      18.243  -0.209  33.507  1.00  0.00     0.108 A 
HETATM    5  C3  UNK     1      19.472   0.141  31.012  1.00  0.00     0.089 A 
HETATM    6  C4  UNK     1      18.820  -1.261  32.915  1.00  0.00     0.037 A 
HETATM    7  C6  UNK     1      20.080  -2.181  30.966  1.00  0.00     0.014 A 
HETATM    8  C7  UNK     1      18.237   1.132  32.878  1.00  0.00     0.304 A 
HETATM    9  C9  UNK     1      20.074   0.351  29.773  1.00  0.00     0.038 A 
HETATM   10  C10 UNK     1      20.688  -1.986  29.722  1.00  0.00     0.001 A 
HETATM   11  C11 UNK     1      20.684  -0.722  29.127  1.00  0.00     0.003 A 
ENDROOT
BRANCH   4  12
HETATM   12  C5  UNK     1      17.619  -0.460  34.812  1.00  0.00     0.257 C 
HETATM   13  O2  UNK     1      16.512  -0.987  34.890  1.00  0.00    -0.267 OA
HETATM   14  N1  UNK     1      18.403  -0.042  35.872  1.00  0.00    -0.356 N 
HETATM   15  H5  UNK     1      19.298   0.405  35.702  1.00  0.00     0.162 HD
BRANCH  14  16
HETATM   16  C8  UNK     1      17.999  -0.181  37.253  1.00  0.00     0.137 C 
BRANCH  16  17
HETATM   17  C12 UNK     1      18.239  -1.602  37.733  1.00  0.00     0.134 C 
HETATM   18 Cl1  UNK     1      19.607  -2.353  36.874  1.00  0.00    -0.129 Cl
ENDBRANCH  16  17
ENDBRANCH  14  16
ENDBRANCH   4  12
TORSDOF 3
ENDMDL
MODEL 7
REMARK VINA RESULT:      -7.0      3.118      4.467
REMARK  3 active torsions:
REMARK  status: ('A' for Active; 'I' for Inactive)
REMARK       I    between atoms: C5_10  and  N1_5 
REMARK    1  A    between atoms: C8_13  and  N1_5 
REMARK    2  A    between atoms: C2_7  and  C5_10 
REMARK    3  A    between atoms: C12_17  and  C8_13 
ROOT
HETATM    1  O1  UNK     1      18.889   2.543  30.676  1.00  0.00    -0.274 OA
HETATM    2  O3  UNK     1      18.778   0.394  31.442  1.00  0.00    -0.259 OA
HETATM    3  C1  UNK     1      18.414   4.384  32.191  1.00  0.00    -0.001 A 
HETATM    4  C2  UNK     1      18.296   2.106  33.008  1.00  0.00     0.108 A 
HETATM    5  C3  UNK     1      18.764   3.924  30.925  1.00  0.00     0.089 A 
HETATM    6  C4  UNK     1      18.177   3.417  33.251  1.00  0.00     0.037 A 
HETATM    7  C6  UNK     1      18.301   5.761  32.400  1.00  0.00     0.014 A 
HETATM    8  C7  UNK     1      18.669   1.594  31.669  1.00  0.00     0.304 A 
HETATM    9  C9  UNK     1      19.005   4.798  29.867  1.00  0.00     0.038 A 
HETATM   10  C10 UNK     1      18.539   6.650  31.348  1.00  0.00     0.001 A 
HETATM   11  C11 UNK     1      18.891   6.169  30.084  1.00  0.00     0.003 A 
ENDROOT
BRANCH   4  12
HETATM   12  C5  UNK     1      18.036   1.210  34.140  1.00  0.00     0.257 C 
HETATM   13  O2  UNK     1      18.919   0.950  34.954  1.00  0.00    -0.267 OA
HETATM   14  N1  UNK     1      16.739   0.728  34.158  1.00  0.00    -0.356 N 
HETATM   15  H5  UNK     1      16.088   0.985  33.424  1.00  0.00     0.162 HD
BRANCH  14  16
HETATM   16  C8  UNK     1      16.248  -0.174  35.175  1.00  0.00     0.137 C 
BRANCH  16  17
HETATM   17  C12 UNK     1      15.497   0.596  36.246  1.00  0.00     0.134 C 
HETATM   18 Cl1  UNK     1      16.619   1.379  37.388  1.00  0.00    -0.129 Cl
ENDBRANCH  16  17
ENDBRANCH  14  16
ENDBRANCH   4  12
TORSDOF 3
ENDMDL
MODEL 8
REMARK VINA RESULT:      -7.0     22.834     24.196
REMARK  3 active torsions:
REMARK  status: ('A' for Active; 'I' for Inactive)
REMARK       I    between atoms: C5_10  and  N1_5 
REMARK    1  A    between atoms: C8_13  and  N1_5 
REMARK    2  A    between atoms: C2_7  and  C5_10 
REMARK    3  A    between atoms: C12_17  and  C8_13 
ROOT
HETATM    1  O1  UNK     1      11.163   7.184   9.492  1.00  0.00    -0.274 OA
HETATM    2  O3  UNK     1      12.882   7.463  10.971  1.00  0.00    -0.259 OA
HETATM    3  C1  UNK     1      11.628   6.355   7.254  1.00  0.00    -0.001 A 
HETATM    4  C2  UNK     1      13.453   6.648   8.820  1.00  0.00     0.108 A 
HETATM    5  C3  UNK     1      10.722   6.805   8.210  1.00  0.00     0.089 A 
HETATM    6  C4  UNK     1      13.039   6.285   7.601  1.00  0.00     0.037 A 
HETATM    7  C6  UNK     1      11.152   5.987   5.994  1.00  0.00     0.014 A 
HETATM    8  C7  UNK     1      12.506   7.129   9.853  1.00  0.00     0.304 A 
HETATM    9  C9  UNK     1       9.357   6.896   7.941  1.00  0.00     0.038 A 
HETATM   10  C10 UNK     1       9.785   6.072   5.710  1.00  0.00     0.001 A 
HETATM   11  C11 UNK     1       8.891   6.526   6.682  1.00  0.00     0.003 A 
ENDROOT
BRANCH   4  12
HETATM   12  C5  UNK     1      14.895   6.543   9.074  1.00  0.00     0.257 C 
HETATM   13  O2  UNK     1      15.522   5.539   8.745  1.00  0.00    -0.267 OA
HETATM   14  N1  UNK     1      15.414   7.663   9.700  1.00  0.00    -0.356 N 
HETATM   15  H5  UNK     1      14.807   8.436   9.952  1.00  0.00     0.162 HD
BRANCH  14  16
HETATM   16  C8  UNK     1      16.809   7.791  10.055  1.00  0.00     0.137 C 
BRANCH  16  17
HETATM   17  C12 UNK     1      17.302   9.197   9.758  1.00  0.00     0.134 C 
HETATM   18 Cl1  UNK     1      16.045  10.167   8.949  1.00  0.00    -0.129 Cl
ENDBRANCH  16  17
ENDBRANCH  14  16
ENDBRANCH   4  12
TORSDOF 3
ENDMDL
MODEL 9
REMARK VINA RESULT:      -6.9     13.373     15.330
REMARK  3 active torsions:
REMARK  status: ('A' for Active; 'I' for Inactive)
REMARK       I    between atoms: C5_10  and  N1_5 
REMARK    1  A    between atoms: C8_13  and  N1_5 
REMARK    2  A    between atoms: C2_7  and  C5_10 
REMARK    3  A    between atoms: C12_17  and  C8_13 
ROOT
HETATM    1  O1  UNK     1      19.268   1.034  15.365  1.00  0.00    -0.274 OA
HETATM    2  O3  UNK     1      19.261  -0.551  13.720  1.00  0.00    -0.259 OA
HETATM    3  C1  UNK     1      18.912   0.368  17.675  1.00  0.00    -0.001 A 
HETATM    4  C2  UNK     1      18.906  -1.317  15.934  1.00  0.00     0.108 A 
HETATM    5  C3  UNK     1      19.147   1.361  16.729  1.00  0.00     0.089 A 
HETATM    6  C4  UNK     1      18.791  -1.013  17.232  1.00  0.00     0.037 A 
HETATM    7  C6  UNK     1      18.799   0.731  19.019  1.00  0.00     0.014 A 
HETATM    8  C7  UNK     1      19.157  -0.277  14.910  1.00  0.00     0.304 A 
HETATM    9  C9  UNK     1      19.273   2.701  17.088  1.00  0.00     0.038 A 
HETATM   10  C10 UNK     1      18.923   2.072  19.395  1.00  0.00     0.001 A 
HETATM   11  C11 UNK     1      19.160   3.054  18.431  1.00  0.00     0.003 A 
ENDROOT
BRANCH   4  12
HETATM   12  C5  UNK     1      18.768  -2.736  15.585  1.00  0.00     0.257 C 
HETATM   13  O2  UNK     1      17.724  -3.343  15.813  1.00  0.00    -0.267 OA
HETATM   14  N1  UNK     1      19.909  -3.260  15.003  1.00  0.00    -0.356 N 
HETATM   15  H5  UNK     1      20.731  -2.679  14.876  1.00  0.00     0.162 HD
BRANCH  14  16
HETATM   16  C8  UNK     1      20.014  -4.637  14.576  1.00  0.00     0.137 C 
BRANCH  16  17
HETATM   17  C12 UNK     1      20.993  -5.390  15.460  1.00  0.00     0.134 C 
HETATM   18 Cl1  UNK     1      21.990  -4.270  16.422  1.00  0.00    -0.129 Cl
ENDBRANCH  16  17
ENDBRANCH  14  16
ENDBRANCH   4  12
TORSDOF 3
ENDMDL
MODEL 10
REMARK VINA RESULT:      -6.9      2.190      3.420
REMARK  3 active torsions:
REMARK  status: ('A' for Active; 'I' for Inactive)
REMARK       I    between atoms: C5_10  and  N1_5 
REMARK    1  A    between atoms: C8_13  and  N1_5 
REMARK    2  A    between atoms: C2_7  and  C5_10 
REMARK    3  A    between atoms: C12_17  and  C8_13 
ROOT
HETATM    1  O1  UNK     1      19.553   6.785  31.937  1.00  0.00    -0.274 OA
HETATM    2  O3  UNK     1      20.247   5.212  30.432  1.00  0.00    -0.259 OA
HETATM    3  C1  UNK     1      17.689   6.290  33.417  1.00  0.00    -0.001 A 
HETATM    4  C2  UNK     1      18.423   4.619  31.824  1.00  0.00     0.108 A 
HETATM    5  C3  UNK     1      18.672   7.166  32.967  1.00  0.00     0.089 A 
HETATM    6  C4  UNK     1      17.584   4.975  32.803  1.00  0.00     0.037 A 
HETATM    7  C6  UNK     1      16.835   6.704  34.442  1.00  0.00     0.014 A 
HETATM    8  C7  UNK     1      19.478   5.534  31.330  1.00  0.00     0.304 A 
HETATM    9  C9  UNK     1      18.825   8.439  33.513  1.00  0.00     0.038 A 
HETATM   10  C10 UNK     1      16.976   7.979  34.999  1.00  0.00     0.001 A 
HETATM   11  C11 UNK     1      17.970   8.844  34.535  1.00  0.00     0.003 A 
ENDROOT
BRANCH   4  12
HETATM   12  C5  UNK     1      18.238   3.273  31.268  1.00  0.00     0.257 C 
HETATM   13  O2  UNK     1      17.979   2.320  31.998  1.00  0.00    -0.267 OA
HETATM   14  N1  UNK     1      18.388   3.234  29.893  1.00  0.00    -0.356 N 
HETATM   15  H5  UNK     1      18.624   4.077  29.380  1.00  0.00     0.162 HD
BRANCH  14  16
HETATM   16  C8  UNK     1      18.255   2.020  29.121  1.00  0.00     0.137 C 
BRANCH  16  17
HETATM   17  C12 UNK     1      19.427   1.092  29.388  1.00  0.00     0.134 C 
HETATM   18 Cl1  UNK     1      19.383  -0.332  28.319  1.00  0.00    -0.129 Cl
ENDBRANCH  16  17
ENDBRANCH  14  16
ENDBRANCH   4  12
TORSDOF 3
ENDMDL
