MODEL 1
REMARK VINA RESULT:     -10.2      0.000      0.000
REMARK  3 active torsions:
REMARK  status: ('A' for Active; 'I' for Inactive)
REMARK    1  A    between atoms: C1_5  and  C6_10 
REMARK    2  A    between atoms: C2_6  and  C4_8 
REMARK    3  A    between atoms: C3_7  and  C8_12 
ROOT
HETATM    1  N1  UNK     1      19.997  -3.584  34.910  1.00  0.00    -0.338 N 
HETATM    2  N2  UNK     1      19.169  -2.868  36.842  1.00  0.00    -0.227 NA
HETATM    3  C1  UNK     1      19.549  -2.314  34.678  1.00  0.00     0.074 A 
HETATM    4  C2  UNK     1      19.747  -3.878  36.224  1.00  0.00     0.145 A 
HETATM    5  C3  UNK     1      19.042  -1.893  35.885  1.00  0.00     0.097 A 
HETATM    6  H1  UNK     1      20.443  -4.185  34.229  1.00  0.00     0.167 HD
ENDROOT
BRANCH   4   7
HETATM    7  C4  UNK     1      20.161  -5.245  36.725  1.00  0.00     0.083 A 
HETATM    8  C10 UNK     1      20.301  -5.522  38.028  1.00  0.00     0.162 A 
HETATM    9  O1  UNK     1      20.663  -6.726  38.583  1.00  0.00    -0.321 OA
HETATM   10  C9  UNK     1      20.886  -7.775  37.729  1.00  0.00     0.089 A 
HETATM   11  C13 UNK     1      21.225  -9.003  38.301  1.00  0.00     0.039 A 
HETATM   12  C5  UNK     1      20.790  -7.652  36.344  1.00  0.00     0.049 A 
HETATM   13  C16 UNK     1      21.465 -10.106  37.482  1.00  0.00     0.009 A 
HETATM   14  C12 UNK     1      21.369  -9.982  36.095  1.00  0.00    -0.061 A 
HETATM   15  C11 UNK     1      21.032  -8.755  35.521  1.00  0.00     0.025 A 
HETATM   16  C19 UNK     1      21.629 -11.166  35.225  1.00  0.00     0.048 C 
HETATM   17  C7  UNK     1      20.438  -6.344  35.762  1.00  0.00     0.200 A 
HETATM   18  O2  UNK     1      20.396  -6.179  34.551  1.00  0.00    -0.286 OA
ENDBRANCH   4   7
BRANCH   3  19
HETATM   19  C6  UNK     1      19.650  -1.676  33.389  1.00  0.00    -0.007 A 
HETATM   20  C14 UNK     1      20.618  -2.098  32.477  1.00  0.00     0.014 A 
HETATM   21  C20 UNK     1      20.718  -1.481  31.229  1.00  0.00     0.001 A 
HETATM   22  C24 UNK     1      19.850  -0.442  30.894  1.00  0.00     0.000 A 
HETATM   23  C21 UNK     1      18.882  -0.019  31.807  1.00  0.00     0.001 A 
HETATM   24  C15 UNK     1      18.783  -0.636  33.053  1.00  0.00     0.014 A 
ENDBRANCH   3  19
BRANCH   5  25
HETATM   25  C8  UNK     1      18.453  -0.614  36.141  1.00  0.00    -0.005 A 
HETATM   26  C17 UNK     1      19.227   0.546  36.055  1.00  0.00     0.014 A 
HETATM   27  C22 UNK     1      18.653   1.793  36.303  1.00  0.00     0.001 A 
HETATM   28  C25 UNK     1      17.302   1.883  36.640  1.00  0.00     0.000 A 
HETATM   29  C23 UNK     1      16.526   0.728  36.726  1.00  0.00     0.001 A 
HETATM   30  C18 UNK     1      17.100  -0.519  36.477  1.00  0.00     0.014 A 
ENDBRANCH   5  25
TORSDOF 3
ENDMDL
MODEL 2
REMARK VINA RESULT:     -10.1      1.469      3.768
REMARK  3 active torsions:
REMARK  status: ('A' for Active; 'I' for Inactive)
REMARK    1  A    between atoms: C1_5  and  C6_10 
REMARK    2  A    between atoms: C2_6  and  C4_8 
REMARK    3  A    between atoms: C3_7  and  C8_12 
ROOT
HETATM    1  N1  UNK     1      19.063  -2.902  36.579  1.00  0.00    -0.338 N 
HETATM    2  N2  UNK     1      20.322  -3.457  34.836  1.00  0.00    -0.227 NA
HETATM    3  C1  UNK     1      18.811  -1.962  35.620  1.00  0.00     0.074 A 
HETATM    4  C2  UNK     1      19.978  -3.782  36.065  1.00  0.00     0.145 A 
HETATM    5  C3  UNK     1      19.600  -2.325  34.554  1.00  0.00     0.097 A 
HETATM    6  H1  UNK     1      18.634  -2.940  37.494  1.00  0.00     0.167 HD
ENDROOT
BRANCH   4   7
HETATM    7  C4  UNK     1      20.419  -4.928  36.950  1.00  0.00     0.083 A 
HETATM    8  C10 UNK     1      21.462  -4.833  37.785  1.00  0.00     0.162 A 
HETATM    9  O1  UNK     1      21.936  -5.807  38.630  1.00  0.00    -0.321 OA
HETATM   10  C9  UNK     1      21.268  -7.004  38.655  1.00  0.00     0.089 A 
HETATM   11  C13 UNK     1      21.736  -7.979  39.537  1.00  0.00     0.039 A 
HETATM   12  C5  UNK     1      20.166  -7.269  37.842  1.00  0.00     0.049 A 
HETATM   13  C16 UNK     1      21.098  -9.218  39.604  1.00  0.00     0.009 A 
HETATM   14  C12 UNK     1      19.995  -9.482  38.791  1.00  0.00    -0.061 A 
HETATM   15  C11 UNK     1      19.526  -8.509  37.906  1.00  0.00     0.025 A 
HETATM   16  C19 UNK     1      19.317 -10.809  38.866  1.00  0.00     0.048 C 
HETATM   17  C7  UNK     1      19.694  -6.226  36.913  1.00  0.00     0.200 A 
HETATM   18  O2  UNK     1      18.766  -6.435  36.143  1.00  0.00    -0.286 OA
ENDBRANCH   4   7
BRANCH   3  19
HETATM   19  C6  UNK     1      17.889  -0.872  35.822  1.00  0.00    -0.007 A 
HETATM   20  C14 UNK     1      18.290   0.256  36.540  1.00  0.00     0.014 A 
HETATM   21  C20 UNK     1      17.398   1.311  36.737  1.00  0.00     0.001 A 
HETATM   22  C24 UNK     1      16.106   1.239  36.217  1.00  0.00     0.000 A 
HETATM   23  C21 UNK     1      15.705   0.111  35.500  1.00  0.00     0.001 A 
HETATM   24  C15 UNK     1      16.596  -0.943  35.303  1.00  0.00     0.014 A 
ENDBRANCH   3  19
BRANCH   5  25
HETATM   25  C8  UNK     1      19.680  -1.633  33.303  1.00  0.00    -0.005 A 
HETATM   26  C17 UNK     1      18.912  -0.486  33.085  1.00  0.00     0.014 A 
HETATM   27  C22 UNK     1      18.990   0.188  31.866  1.00  0.00     0.001 A 
HETATM   28  C25 UNK     1      19.836  -0.283  30.861  1.00  0.00     0.000 A 
HETATM   29  C23 UNK     1      20.604  -1.427  31.076  1.00  0.00     0.001 A 
HETATM   30  C18 UNK     1      20.527  -2.102  32.295  1.00  0.00     0.014 A 
ENDBRANCH   5  25
TORSDOF 3
ENDMDL
MODEL 3
REMARK VINA RESULT:      -9.7      6.676     12.554
REMARK  3 active torsions:
REMARK  status: ('A' for Active; 'I' for Inactive)
REMARK    1  A    between atoms: C1_5  and  C6_10 
REMARK    2  A    between atoms: C2_6  and  C4_8 
REMARK    3  A    between atoms: C3_7  and  C8_12 
ROOT
HETATM    1  N1  UNK     1      17.993   3.932  33.543  1.00  0.00    -0.338 N 
HETATM    2  N2  UNK     1      18.237   4.345  31.375  1.00  0.00    -0.227 NA
HETATM    3  C1  UNK     1      18.261   2.725  32.959  1.00  0.00     0.074 A 
HETATM    4  C2  UNK     1      17.987   4.878  32.553  1.00  0.00     0.145 A 
HETATM    5  C3  UNK     1      18.408   3.006  31.621  1.00  0.00     0.097 A 
HETATM    6  H1  UNK     1      17.841   4.088  34.531  1.00  0.00     0.167 HD
ENDROOT
BRANCH   4   7
HETATM    7  C4  UNK     1      17.712   6.310  32.958  1.00  0.00     0.083 A 
HETATM    8  C10 UNK     1      18.637   7.086  33.538  1.00  0.00     0.162 A 
HETATM    9  O1  UNK     1      18.490   8.393  33.935  1.00  0.00    -0.321 OA
HETATM   10  C9  UNK     1      17.281   8.994  33.698  1.00  0.00     0.089 A 
HETATM   11  C13 UNK     1      17.147  10.331  34.077  1.00  0.00     0.039 A 
HETATM   12  C5  UNK     1      16.209   8.325  33.109  1.00  0.00     0.049 A 
HETATM   13  C16 UNK     1      15.940  10.995  33.864  1.00  0.00     0.009 A 
HETATM   14  C12 UNK     1      14.867  10.325  33.274  1.00  0.00    -0.061 A 
HETATM   15  C11 UNK     1      14.997   8.987  32.896  1.00  0.00     0.025 A 
HETATM   16  C19 UNK     1      13.577  11.040  33.049  1.00  0.00     0.048 C 
HETATM   17  C7  UNK     1      16.371   6.911  32.724  1.00  0.00     0.200 A 
HETATM   18  O2  UNK     1      15.440   6.271  32.255  1.00  0.00    -0.286 OA
ENDBRANCH   4   7
BRANCH   3  19
HETATM   19  C6  UNK     1      18.341   1.498  33.711  1.00  0.00    -0.007 A 
HETATM   20  C14 UNK     1      18.592   1.536  35.083  1.00  0.00     0.014 A 
HETATM   21  C20 UNK     1      18.671   0.349  35.812  1.00  0.00     0.001 A 
HETATM   22  C24 UNK     1      18.500  -0.877  35.168  1.00  0.00     0.000 A 
HETATM   23  C21 UNK     1      18.250  -0.915  33.796  1.00  0.00     0.001 A 
HETATM   24  C15 UNK     1      18.171   0.271  33.068  1.00  0.00     0.014 A 
ENDBRANCH   3  19
BRANCH   5  25
HETATM   25  C8  UNK     1      18.698   2.050  30.596  1.00  0.00    -0.005 A 
HETATM   26  C17 UNK     1      19.767   1.163  30.747  1.00  0.00     0.014 A 
HETATM   27  C22 UNK     1      20.050   0.231  29.748  1.00  0.00     0.001 A 
HETATM   28  C25 UNK     1      19.266   0.183  28.596  1.00  0.00     0.000 A 
HETATM   29  C23 UNK     1      18.198   1.067  28.442  1.00  0.00     0.001 A 
HETATM   30  C18 UNK     1      17.914   1.999  29.441  1.00  0.00     0.014 A 
ENDBRANCH   5  25
TORSDOF 3
ENDMDL
MODEL 4
REMARK VINA RESULT:      -9.6      6.634     12.040
REMARK  3 active torsions:
REMARK  status: ('A' for Active; 'I' for Inactive)
REMARK    1  A    between atoms: C1_5  and  C6_10 
REMARK    2  A    between atoms: C2_6  and  C4_8 
REMARK    3  A    between atoms: C3_7  and  C8_12 
ROOT
HETATM    1  N1  UNK     1      18.632   4.311  32.046  1.00  0.00    -0.338 N 
HETATM    2  N2  UNK     1      18.123   3.794  34.145  1.00  0.00    -0.227 NA
HETATM    3  C1  UNK     1      18.457   2.956  32.066  1.00  0.00     0.074 A 
HETATM    4  C2  UNK     1      18.422   4.775  33.318  1.00  0.00     0.145 A 
HETATM    5  C3  UNK     1      18.143   2.661  33.372  1.00  0.00     0.097 A 
HETATM    6  H1  UNK     1      18.862   4.864  31.231  1.00  0.00     0.167 HD
ENDROOT
BRANCH   4   7
HETATM    7  C4  UNK     1      18.559   6.264  33.550  1.00  0.00     0.083 A 
HETATM    8  C10 UNK     1      19.748   6.863  33.702  1.00  0.00     0.162 A 
HETATM    9  O1  UNK     1      19.979   8.201  33.909  1.00  0.00    -0.321 OA
HETATM   10  C9  UNK     1      18.890   9.034  33.944  1.00  0.00     0.089 A 
HETATM   11  C13 UNK     1      19.133  10.397  34.125  1.00  0.00     0.039 A 
HETATM   12  C5  UNK     1      17.582   8.570  33.810  1.00  0.00     0.049 A 
HETATM   13  C16 UNK     1      18.065  11.292  34.171  1.00  0.00     0.009 A 
HETATM   14  C12 UNK     1      16.756  10.827  34.038  1.00  0.00    -0.061 A 
HETATM   15  C11 UNK     1      16.510   9.464  33.857  1.00  0.00     0.025 A 
HETATM   16  C19 UNK     1      15.617  11.789  34.089  1.00  0.00     0.048 C 
HETATM   17  C7  UNK     1      17.349   7.126  33.627  1.00  0.00     0.200 A 
HETATM   18  O2  UNK     1      16.216   6.669  33.560  1.00  0.00    -0.286 OA
ENDBRANCH   4   7
BRANCH   3  19
HETATM   19  C6  UNK     1      18.603   2.135  30.890  1.00  0.00    -0.007 A 
HETATM   20  C14 UNK     1      17.810   2.377  29.768  1.00  0.00     0.014 A 
HETATM   21  C20 UNK     1      17.950   1.583  28.629  1.00  0.00     0.001 A 
HETATM   22  C24 UNK     1      18.883   0.546  28.613  1.00  0.00     0.000 A 
HETATM   23  C21 UNK     1      19.676   0.303  29.735  1.00  0.00     0.001 A 
HETATM   24  C15 UNK     1      19.536   1.097  30.873  1.00  0.00     0.014 A 
ENDBRANCH   3  19
BRANCH   5  25
HETATM   25  C8  UNK     1      17.871   1.353  33.888  1.00  0.00    -0.005 A 
HETATM   26  C17 UNK     1      18.803   0.325  33.723  1.00  0.00     0.014 A 
HETATM   27  C22 UNK     1      18.537  -0.949  34.226  1.00  0.00     0.001 A 
HETATM   28  C25 UNK     1      17.339  -1.199  34.894  1.00  0.00     0.000 A 
HETATM   29  C23 UNK     1      16.406  -0.175  35.060  1.00  0.00     0.001 A 
HETATM   30  C18 UNK     1      16.671   1.100  34.558  1.00  0.00     0.014 A 
ENDBRANCH   5  25
TORSDOF 3
ENDMDL
MODEL 5
REMARK VINA RESULT:      -9.5      6.542     12.426
REMARK  3 active torsions:
REMARK  status: ('A' for Active; 'I' for Inactive)
REMARK    1  A    between atoms: C1_5  and  C6_10 
REMARK    2  A    between atoms: C2_6  and  C4_8 
REMARK    3  A    between atoms: C3_7  and  C8_12 
ROOT
HETATM    1  N1  UNK     1      17.819   3.742  33.333  1.00  0.00    -0.338 N 
HETATM    2  N2  UNK     1      18.121   4.030  31.152  1.00  0.00    -0.227 NA
HETATM    3  C1  UNK     1      18.243   2.535  32.851  1.00  0.00     0.074 A 
HETATM    4  C2  UNK     1      17.759   4.612  32.278  1.00  0.00     0.145 A 
HETATM    5  C3  UNK     1      18.422   2.738  31.503  1.00  0.00     0.097 A 
HETATM    6  H1  UNK     1      17.604   3.947  34.300  1.00  0.00     0.167 HD
ENDROOT
BRANCH   4   7
HETATM    7  C4  UNK     1      17.312   6.029  32.565  1.00  0.00     0.083 A 
HETATM    8  C10 UNK     1      16.048   6.435  32.388  1.00  0.00     0.162 A 
HETATM    9  O1  UNK     1      15.543   7.691  32.625  1.00  0.00    -0.321 OA
HETATM   10  C9  UNK     1      16.403   8.638  33.118  1.00  0.00     0.089 A 
HETATM   11  C13 UNK     1      15.876   9.903  33.385  1.00  0.00     0.039 A 
HETATM   12  C5  UNK     1      17.753   8.380  33.352  1.00  0.00     0.049 A 
HETATM   13  C16 UNK     1      16.704  10.907  33.886  1.00  0.00     0.009 A 
HETATM   14  C12 UNK     1      18.056  10.648  34.119  1.00  0.00    -0.061 A 
HETATM   15  C11 UNK     1      18.585   9.384  33.853  1.00  0.00     0.025 A 
HETATM   16  C19 UNK     1      18.936  11.727  34.655  1.00  0.00     0.048 C 
HETATM   17  C7  UNK     1      18.289   7.038  33.057  1.00  0.00     0.200 A 
HETATM   18  O2  UNK     1      19.478   6.785  33.195  1.00  0.00    -0.286 OA
ENDBRANCH   4   7
BRANCH   3  19
HETATM   19  C6  UNK     1      18.418   1.378  33.693  1.00  0.00    -0.007 A 
HETATM   20  C14 UNK     1      18.624   1.539  35.064  1.00  0.00     0.014 A 
HETATM   21  C20 UNK     1      18.796   0.421  35.881  1.00  0.00     0.001 A 
HETATM   22  C24 UNK     1      18.760  -0.859  35.327  1.00  0.00     0.000 A 
HETATM   23  C21 UNK     1      18.555  -1.020  33.956  1.00  0.00     0.001 A 
HETATM   24  C15 UNK     1      18.384   0.098  33.140  1.00  0.00     0.014 A 
ENDBRANCH   3  19
BRANCH   5  25
HETATM   25  C8  UNK     1      18.862   1.752  30.563  1.00  0.00    -0.005 A 
HETATM   26  C17 UNK     1      18.166   1.561  29.367  1.00  0.00     0.014 A 
HETATM   27  C22 UNK     1      18.596   0.600  28.452  1.00  0.00     0.001 A 
HETATM   28  C25 UNK     1      19.722  -0.174  28.731  1.00  0.00     0.000 A 
HETATM   29  C23 UNK     1      20.419   0.013  29.924  1.00  0.00     0.001 A 
HETATM   30  C18 UNK     1      19.991   0.975  30.840  1.00  0.00     0.014 A 
ENDBRANCH   5  25
TORSDOF 3
ENDMDL
MODEL 6
REMARK VINA RESULT:      -9.0     17.291     22.086
REMARK  3 active torsions:
REMARK  status: ('A' for Active; 'I' for Inactive)
REMARK    1  A    between atoms: C1_5  and  C6_10 
REMARK    2  A    between atoms: C2_6  and  C4_8 
REMARK    3  A    between atoms: C3_7  and  C8_12 
ROOT
HETATM    1  N1  UNK     1      18.289  -3.099  15.160  1.00  0.00    -0.338 N 
HETATM    2  N2  UNK     1      19.566  -2.450  13.463  1.00  0.00    -0.227 NA
HETATM    3  C1  UNK     1      18.351  -4.166  14.310  1.00  0.00     0.074 A 
HETATM    4  C2  UNK     1      19.033  -2.088  14.612  1.00  0.00     0.145 A 
HETATM    5  C3  UNK     1      19.145  -3.742  13.270  1.00  0.00     0.097 A 
HETATM    6  H1  UNK     1      17.791  -3.075  16.041  1.00  0.00     0.167 HD
ENDROOT
BRANCH   4   7
HETATM    7  C4  UNK     1      19.117  -0.787  15.381  1.00  0.00     0.083 A 
HETATM    8  C10 UNK     1      19.332   0.392  14.781  1.00  0.00     0.162 A 
HETATM    9  O1  UNK     1      19.418   1.623  15.384  1.00  0.00    -0.321 OA
HETATM   10  C9  UNK     1      19.245   1.676  16.744  1.00  0.00     0.089 A 
HETATM   11  C13 UNK     1      19.305   2.933  17.347  1.00  0.00     0.039 A 
HETATM   12  C5  UNK     1      19.021   0.539  17.519  1.00  0.00     0.049 A 
HETATM   13  C16 UNK     1      19.138   3.049  18.726  1.00  0.00     0.009 A 
HETATM   14  C12 UNK     1      18.914   1.911  19.503  1.00  0.00    -0.061 A 
HETATM   15  C11 UNK     1      18.855   0.652  18.902  1.00  0.00     0.025 A 
HETATM   16  C19 UNK     1      18.737   2.041  20.978  1.00  0.00     0.048 C 
HETATM   17  C7  UNK     1      18.969  -0.779  16.861  1.00  0.00     0.200 A 
HETATM   18  O2  UNK     1      18.829  -1.807  17.510  1.00  0.00    -0.286 OA
ENDBRANCH   4   7
BRANCH   3  19
HETATM   19  C6  UNK     1      17.676  -5.413  14.573  1.00  0.00    -0.007 A 
HETATM   20  C14 UNK     1      17.373  -6.277  13.521  1.00  0.00     0.014 A 
HETATM   21  C20 UNK     1      16.718  -7.483  13.774  1.00  0.00     0.001 A 
HETATM   22  C24 UNK     1      16.368  -7.825  15.079  1.00  0.00     0.000 A 
HETATM   23  C21 UNK     1      16.671  -6.961  16.133  1.00  0.00     0.001 A 
HETATM   24  C15 UNK     1      17.325  -5.756  15.879  1.00  0.00     0.014 A 
ENDBRANCH   3  19
BRANCH   5  25
HETATM   25  C8  UNK     1      19.501  -4.520  12.122  1.00  0.00    -0.005 A 
HETATM   26  C17 UNK     1      20.445  -5.545  12.235  1.00  0.00     0.014 A 
HETATM   27  C22 UNK     1      20.792  -6.303  11.117  1.00  0.00     0.001 A 
HETATM   28  C25 UNK     1      20.197  -6.040   9.883  1.00  0.00     0.000 A 
HETATM   29  C23 UNK     1      19.255  -5.018   9.768  1.00  0.00     0.001 A 
HETATM   30  C18 UNK     1      18.906  -4.259  10.885  1.00  0.00     0.014 A 
ENDBRANCH   5  25
TORSDOF 3
ENDMDL
MODEL 7
REMARK VINA RESULT:      -8.8     10.463     13.093
REMARK  3 active torsions:
REMARK  status: ('A' for Active; 'I' for Inactive)
REMARK    1  A    between atoms: C1_5  and  C6_10 
REMARK    2  A    between atoms: C2_6  and  C4_8 
REMARK    3  A    between atoms: C3_7  and  C8_12 
ROOT
HETATM    1  N1  UNK     1      29.661  -8.455  32.935  1.00  0.00    -0.338 N 
HETATM    2  N2  UNK     1      31.656  -7.573  33.350  1.00  0.00    -0.227 NA
HETATM    3  C1  UNK     1      30.379  -8.595  31.781  1.00  0.00     0.074 A 
HETATM    4  C2  UNK     1      30.467  -7.835  33.852  1.00  0.00     0.145 A 
HETATM    5  C3  UNK     1      31.607  -8.043  32.062  1.00  0.00     0.097 A 
HETATM    6  H1  UNK     1      28.710  -8.769  33.079  1.00  0.00     0.167 HD
ENDROOT
BRANCH   4   7
HETATM    7  C4  UNK     1      29.888  -7.568  35.225  1.00  0.00     0.083 A 
HETATM    8  C10 UNK     1      29.812  -6.338  35.749  1.00  0.00     0.162 A 
HETATM    9  O1  UNK     1      29.300  -5.991  36.975  1.00  0.00    -0.321 OA
HETATM   10  C9  UNK     1      28.784  -6.996  37.753  1.00  0.00     0.089 A 
HETATM   11  C13 UNK     1      28.239  -6.634  38.986  1.00  0.00     0.039 A 
HETATM   12  C5  UNK     1      28.792  -8.333  37.359  1.00  0.00     0.049 A 
HETATM   13  C16 UNK     1      27.702  -7.612  39.821  1.00  0.00     0.009 A 
HETATM   14  C12 UNK     1      27.710  -8.951  39.426  1.00  0.00    -0.061 A 
HETATM   15  C11 UNK     1      28.256  -9.316  38.194  1.00  0.00     0.025 A 
HETATM   16  C19 UNK     1      27.135  -9.994  40.325  1.00  0.00     0.048 C 
HETATM   17  C7  UNK     1      29.380  -8.693  36.056  1.00  0.00     0.200 A 
HETATM   18  O2  UNK     1      29.457  -9.860  35.695  1.00  0.00    -0.286 OA
ENDBRANCH   4   7
BRANCH   3  19
HETATM   19  C6  UNK     1      29.836  -9.210  30.596  1.00  0.00    -0.007 A 
HETATM   20  C14 UNK     1      28.593  -8.806  30.108  1.00  0.00     0.014 A 
HETATM   21  C20 UNK     1      28.065  -9.401  28.962  1.00  0.00     0.001 A 
HETATM   22  C24 UNK     1      28.781 -10.400  28.303  1.00  0.00     0.000 A 
HETATM   23  C21 UNK     1      30.024 -10.806  28.791  1.00  0.00     0.001 A 
HETATM   24  C15 UNK     1      30.551 -10.211  29.936  1.00  0.00     0.014 A 
ENDBRANCH   3  19
BRANCH   5  25
HETATM   25  C8  UNK     1      32.708  -7.954  31.151  1.00  0.00    -0.005 A 
HETATM   26  C17 UNK     1      32.645  -7.090  30.055  1.00  0.00     0.014 A 
HETATM   27  C22 UNK     1      33.718  -7.004  29.168  1.00  0.00     0.001 A 
HETATM   28  C25 UNK     1      34.857  -7.782  29.373  1.00  0.00     0.000 A 
HETATM   29  C23 UNK     1      34.923  -8.646  30.466  1.00  0.00     0.001 A 
HETATM   30  C18 UNK     1      33.851  -8.733  31.354  1.00  0.00     0.014 A 
ENDBRANCH   5  25
TORSDOF 3
ENDMDL
MODEL 8
REMARK VINA RESULT:      -8.8      6.404      9.959
REMARK  3 active torsions:
REMARK  status: ('A' for Active; 'I' for Inactive)
REMARK    1  A    between atoms: C1_5  and  C6_10 
REMARK    2  A    between atoms: C2_6  and  C4_8 
REMARK    3  A    between atoms: C3_7  and  C8_12 
ROOT
HETATM    1  N1  UNK     1      19.061   5.144  31.950  1.00  0.00    -0.338 N 
HETATM    2  N2  UNK     1      16.895   4.906  31.525  1.00  0.00    -0.227 NA
HETATM    3  C1  UNK     1      18.453   6.249  32.476  1.00  0.00     0.074 A 
HETATM    4  C2  UNK     1      18.087   4.364  31.387  1.00  0.00     0.145 A 
HETATM    5  C3  UNK     1      17.116   6.080  32.201  1.00  0.00     0.097 A 
HETATM    6  H1  UNK     1      20.052   4.943  31.988  1.00  0.00     0.167 HD
ENDROOT
BRANCH   4   7
HETATM    7  C4  UNK     1      18.520   3.069  30.734  1.00  0.00     0.083 A 
HETATM    8  C10 UNK     1      18.563   2.912  29.404  1.00  0.00     0.162 A 
HETATM    9  O1  UNK     1      18.946   1.786  28.716  1.00  0.00    -0.321 OA
HETATM   10  C9  UNK     1      19.355   0.703  29.452  1.00  0.00     0.089 A 
HETATM   11  C13 UNK     1      19.771  -0.428  28.747  1.00  0.00     0.039 A 
HETATM   12  C5  UNK     1      19.363   0.699  30.846  1.00  0.00     0.049 A 
HETATM   13  C16 UNK     1      20.195  -1.561  29.441  1.00  0.00     0.009 A 
HETATM   14  C12 UNK     1      20.203  -1.564  30.836  1.00  0.00    -0.061 A 
HETATM   15  C11 UNK     1      19.786  -0.435  31.544  1.00  0.00     0.025 A 
HETATM   16  C19 UNK     1      20.657  -2.779  31.573  1.00  0.00     0.048 C 
HETATM   17  C7  UNK     1      18.913   1.902  31.569  1.00  0.00     0.200 A 
HETATM   18  O2  UNK     1      18.852   1.922  32.791  1.00  0.00    -0.286 OA
ENDBRANCH   4   7
BRANCH   3  19
HETATM   19  C6  UNK     1      19.184   7.293  33.150  1.00  0.00    -0.007 A 
HETATM   20  C14 UNK     1      18.502   8.385  33.689  1.00  0.00     0.014 A 
HETATM   21  C20 UNK     1      19.207   9.397  34.340  1.00  0.00     0.001 A 
HETATM   22  C24 UNK     1      20.595   9.318  34.452  1.00  0.00     0.000 A 
HETATM   23  C21 UNK     1      21.278   8.227  33.912  1.00  0.00     0.001 A 
HETATM   24  C15 UNK     1      20.573   7.216  33.262  1.00  0.00     0.014 A 
ENDBRANCH   3  19
BRANCH   5  25
HETATM   25  C8  UNK     1      16.071   6.990  32.559  1.00  0.00    -0.005 A 
HETATM   26  C17 UNK     1      15.392   6.838  33.771  1.00  0.00     0.014 A 
HETATM   27  C22 UNK     1      14.373   7.725  34.119  1.00  0.00     0.001 A 
HETATM   28  C25 UNK     1      14.030   8.766  33.257  1.00  0.00     0.000 A 
HETATM   29  C23 UNK     1      14.706   8.920  32.046  1.00  0.00     0.001 A 
HETATM   30  C18 UNK     1      15.725   8.034  31.697  1.00  0.00     0.014 A 
ENDBRANCH   5  25
TORSDOF 3
ENDMDL
MODEL 9
REMARK VINA RESULT:      -8.8      7.125     10.336
REMARK  3 active torsions:
REMARK  status: ('A' for Active; 'I' for Inactive)
REMARK    1  A    between atoms: C1_5  and  C6_10 
REMARK    2  A    between atoms: C2_6  and  C4_8 
REMARK    3  A    between atoms: C3_7  and  C8_12 
ROOT
HETATM    1  N1  UNK     1      26.540  -6.781  38.245  1.00  0.00    -0.338 N 
HETATM    2  N2  UNK     1      26.685  -8.942  37.754  1.00  0.00    -0.227 NA
HETATM    3  C1  UNK     1      27.846  -7.002  37.907  1.00  0.00     0.074 A 
HETATM    4  C2  UNK     1      25.878  -7.975  38.140  1.00  0.00     0.145 A 
HETATM    5  C3  UNK     1      27.911  -8.343  37.609  1.00  0.00     0.097 A 
HETATM    6  H1  UNK     1      26.143  -5.889  38.509  1.00  0.00     0.167 HD
ENDROOT
BRANCH   4   7
HETATM    7  C4  UNK     1      24.400  -7.985  38.465  1.00  0.00     0.083 A 
HETATM    8  C10 UNK     1      23.886  -7.309  39.502  1.00  0.00     0.162 A 
HETATM    9  O1  UNK     1      22.565  -7.248  39.875  1.00  0.00    -0.321 OA
HETATM   10  C9  UNK     1      21.656  -7.925  39.104  1.00  0.00     0.089 A 
HETATM   11  C13 UNK     1      20.313  -7.834  39.472  1.00  0.00     0.039 A 
HETATM   12  C5  UNK     1      22.027  -8.683  37.994  1.00  0.00     0.049 A 
HETATM   13  C16 UNK     1      19.343  -8.503  38.726  1.00  0.00     0.009 A 
HETATM   14  C12 UNK     1      19.715  -9.262  37.615  1.00  0.00    -0.061 A 
HETATM   15  C11 UNK     1      21.058  -9.355  37.245  1.00  0.00     0.025 A 
HETATM   16  C19 UNK     1      18.673  -9.977  36.822  1.00  0.00     0.048 C 
HETATM   17  C7  UNK     1      23.453  -8.770  37.628  1.00  0.00     0.200 A 
HETATM   18  O2  UNK     1      23.827  -9.467  36.696  1.00  0.00    -0.286 OA
ENDBRANCH   4   7
BRANCH   3  19
HETATM   19  C6  UNK     1      28.838  -5.956  37.909  1.00  0.00    -0.007 A 
HETATM   20  C14 UNK     1      28.939  -5.094  39.002  1.00  0.00     0.014 A 
HETATM   21  C20 UNK     1      29.899  -4.080  39.005  1.00  0.00     0.001 A 
HETATM   22  C24 UNK     1      30.756  -3.929  37.916  1.00  0.00     0.000 A 
HETATM   23  C21 UNK     1      30.655  -4.791  36.823  1.00  0.00     0.001 A 
HETATM   24  C15 UNK     1      29.697  -5.803  36.820  1.00  0.00     0.014 A 
ENDBRANCH   3  19
BRANCH   5  25
HETATM   25  C8  UNK     1      29.087  -9.049  37.199  1.00  0.00    -0.005 A 
HETATM   26  C17 UNK     1      30.031  -9.450  38.148  1.00  0.00     0.014 A 
HETATM   27  C22 UNK     1      31.177 -10.139  37.748  1.00  0.00     0.001 A 
HETATM   28  C25 UNK     1      31.382 -10.427  36.399  1.00  0.00     0.000 A 
HETATM   29  C23 UNK     1      30.441 -10.028  35.450  1.00  0.00     0.001 A 
HETATM   30  C18 UNK     1      29.295  -9.340  35.848  1.00  0.00     0.014 A 
ENDBRANCH   5  25
TORSDOF 3
ENDMDL
MODEL 10
REMARK VINA RESULT:      -8.7      9.741     12.502
REMARK  3 active torsions:
REMARK  status: ('A' for Active; 'I' for Inactive)
REMARK    1  A    between atoms: C1_5  and  C6_10 
REMARK    2  A    between atoms: C2_6  and  C4_8 
REMARK    3  A    between atoms: C3_7  and  C8_12 
ROOT
HETATM    1  N1  UNK     1      29.497  -7.032  35.144  1.00  0.00    -0.338 N 
HETATM    2  N2  UNK     1      28.603  -9.050  35.391  1.00  0.00    -0.227 NA
HETATM    3  C1  UNK     1      29.137  -7.124  36.459  1.00  0.00     0.074 A 
HETATM    4  C2  UNK     1      29.157  -8.213  34.538  1.00  0.00     0.145 A 
HETATM    5  C3  UNK     1      28.587  -8.378  36.587  1.00  0.00     0.097 A 
HETATM    6  H1  UNK     1      29.946  -6.236  34.710  1.00  0.00     0.167 HD
ENDROOT
BRANCH   4   7
HETATM    7  C4  UNK     1      29.462  -8.354  33.063  1.00  0.00     0.083 A 
HETATM    8  C10 UNK     1      28.526  -8.677  32.161  1.00  0.00     0.162 A 
HETATM    9  O1  UNK     1      28.698  -8.822  30.806  1.00  0.00    -0.321 OA
HETATM   10  C9  UNK     1      29.951  -8.592  30.298  1.00  0.00     0.089 A 
HETATM   11  C13 UNK     1      30.113  -8.713  28.917  1.00  0.00     0.039 A 
HETATM   12  C5  UNK     1      31.039  -8.254  31.102  1.00  0.00     0.049 A 
HETATM   13  C16 UNK     1      31.365  -8.493  28.344  1.00  0.00     0.009 A 
HETATM   14  C12 UNK     1      32.454  -8.155  29.149  1.00  0.00    -0.061 A 
HETATM   15  C11 UNK     1      32.295  -8.035  30.531  1.00  0.00     0.025 A 
HETATM   16  C19 UNK     1      33.791  -7.922  28.530  1.00  0.00     0.048 C 
HETATM   17  C7  UNK     1      30.846  -8.140  32.559  1.00  0.00     0.200 A 
HETATM   18  O2  UNK     1      31.784  -7.899  33.307  1.00  0.00    -0.286 OA
ENDBRANCH   4   7
BRANCH   3  19
HETATM   19  C6  UNK     1      29.347  -6.052  37.400  1.00  0.00    -0.007 A 
HETATM   20  C14 UNK     1      28.253  -5.431  38.004  1.00  0.00     0.014 A 
HETATM   21  C20 UNK     1      28.455  -4.393  38.915  1.00  0.00     0.001 A 
HETATM   22  C24 UNK     1      29.750  -3.976  39.221  1.00  0.00     0.000 A 
HETATM   23  C21 UNK     1      30.844  -4.597  38.617  1.00  0.00     0.001 A 
HETATM   24  C15 UNK     1      30.642  -5.634  37.707  1.00  0.00     0.014 A 
ENDBRANCH   3  19
BRANCH   5  25
HETATM   25  C8  UNK     1      28.058  -8.936  37.795  1.00  0.00    -0.005 A 
HETATM   26  C17 UNK     1      26.705  -8.778  38.108  1.00  0.00     0.014 A 
HETATM   27  C22 UNK     1      26.190  -9.323  39.285  1.00  0.00     0.001 A 
HETATM   28  C25 UNK     1      27.026 -10.025  40.152  1.00  0.00     0.000 A 
HETATM   29  C23 UNK     1      28.377 -10.184  39.843  1.00  0.00     0.001 A 
HETATM   30  C18 UNK     1      28.893  -9.641  38.665  1.00  0.00     0.014 A 
ENDBRANCH   5  25
TORSDOF 3
ENDMDL
