MODEL 1
REMARK VINA RESULT:      -8.3      0.000      0.000
REMARK  5 active torsions:
REMARK  status: ('A' for Active; 'I' for Inactive)
REMARK    1  A    between atoms: C5_11  and  O2_2 
REMARK    2  A    between atoms: C11_17  and  O3_3 
REMARK    3  A    between atoms: C12_18  and  O4_4 
REMARK    4  A    between atoms: C13_19  and  O5_5 
REMARK    5  A    between atoms: C1_7  and  C3_9 
ROOT
HETATM    1  O1  UNK     1      16.899   7.473  32.328  1.00  0.00    -0.306 OA
HETATM    2  O6  UNK     1      19.733   9.399  34.532  1.00  0.00    -0.284 OA
HETATM    3  C1  UNK     1      18.172   6.949  32.485  1.00  0.00     0.123 A 
HETATM    4  C2  UNK     1      17.522   9.365  33.714  1.00  0.00     0.053 A 
HETATM    5  C4  UNK     1      16.599   8.659  32.946  1.00  0.00     0.090 A 
HETATM    6  C5  UNK     1      19.157   7.534  33.192  1.00  0.00     0.152 A 
HETATM    7  C6  UNK     1      18.879   8.821  33.874  1.00  0.00     0.220 A 
HETATM    8  C7  UNK     1      17.160  10.572  34.320  1.00  0.00     0.055 A 
HETATM    9  C9  UNK     1      15.307   9.157  32.776  1.00  0.00     0.041 A 
HETATM   10  C12 UNK     1      15.867  11.066  34.149  1.00  0.00     0.069 A 
HETATM   11  C14 UNK     1      14.942  10.360  33.379  1.00  0.00     0.039 A 
ENDROOT
BRANCH   3  12
HETATM   12  C3  UNK     1      18.361   5.673  31.771  1.00  0.00     0.004 A 
HETATM   13  C10 UNK     1      18.905   5.666  30.487  1.00  0.00     0.017 A 
HETATM   14  C15 UNK     1      19.085   4.459  29.812  1.00  0.00     0.040 A 
HETATM   15  C13 UNK     1      18.721   3.258  30.421  1.00  0.00     0.101 A 
HETATM   16  C11 UNK     1      18.178   3.264  31.706  1.00  0.00     0.102 A 
HETATM   17  C8  UNK     1      17.997   4.471  32.380  1.00  0.00     0.054 A 
BRANCH  15  18
HETATM   18  O5  UNK     1      18.900   2.085  29.751  1.00  0.00    -0.353 OA
HETATM   19  C18 UNK     1      17.952   1.771  28.732  1.00  0.00     0.210 C 
ENDBRANCH  15  18
BRANCH  16  20
HETATM   20  O3  UNK     1      17.817   2.099  32.311  1.00  0.00    -0.353 OA
HETATM   21  C16 UNK     1      18.121   1.967  33.698  1.00  0.00     0.210 C 
ENDBRANCH  16  20
ENDBRANCH   3  12
BRANCH   6  22
HETATM   22  O2  UNK     1      20.423   7.003  33.300  1.00  0.00    -0.355 OA
HETATM   23  H7  UNK     1      20.931   7.193  32.495  1.00  0.00     0.218 HD
ENDBRANCH   6  22
BRANCH  10  24
HETATM   24  O4  UNK     1      15.505  12.242  34.733  1.00  0.00    -0.356 OA
HETATM   25  C17 UNK     1      16.506  12.928  35.484  1.00  0.00     0.210 C 
ENDBRANCH  10  24
TORSDOF 5
ENDMDL
MODEL 2
REMARK VINA RESULT:      -7.8      1.487      2.578
REMARK  5 active torsions:
REMARK  status: ('A' for Active; 'I' for Inactive)
REMARK    1  A    between atoms: C5_11  and  O2_2 
REMARK    2  A    between atoms: C11_17  and  O3_3 
REMARK    3  A    between atoms: C12_18  and  O4_4 
REMARK    4  A    between atoms: C13_19  and  O5_5 
REMARK    5  A    between atoms: C1_7  and  C3_9 
ROOT
HETATM    1  O1  UNK     1      16.583   5.820  32.538  1.00  0.00    -0.306 OA
HETATM    2  O6  UNK     1      19.331   8.506  33.892  1.00  0.00    -0.284 OA
HETATM    3  C1  UNK     1      17.905   5.459  32.744  1.00  0.00     0.123 A 
HETATM    4  C2  UNK     1      17.096   8.073  33.280  1.00  0.00     0.053 A 
HETATM    5  C4  UNK     1      16.206   7.108  32.813  1.00  0.00     0.090 A 
HETATM    6  C5  UNK     1      18.865   6.295  33.182  1.00  0.00     0.152 A 
HETATM    7  C6  UNK     1      18.503   7.701  33.489  1.00  0.00     0.220 A 
HETATM    8  C7  UNK     1      16.655   9.373  33.542  1.00  0.00     0.055 A 
HETATM    9  C9  UNK     1      14.867   7.438  32.603  1.00  0.00     0.041 A 
HETATM   10  C12 UNK     1      15.315   9.700  33.331  1.00  0.00     0.069 A 
HETATM   11  C14 UNK     1      14.422   8.735  32.863  1.00  0.00     0.039 A 
ENDROOT
BRANCH   3  12
HETATM   12  C3  UNK     1      18.175   4.049  32.411  1.00  0.00     0.004 A 
HETATM   13  C10 UNK     1      18.141   3.077  33.410  1.00  0.00     0.017 A 
HETATM   14  C15 UNK     1      18.395   1.742  33.095  1.00  0.00     0.040 A 
HETATM   15  C13 UNK     1      18.684   1.379  31.779  1.00  0.00     0.101 A 
HETATM   16  C11 UNK     1      18.718   2.351  30.779  1.00  0.00     0.102 A 
HETATM   17  C8  UNK     1      18.464   3.686  31.095  1.00  0.00     0.054 A 
BRANCH  15  18
HETATM   18  O5  UNK     1      18.932   0.072  31.484  1.00  0.00    -0.353 OA
HETATM   19  C18 UNK     1      18.840  -0.863  32.557  1.00  0.00     0.210 C 
ENDBRANCH  15  18
BRANCH  16  20
HETATM   20  O3  UNK     1      18.999   2.009  29.491  1.00  0.00    -0.353 OA
HETATM   21  C16 UNK     1      17.893   1.854  28.604  1.00  0.00     0.210 C 
ENDBRANCH  16  20
ENDBRANCH   3  12
BRANCH   6  22
HETATM   22  O2  UNK     1      20.178   5.913  33.345  1.00  0.00    -0.355 OA
HETATM   23  H7  UNK     1      20.241   4.944  33.361  1.00  0.00     0.218 HD
ENDBRANCH   6  22
BRANCH  10  24
HETATM   24  O4  UNK     1      14.876  10.964  33.582  1.00  0.00    -0.356 OA
HETATM   25  C17 UNK     1      13.770  11.433  32.810  1.00  0.00     0.210 C 
ENDBRANCH  10  24
TORSDOF 5
ENDMDL
MODEL 3
REMARK VINA RESULT:      -7.7      7.960     11.950
REMARK  5 active torsions:
REMARK  status: ('A' for Active; 'I' for Inactive)
REMARK    1  A    between atoms: C5_11  and  O2_2 
REMARK    2  A    between atoms: C11_17  and  O3_3 
REMARK    3  A    between atoms: C12_18  and  O4_4 
REMARK    4  A    between atoms: C13_19  and  O5_5 
REMARK    5  A    between atoms: C1_7  and  C3_9 
ROOT
HETATM    1  O1  UNK     1      20.234  -3.320  34.725  1.00  0.00    -0.306 OA
HETATM    2  O6  UNK     1      17.764  -0.340  35.999  1.00  0.00    -0.284 OA
HETATM    3  C1  UNK     1      19.726  -3.304  36.013  1.00  0.00     0.123 A 
HETATM    4  C2  UNK     1      19.036  -1.265  34.242  1.00  0.00     0.053 A 
HETATM    5  C4  UNK     1      19.878  -2.310  33.868  1.00  0.00     0.090 A 
HETATM    6  C5  UNK     1      18.912  -2.350  36.502  1.00  0.00     0.152 A 
HETATM    7  C6  UNK     1      18.504  -1.235  35.612  1.00  0.00     0.220 A 
HETATM    8  C7  UNK     1      18.708  -0.262  33.326  1.00  0.00     0.055 A 
HETATM    9  C9  UNK     1      20.399  -2.359  32.575  1.00  0.00     0.041 A 
HETATM   10  C12 UNK     1      19.231  -0.313  32.033  1.00  0.00     0.069 A 
HETATM   11  C14 UNK     1      20.074  -1.359  31.658  1.00  0.00     0.039 A 
ENDROOT
BRANCH   3  12
HETATM   12  C3  UNK     1      20.187  -4.444  36.827  1.00  0.00     0.004 A 
HETATM   13  C10 UNK     1      21.384  -4.356  37.537  1.00  0.00     0.017 A 
HETATM   14  C15 UNK     1      21.819  -5.433  38.308  1.00  0.00     0.040 A 
HETATM   15  C13 UNK     1      21.056  -6.600  38.370  1.00  0.00     0.101 A 
HETATM   16  C11 UNK     1      19.858  -6.688  37.661  1.00  0.00     0.102 A 
HETATM   17  C8  UNK     1      19.423  -5.611  36.889  1.00  0.00     0.054 A 
BRANCH  15  18
HETATM   18  O5  UNK     1      21.493  -7.646  39.125  1.00  0.00    -0.353 OA
HETATM   19  C18 UNK     1      22.784  -7.521  39.720  1.00  0.00     0.210 C 
ENDBRANCH  15  18
BRANCH  16  20
HETATM   20  O3  UNK     1      19.105  -7.822  37.713  1.00  0.00    -0.353 OA
HETATM   21  C16 UNK     1      18.791  -8.449  36.471  1.00  0.00     0.210 C 
ENDBRANCH  16  20
ENDBRANCH   3  12
BRANCH   6  22
HETATM   22  O2  UNK     1      18.451  -2.346  37.800  1.00  0.00    -0.355 OA
HETATM   23  H7  UNK     1      18.907  -3.031  38.314  1.00  0.00     0.218 HD
ENDBRANCH   6  22
BRANCH  10  24
HETATM   24  O4  UNK     1      18.918   0.661  31.135  1.00  0.00    -0.356 OA
HETATM   25  C17 UNK     1      19.534   0.581  29.850  1.00  0.00     0.210 C 
ENDBRANCH  10  24
TORSDOF 5
ENDMDL
MODEL 4
REMARK VINA RESULT:      -7.7      2.125      8.017
REMARK  5 active torsions:
REMARK  status: ('A' for Active; 'I' for Inactive)
REMARK    1  A    between atoms: C5_11  and  O2_2 
REMARK    2  A    between atoms: C11_17  and  O3_3 
REMARK    3  A    between atoms: C12_18  and  O4_4 
REMARK    4  A    between atoms: C13_19  and  O5_5 
REMARK    5  A    between atoms: C1_7  and  C3_9 
ROOT
HETATM    1  O1  UNK     1      18.275   3.943  34.587  1.00  0.00    -0.306 OA
HETATM    2  O6  UNK     1      18.370   1.607  31.250  1.00  0.00    -0.284 OA
HETATM    3  C1  UNK     1      18.248   4.496  33.317  1.00  0.00     0.123 A 
HETATM    4  C2  UNK     1      18.353   1.726  33.605  1.00  0.00     0.053 A 
HETATM    5  C4  UNK     1      18.321   2.579  34.706  1.00  0.00     0.090 A 
HETATM    6  C5  UNK     1      18.284   3.786  32.174  1.00  0.00     0.152 A 
HETATM    7  C6  UNK     1      18.338   2.306  32.254  1.00  0.00     0.220 A 
HETATM    8  C7  UNK     1      18.400   0.340  33.787  1.00  0.00     0.055 A 
HETATM    9  C9  UNK     1      18.338   2.052  35.997  1.00  0.00     0.041 A 
HETATM   10  C12 UNK     1      18.417  -0.183  35.080  1.00  0.00     0.069 A 
HETATM   11  C14 UNK     1      18.386   0.671  36.183  1.00  0.00     0.039 A 
ENDROOT
BRANCH   3  12
HETATM   12  C3  UNK     1      18.199   5.969  33.331  1.00  0.00     0.004 A 
HETATM   13  C10 UNK     1      19.198   6.695  33.979  1.00  0.00     0.017 A 
HETATM   14  C15 UNK     1      19.153   8.088  33.992  1.00  0.00     0.040 A 
HETATM   15  C13 UNK     1      18.107   8.758  33.356  1.00  0.00     0.101 A 
HETATM   16  C11 UNK     1      17.107   8.034  32.707  1.00  0.00     0.102 A 
HETATM   17  C8  UNK     1      17.153   6.640  32.695  1.00  0.00     0.054 A 
BRANCH  15  18
HETATM   18  O5  UNK     1      18.072  10.120  33.377  1.00  0.00    -0.353 OA
HETATM   19  C18 UNK     1      19.090  10.782  34.126  1.00  0.00     0.210 C 
ENDBRANCH  15  18
BRANCH  16  20
HETATM   20  O3  UNK     1      16.081   8.675  32.083  1.00  0.00    -0.353 OA
HETATM   21  C16 UNK     1      14.853   8.784  32.799  1.00  0.00     0.210 C 
ENDBRANCH  16  20
ENDBRANCH   3  12
BRANCH   6  22
HETATM   22  O2  UNK     1      18.290   4.369  30.926  1.00  0.00    -0.355 OA
HETATM   23  H7  UNK     1      17.515   4.074  30.420  1.00  0.00     0.218 HD
ENDBRANCH   6  22
BRANCH  10  24
HETATM   24  O4  UNK     1      18.466  -1.531  35.268  1.00  0.00    -0.356 OA
HETATM   25  C17 UNK     1      18.891  -1.994  36.549  1.00  0.00     0.210 C 
ENDBRANCH  10  24
TORSDOF 5
ENDMDL
MODEL 5
REMARK VINA RESULT:      -7.6      1.874      7.999
REMARK  5 active torsions:
REMARK  status: ('A' for Active; 'I' for Inactive)
REMARK    1  A    between atoms: C5_11  and  O2_2 
REMARK    2  A    between atoms: C11_17  and  O3_3 
REMARK    3  A    between atoms: C12_18  and  O4_4 
REMARK    4  A    between atoms: C13_19  and  O5_5 
REMARK    5  A    between atoms: C1_7  and  C3_9 
ROOT
HETATM    1  O1  UNK     1      18.150   4.118  33.408  1.00  0.00    -0.306 OA
HETATM    2  O6  UNK     1      19.022   2.753  29.670  1.00  0.00    -0.284 OA
HETATM    3  C1  UNK     1      18.291   4.985  32.338  1.00  0.00     0.123 A 
HETATM    4  C2  UNK     1      18.592   2.244  31.932  1.00  0.00     0.053 A 
HETATM    5  C4  UNK     1      18.296   2.773  33.185  1.00  0.00     0.090 A 
HETATM    6  C5  UNK     1      18.585   4.605  31.080  1.00  0.00     0.152 A 
HETATM    7  C6  UNK     1      18.756   3.160  30.793  1.00  0.00     0.220 A 
HETATM    8  C7  UNK     1      18.731   0.863  31.763  1.00  0.00     0.055 A 
HETATM    9  C9  UNK     1      18.139   1.925  34.282  1.00  0.00     0.041 A 
HETATM   10  C12 UNK     1      18.574   0.017  32.861  1.00  0.00     0.069 A 
HETATM   11  C14 UNK     1      18.278   0.547  34.118  1.00  0.00     0.039 A 
ENDROOT
BRANCH   3  12
HETATM   12  C3  UNK     1      18.109   6.399  32.714  1.00  0.00     0.004 A 
HETATM   13  C10 UNK     1      19.085   7.052  33.465  1.00  0.00     0.017 A 
HETATM   14  C15 UNK     1      18.914   8.390  33.820  1.00  0.00     0.040 A 
HETATM   15  C13 UNK     1      17.765   9.075  33.424  1.00  0.00     0.101 A 
HETATM   16  C11 UNK     1      16.788   8.422  32.672  1.00  0.00     0.102 A 
HETATM   17  C8  UNK     1      16.959   7.084  32.318  1.00  0.00     0.054 A 
BRANCH  15  18
HETATM   18  O5  UNK     1      17.608  10.381  33.779  1.00  0.00    -0.353 OA
HETATM   19  C18 UNK     1      18.796  11.141  33.993  1.00  0.00     0.210 C 
ENDBRANCH  15  18
BRANCH  16  20
HETATM   20  O3  UNK     1      15.662   9.080  32.280  1.00  0.00    -0.353 OA
HETATM   21  C16 UNK     1      14.483   8.864  33.053  1.00  0.00     0.210 C 
ENDBRANCH  16  20
ENDBRANCH   3  12
BRANCH   6  22
HETATM   22  O2  UNK     1      18.752   5.497  30.044  1.00  0.00    -0.355 OA
HETATM   23  H7  UNK     1      18.410   5.114  29.220  1.00  0.00     0.218 HD
ENDBRANCH   6  22
BRANCH  10  24
HETATM   24  O4  UNK     1      18.710  -1.329  32.708  1.00  0.00    -0.356 OA
HETATM   25  C17 UNK     1      19.739  -1.782  31.830  1.00  0.00     0.210 C 
ENDBRANCH  10  24
TORSDOF 5
ENDMDL
MODEL 6
REMARK VINA RESULT:      -7.5      1.275      2.409
REMARK  5 active torsions:
REMARK  status: ('A' for Active; 'I' for Inactive)
REMARK    1  A    between atoms: C5_11  and  O2_2 
REMARK    2  A    between atoms: C11_17  and  O3_3 
REMARK    3  A    between atoms: C12_18  and  O4_4 
REMARK    4  A    between atoms: C13_19  and  O5_5 
REMARK    5  A    between atoms: C1_7  and  C3_9 
ROOT
HETATM    1  O1  UNK     1      18.266   8.307  32.924  1.00  0.00    -0.306 OA
HETATM    2  O6  UNK     1      14.338   9.372  33.113  1.00  0.00    -0.284 OA
HETATM    3  C1  UNK     1      17.270   7.487  32.418  1.00  0.00     0.123 A 
HETATM    4  C2  UNK     1      16.582   9.927  33.578  1.00  0.00     0.053 A 
HETATM    5  C4  UNK     1      17.906   9.504  33.485  1.00  0.00     0.090 A 
HETATM    6  C5  UNK     1      15.955   7.773  32.453  1.00  0.00     0.152 A 
HETATM    7  C6  UNK     1      15.519   9.057  33.055  1.00  0.00     0.220 A 
HETATM    8  C7  UNK     1      16.274  11.159  34.162  1.00  0.00     0.055 A 
HETATM    9  C9  UNK     1      18.932  10.310  33.978  1.00  0.00     0.041 A 
HETATM   10  C12 UNK     1      17.302  11.963  34.655  1.00  0.00     0.069 A 
HETATM   11  C14 UNK     1      18.629  11.540  34.563  1.00  0.00     0.039 A 
ENDROOT
BRANCH   3  12
HETATM   12  C3  UNK     1      17.793   6.234  31.844  1.00  0.00     0.004 A 
HETATM   13  C10 UNK     1      18.526   6.262  30.658  1.00  0.00     0.017 A 
HETATM   14  C15 UNK     1      19.021   5.076  30.116  1.00  0.00     0.040 A 
HETATM   15  C13 UNK     1      18.784   3.862  30.760  1.00  0.00     0.101 A 
HETATM   16  C11 UNK     1      18.052   3.833  31.947  1.00  0.00     0.102 A 
HETATM   17  C8  UNK     1      17.555   5.019  32.488  1.00  0.00     0.054 A 
BRANCH  15  18
HETATM   18  O5  UNK     1      19.272   2.710  30.219  1.00  0.00    -0.353 OA
HETATM   19  C18 UNK     1      18.480   2.082  29.212  1.00  0.00     0.210 C 
ENDBRANCH  15  18
BRANCH  16  20
HETATM   20  O3  UNK     1      17.812   2.654  32.584  1.00  0.00    -0.353 OA
HETATM   21  C16 UNK     1      18.194   2.569  33.956  1.00  0.00     0.210 C 
ENDBRANCH  16  20
ENDBRANCH   3  12
BRANCH   6  22
HETATM   22  O2  UNK     1      14.987   6.921  31.970  1.00  0.00    -0.355 OA
HETATM   23  H7  UNK     1      14.408   6.634  32.694  1.00  0.00     0.218 HD
ENDBRANCH   6  22
BRANCH  10  24
HETATM   24  O4  UNK     1      17.012  13.163  35.227  1.00  0.00    -0.356 OA
HETATM   25  C17 UNK     1      16.011  13.173  36.244  1.00  0.00     0.210 C 
ENDBRANCH  10  24
TORSDOF 5
ENDMDL
MODEL 7
REMARK VINA RESULT:      -7.5     16.420     18.286
REMARK  5 active torsions:
REMARK  status: ('A' for Active; 'I' for Inactive)
REMARK    1  A    between atoms: C5_11  and  O2_2 
REMARK    2  A    between atoms: C11_17  and  O3_3 
REMARK    3  A    between atoms: C12_18  and  O4_4 
REMARK    4  A    between atoms: C13_19  and  O5_5 
REMARK    5  A    between atoms: C1_7  and  C3_9 
ROOT
HETATM    1  O1  UNK     1      25.865  -6.577  38.604  1.00  0.00    -0.306 OA
HETATM    2  O6  UNK     1      28.850  -9.350  38.643  1.00  0.00    -0.284 OA
HETATM    3  C1  UNK     1      25.590  -7.935  38.578  1.00  0.00     0.123 A 
HETATM    4  C2  UNK     1      28.239  -7.072  38.676  1.00  0.00     0.053 A 
HETATM    5  C4  UNK     1      27.174  -6.175  38.658  1.00  0.00     0.090 A 
HETATM    6  C5  UNK     1      26.525  -8.903  38.582  1.00  0.00     0.152 A 
HETATM    7  C6  UNK     1      27.956  -8.515  38.635  1.00  0.00     0.220 A 
HETATM    8  C7  UNK     1      29.556  -6.605  38.731  1.00  0.00     0.055 A 
HETATM    9  C9  UNK     1      27.418  -4.802  38.693  1.00  0.00     0.041 A 
HETATM   10  C12 UNK     1      29.796  -5.231  38.765  1.00  0.00     0.069 A 
HETATM   11  C14 UNK     1      28.730  -4.331  38.746  1.00  0.00     0.039 A 
ENDROOT
BRANCH   3  12
HETATM   12  C3  UNK     1      24.147  -8.229  38.521  1.00  0.00     0.004 A 
HETATM   13  C10 UNK     1      23.343  -7.999  39.637  1.00  0.00     0.017 A 
HETATM   14  C15 UNK     1      21.977  -8.275  39.583  1.00  0.00     0.040 A 
HETATM   15  C13 UNK     1      21.414  -8.782  38.412  1.00  0.00     0.101 A 
HETATM   16  C11 UNK     1      22.217  -9.011  37.294  1.00  0.00     0.102 A 
HETATM   17  C8  UNK     1      23.583  -8.735  37.349  1.00  0.00     0.054 A 
BRANCH  15  18
HETATM   18  O5  UNK     1      20.079  -9.050  38.372  1.00  0.00    -0.353 OA
HETATM   19  C18 UNK     1      19.200  -7.938  38.209  1.00  0.00     0.210 C 
ENDBRANCH  15  18
BRANCH  16  20
HETATM   20  O3  UNK     1      21.679  -9.506  36.145  1.00  0.00    -0.353 OA
HETATM   21  C16 UNK     1      21.258  -8.560  35.165  1.00  0.00     0.210 C 
ENDBRANCH  16  20
ENDBRANCH   3  12
BRANCH   6  22
HETATM   22  O2  UNK     1      26.219 -10.245  38.521  1.00  0.00    -0.355 OA
HETATM   23  H7  UNK     1      25.666 -10.492  39.279  1.00  0.00     0.218 HD
ENDBRANCH   6  22
BRANCH  10  24
HETATM   24  O4  UNK     1      31.075  -4.766  38.815  1.00  0.00    -0.356 OA
HETATM   25  C17 UNK     1      32.104  -5.645  38.364  1.00  0.00     0.210 C 
ENDBRANCH  10  24
TORSDOF 5
ENDMDL
MODEL 8
REMARK VINA RESULT:      -7.3      7.871     11.918
REMARK  5 active torsions:
REMARK  status: ('A' for Active; 'I' for Inactive)
REMARK    1  A    between atoms: C5_11  and  O2_2 
REMARK    2  A    between atoms: C11_17  and  O3_3 
REMARK    3  A    between atoms: C12_18  and  O4_4 
REMARK    4  A    between atoms: C13_19  and  O5_5 
REMARK    5  A    between atoms: C1_7  and  C3_9 
ROOT
HETATM    1  O1  UNK     1      18.769  -2.885  37.454  1.00  0.00    -0.306 OA
HETATM    2  O6  UNK     1      20.039  -1.770  33.747  1.00  0.00    -0.284 OA
HETATM    3  C1  UNK     1      19.393  -3.783  36.604  1.00  0.00     0.123 A 
HETATM    4  C2  UNK     1      19.008  -1.150  35.775  1.00  0.00     0.053 A 
HETATM    5  C4  UNK     1      18.595  -1.594  37.029  1.00  0.00     0.090 A 
HETATM    6  C5  UNK     1      19.831  -3.485  35.366  1.00  0.00     0.152 A 
HETATM    7  C6  UNK     1      19.660  -2.101  34.862  1.00  0.00     0.220 A 
HETATM    8  C7  UNK     1      18.803   0.180  35.393  1.00  0.00     0.055 A 
HETATM    9  C9  UNK     1      17.971  -0.711  37.911  1.00  0.00     0.041 A 
HETATM   10  C12 UNK     1      18.179   1.060  36.278  1.00  0.00     0.069 A 
HETATM   11  C14 UNK     1      17.764   0.616  37.534  1.00  0.00     0.039 A 
ENDROOT
BRANCH   3  12
HETATM   12  C3  UNK     1      19.517  -5.133  37.183  1.00  0.00     0.004 A 
HETATM   13  C10 UNK     1      18.610  -6.130  36.829  1.00  0.00     0.017 A 
HETATM   14  C15 UNK     1      18.728  -7.408  37.376  1.00  0.00     0.040 A 
HETATM   15  C13 UNK     1      19.754  -7.689  38.278  1.00  0.00     0.101 A 
HETATM   16  C11 UNK     1      20.663  -6.691  38.633  1.00  0.00     0.102 A 
HETATM   17  C8  UNK     1      20.544  -5.413  38.087  1.00  0.00     0.054 A 
BRANCH  15  18
HETATM   18  O5  UNK     1      19.858  -8.940  38.807  1.00  0.00    -0.353 OA
HETATM   19  C18 UNK     1      19.304 -10.012  38.047  1.00  0.00     0.210 C 
ENDBRANCH  15  18
BRANCH  16  20
HETATM   20  O3  UNK     1      21.668  -6.952  39.514  1.00  0.00    -0.353 OA
HETATM   21  C16 UNK     1      22.987  -6.578  39.122  1.00  0.00     0.210 C 
ENDBRANCH  16  20
ENDBRANCH   3  12
BRANCH   6  22
HETATM   22  O2  UNK     1      20.418  -4.411  34.533  1.00  0.00    -0.355 OA
HETATM   23  H7  UNK     1      20.686  -5.192  35.043  1.00  0.00     0.218 HD
ENDBRANCH   6  22
BRANCH  10  24
HETATM   24  O4  UNK     1      17.973   2.356  35.915  1.00  0.00    -0.356 OA
HETATM   25  C17 UNK     1      18.311   2.717  34.577  1.00  0.00     0.210 C 
ENDBRANCH  10  24
TORSDOF 5
ENDMDL
MODEL 9
REMARK VINA RESULT:      -7.2      2.150      8.222
REMARK  5 active torsions:
REMARK  status: ('A' for Active; 'I' for Inactive)
REMARK    1  A    between atoms: C5_11  and  O2_2 
REMARK    2  A    between atoms: C11_17  and  O3_3 
REMARK    3  A    between atoms: C12_18  and  O4_4 
REMARK    4  A    between atoms: C13_19  and  O5_5 
REMARK    5  A    between atoms: C1_7  and  C3_9 
ROOT
HETATM    1  O1  UNK     1      18.048   3.422  33.312  1.00  0.00    -0.306 OA
HETATM    2  O6  UNK     1      19.144   2.869  29.427  1.00  0.00    -0.284 OA
HETATM    3  C1  UNK     1      18.095   4.479  32.418  1.00  0.00     0.123 A 
HETATM    4  C2  UNK     1      18.747   1.912  31.546  1.00  0.00     0.053 A 
HETATM    5  C4  UNK     1      18.367   2.168  32.861  1.00  0.00     0.090 A 
HETATM    6  C5  UNK     1      18.454   4.369  31.125  1.00  0.00     0.152 A 
HETATM    7  C6  UNK     1      18.812   3.031  30.594  1.00  0.00     0.220 A 
HETATM    8  C7  UNK     1      19.063   0.612  31.141  1.00  0.00     0.055 A 
HETATM    9  C9  UNK     1      18.302   1.123  33.784  1.00  0.00     0.041 A 
HETATM   10  C12 UNK     1      18.996  -0.431  32.067  1.00  0.00     0.069 A 
HETATM   11  C14 UNK     1      18.617  -0.176  33.385  1.00  0.00     0.039 A 
ENDROOT
BRANCH   3  12
HETATM   12  C3  UNK     1      17.730   5.768  33.031  1.00  0.00     0.004 A 
HETATM   13  C10 UNK     1      16.457   6.300  32.830  1.00  0.00     0.017 A 
HETATM   14  C15 UNK     1      16.110   7.520  33.411  1.00  0.00     0.040 A 
HETATM   15  C13 UNK     1      17.037   8.208  34.194  1.00  0.00     0.101 A 
HETATM   16  C11 UNK     1      18.311   7.676  34.396  1.00  0.00     0.102 A 
HETATM   17  C8  UNK     1      18.658   6.457  33.814  1.00  0.00     0.054 A 
BRANCH  15  18
HETATM   18  O5  UNK     1      16.688   9.400  34.755  1.00  0.00    -0.353 OA
HETATM   19  C18 UNK     1      16.741  10.551  33.914  1.00  0.00     0.210 C 
ENDBRANCH  15  18
BRANCH  16  20
HETATM   20  O3  UNK     1      19.225   8.338  35.157  1.00  0.00    -0.353 OA
HETATM   21  C16 UNK     1      20.216   9.099  34.468  1.00  0.00     0.210 C 
ENDBRANCH  16  20
ENDBRANCH   3  12
BRANCH   6  22
HETATM   22  O2  UNK     1      18.523   5.446  30.269  1.00  0.00    -0.355 OA
HETATM   23  H7  UNK     1      19.447   5.722  30.159  1.00  0.00     0.218 HD
ENDBRANCH   6  22
BRANCH  10  24
HETATM   24  O4  UNK     1      19.304  -1.700  31.683  1.00  0.00    -0.356 OA
HETATM   25  C17 UNK     1      20.522  -2.252  32.182  1.00  0.00     0.210 C 
ENDBRANCH  10  24
TORSDOF 5
ENDMDL
MODEL 10
REMARK VINA RESULT:      -7.2     16.093     18.355
REMARK  5 active torsions:
REMARK  status: ('A' for Active; 'I' for Inactive)
REMARK    1  A    between atoms: C5_11  and  O2_2 
REMARK    2  A    between atoms: C11_17  and  O3_3 
REMARK    3  A    between atoms: C12_18  and  O4_4 
REMARK    4  A    between atoms: C13_19  and  O5_5 
REMARK    5  A    between atoms: C1_7  and  C3_9 
ROOT
HETATM    1  O1  UNK     1      25.788  -8.553  38.446  1.00  0.00    -0.306 OA
HETATM    2  O6  UNK     1      26.843  -4.653  38.971  1.00  0.00    -0.284 OA
HETATM    3  C1  UNK     1      24.833  -7.561  38.607  1.00  0.00     0.123 A 
HETATM    4  C2  UNK     1      27.536  -6.880  38.624  1.00  0.00     0.053 A 
HETATM    5  C4  UNK     1      27.111  -8.194  38.452  1.00  0.00     0.090 A 
HETATM    6  C5  UNK     1      25.111  -6.257  38.791  1.00  0.00     0.152 A 
HETATM    7  C6  UNK     1      26.529  -5.824  38.809  1.00  0.00     0.220 A 
HETATM    8  C7  UNK     1      28.900  -6.573  38.624  1.00  0.00     0.055 A 
HETATM    9  C9  UNK     1      28.047  -9.214  38.279  1.00  0.00     0.041 A 
HETATM   10  C12 UNK     1      29.834  -7.595  38.450  1.00  0.00     0.069 A 
HETATM   11  C14 UNK     1      29.409  -8.912  38.277  1.00  0.00     0.039 A 
ENDROOT
BRANCH   3  12
HETATM   12  C3  UNK     1      23.454  -8.081  38.580  1.00  0.00     0.004 A 
HETATM   13  C10 UNK     1      22.722  -8.179  39.763  1.00  0.00     0.017 A 
HETATM   14  C15 UNK     1      21.417  -8.669  39.737  1.00  0.00     0.040 A 
HETATM   15  C13 UNK     1      20.842  -9.062  38.528  1.00  0.00     0.101 A 
HETATM   16  C11 UNK     1      21.573  -8.963  37.344  1.00  0.00     0.102 A 
HETATM   17  C8  UNK     1      22.879  -8.474  37.370  1.00  0.00     0.054 A 
BRANCH  15  18
HETATM   18  O5  UNK     1      19.567  -9.541  38.516  1.00  0.00    -0.353 OA
HETATM   19  C18 UNK     1      19.400 -10.942  38.726  1.00  0.00     0.210 C 
ENDBRANCH  15  18
BRANCH  16  20
HETATM   20  O3  UNK     1      21.024  -9.344  36.158  1.00  0.00    -0.353 OA
HETATM   21  C16 UNK     1      20.964  -8.362  35.125  1.00  0.00     0.210 C 
ENDBRANCH  16  20
ENDBRANCH   3  12
BRANCH   6  22
HETATM   22  O2  UNK     1      24.138  -5.301  38.982  1.00  0.00    -0.355 OA
HETATM   23  H7  UNK     1      23.371  -5.694  39.428  1.00  0.00     0.218 HD
ENDBRANCH   6  22
BRANCH  10  24
HETATM   24  O4  UNK     1      31.165  -7.306  38.450  1.00  0.00    -0.356 OA
HETATM   25  C17 UNK     1      31.532  -5.931  38.352  1.00  0.00     0.210 C 
ENDBRANCH  10  24
TORSDOF 5
ENDMDL
