MODEL 1
REMARK VINA RESULT:      -8.6      0.000      0.000
REMARK  1 active torsions:
REMARK  status: ('A' for Active; 'I' for Inactive)
REMARK    1  A    between atoms: C9_17  and  N2_7 
ROOT
HETATM    1  F1  UNK     1      26.146  -7.092  39.048  1.00  0.00    -0.206 F 
HETATM    2  O1  UNK     1      30.362  -5.683  34.137  1.00  0.00    -0.291 OA
HETATM    3  O2  UNK     1      28.149  -9.040  33.012  1.00  0.00    -0.274 OA
HETATM    4  O3  UNK     1      32.055  -9.215  35.555  1.00  0.00    -0.271 OA
HETATM    5  O4  UNK     1      28.538 -10.017  35.023  1.00  0.00    -0.259 OA
HETATM    6  N1  UNK     1      30.645  -9.704  37.369  1.00  0.00    -0.325 N 
HETATM    7  N3  UNK     1      32.142  -6.156  38.577  1.00  0.00    -0.191 NA
HETATM    8  C1  UNK     1      30.102  -7.771  36.087  1.00  0.00     0.147 A 
HETATM    9  C2  UNK     1      29.111  -8.018  37.207  1.00  0.00    -0.000 A 
HETATM   10  C3  UNK     1      29.483  -7.844  34.700  1.00  0.00     0.080 A 
HETATM   11  C4  UNK     1      31.084  -8.970  36.257  1.00  0.00     0.246 A 
HETATM   12  C5  UNK     1      30.915  -6.497  36.315  1.00  0.00     0.100 A 
HETATM   13  C6  UNK     1      29.494  -9.153  37.925  1.00  0.00     0.043 A 
HETATM   14  C7  UNK     1      29.643  -6.824  33.838  1.00  0.00     0.105 A 
HETATM   15  C8  UNK     1      27.981  -7.306  37.570  1.00  0.00     0.053 A 
HETATM   16  C9  UNK     1      31.004  -5.541  35.362  1.00  0.00     0.160 A 
HETATM   17  C10 UNK     1      28.701  -9.048  34.289  1.00  0.00     0.299 A 
HETATM   18  C11 UNK     1      29.057  -6.850  32.499  1.00  0.00     0.033 A 
HETATM   19  C12 UNK     1      28.783  -9.618  39.012  1.00  0.00     0.033 A 
HETATM   20  C13 UNK     1      28.320  -7.966  32.124  1.00  0.00     0.092 A 
HETATM   21  C14 UNK     1      27.245  -7.758  38.668  1.00  0.00     0.117 A 
HETATM   22  C15 UNK     1      27.642  -8.903  39.383  1.00  0.00     0.044 A 
HETATM   23  C16 UNK     1      31.593  -6.308  37.566  1.00  0.00     0.101 C 
HETATM   24  C17 UNK     1      29.196  -5.810  31.571  1.00  0.00     0.017 A 
HETATM   25  C18 UNK     1      27.722  -8.075  30.868  1.00  0.00     0.038 A 
HETATM   26  C19 UNK     1      28.604  -5.903  30.307  1.00  0.00     0.001 A 
HETATM   27  C20 UNK     1      27.868  -7.034  29.956  1.00  0.00     0.003 A 
HETATM   28  H1  UNK     1      31.095 -10.540  37.726  1.00  0.00     0.169 HD
ENDROOT
BRANCH  16  29
HETATM   29  N2  UNK     1      31.702  -4.372  35.481  1.00  0.00    -0.379 N 
HETATM   30  H6  UNK     1      31.570  -3.653  34.780  1.00  0.00     0.158 HD
HETATM   31  H7  UNK     1      32.338  -4.218  36.253  1.00  0.00     0.158 HD
ENDBRANCH  16  29
TORSDOF 1
ENDMDL
MODEL 2
REMARK VINA RESULT:      -8.5      3.934      5.209
REMARK  1 active torsions:
REMARK  status: ('A' for Active; 'I' for Inactive)
REMARK    1  A    between atoms: C9_17  and  N2_7 
ROOT
HETATM    1  F1  UNK     1      34.470  -3.122  35.234  1.00  0.00    -0.206 F 
HETATM    2  O1  UNK     1      31.980  -7.141  30.594  1.00  0.00    -0.291 OA
HETATM    3  O2  UNK     1      29.325  -7.091  33.817  1.00  0.00    -0.274 OA
HETATM    4  O3  UNK     1      33.005  -9.940  33.504  1.00  0.00    -0.271 OA
HETATM    5  O4  UNK     1      31.029  -7.439  35.274  1.00  0.00    -0.259 OA
HETATM    6  N1  UNK     1      33.987  -8.566  35.137  1.00  0.00    -0.325 N 
HETATM    7  N3  UNK     1      36.498  -7.896  32.049  1.00  0.00    -0.191 NA
HETATM    8  C1  UNK     1      33.114  -7.474  33.208  1.00  0.00     0.147 A 
HETATM    9  C2  UNK     1      33.690  -6.497  34.214  1.00  0.00    -0.000 A 
HETATM   10  C3  UNK     1      31.626  -7.288  32.963  1.00  0.00     0.080 A 
HETATM   11  C4  UNK     1      33.334  -8.841  33.925  1.00  0.00     0.246 A 
HETATM   12  C5  UNK     1      33.934  -7.514  31.918  1.00  0.00     0.100 A 
HETATM   13  C6  UNK     1      34.195  -7.201  35.309  1.00  0.00     0.043 A 
HETATM   14  C7  UNK     1      31.164  -7.134  31.710  1.00  0.00     0.105 A 
HETATM   15  C8  UNK     1      33.773  -5.116  34.168  1.00  0.00     0.053 A 
HETATM   16  C9  UNK     1      33.349  -7.349  30.710  1.00  0.00     0.160 A 
HETATM   17  C10 UNK     1      30.671  -7.282  34.112  1.00  0.00     0.299 A 
HETATM   18  C11 UNK     1      29.742  -6.944  31.432  1.00  0.00     0.033 A 
HETATM   19  C12 UNK     1      34.791  -6.573  36.384  1.00  0.00     0.033 A 
HETATM   20  C13 UNK     1      28.857  -6.926  32.503  1.00  0.00     0.092 A 
HETATM   21  C14 UNK     1      34.372  -4.458  35.246  1.00  0.00     0.117 A 
HETATM   22  C15 UNK     1      34.877  -5.180  36.343  1.00  0.00     0.044 A 
HETATM   23  C16 UNK     1      35.352  -7.725  31.991  1.00  0.00     0.101 C 
HETATM   24  C17 UNK     1      29.218  -6.776  30.143  1.00  0.00     0.017 A 
HETATM   25  C18 UNK     1      27.485  -6.747  32.331  1.00  0.00     0.038 A 
HETATM   26  C19 UNK     1      27.844  -6.596  29.953  1.00  0.00     0.001 A 
HETATM   27  C20 UNK     1      26.978  -6.581  31.045  1.00  0.00     0.003 A 
HETATM   28  H1  UNK     1      34.267  -9.265  35.815  1.00  0.00     0.169 HD
ENDROOT
BRANCH  16  29
HETATM   29  N2  UNK     1      34.003  -7.364  29.509  1.00  0.00    -0.379 N 
HETATM   30  H6  UNK     1      34.028  -8.227  28.980  1.00  0.00     0.158 HD
HETATM   31  H7  UNK     1      34.453  -6.533  29.148  1.00  0.00     0.158 HD
ENDBRANCH  16  29
TORSDOF 1
ENDMDL
MODEL 3
REMARK VINA RESULT:      -8.5      2.549      3.938
REMARK  1 active torsions:
REMARK  status: ('A' for Active; 'I' for Inactive)
REMARK    1  A    between atoms: C9_17  and  N2_7 
ROOT
HETATM    1  F1  UNK     1      32.603  -4.466  35.830  1.00  0.00    -0.206 F 
HETATM    2  O1  UNK     1      30.596 -10.371  33.599  1.00  0.00    -0.291 OA
HETATM    3  O2  UNK     1      28.013  -7.468  32.068  1.00  0.00    -0.274 OA
HETATM    4  O3  UNK     1      27.491  -9.498  36.234  1.00  0.00    -0.271 OA
HETATM    5  O4  UNK     1      27.779  -6.539  34.124  1.00  0.00    -0.259 OA
HETATM    6  N1  UNK     1      28.210  -7.448  37.129  1.00  0.00    -0.325 N 
HETATM    7  N3  UNK     1      31.229  -9.841  38.333  1.00  0.00    -0.191 NA
HETATM    8  C1  UNK     1      29.593  -8.426  35.454  1.00  0.00     0.147 A 
HETATM    9  C2  UNK     1      30.126  -7.091  35.935  1.00  0.00    -0.000 A 
HETATM   10  C3  UNK     1      29.226  -8.437  33.979  1.00  0.00     0.080 A 
HETATM   11  C4  UNK     1      28.288  -8.573  36.293  1.00  0.00     0.246 A 
HETATM   12  C5  UNK     1      30.509  -9.583  35.853  1.00  0.00     0.100 A 
HETATM   13  C6  UNK     1      29.279  -6.582  36.922  1.00  0.00     0.043 A 
HETATM   14  C7  UNK     1      29.737  -9.378  33.166  1.00  0.00     0.105 A 
HETATM   15  C8  UNK     1      31.256  -6.391  35.551  1.00  0.00     0.053 A 
HETATM   16  C9  UNK     1      30.956 -10.472  34.937  1.00  0.00     0.160 A 
HETATM   17  C10 UNK     1      28.293  -7.408  33.430  1.00  0.00     0.299 A 
HETATM   18  C11 UNK     1      29.417  -9.419  31.740  1.00  0.00     0.033 A 
HETATM   19  C12 UNK     1      29.517  -5.378  37.555  1.00  0.00     0.033 A 
HETATM   20  C13 UNK     1      28.559  -8.454  31.229  1.00  0.00     0.092 A 
HETATM   21  C14 UNK     1      31.517  -5.169  36.177  1.00  0.00     0.117 A 
HETATM   22  C15 UNK     1      30.655  -4.667  37.170  1.00  0.00     0.044 A 
HETATM   23  C16 UNK     1      30.907  -9.725  37.225  1.00  0.00     0.101 C 
HETATM   24  C17 UNK     1      29.929 -10.379  30.856  1.00  0.00     0.017 A 
HETATM   25  C18 UNK     1      28.201  -8.415  29.881  1.00  0.00     0.038 A 
HETATM   26  C19 UNK     1      29.580 -10.355  29.502  1.00  0.00     0.001 A 
HETATM   27  C20 UNK     1      28.717  -9.374  29.015  1.00  0.00     0.003 A 
HETATM   28  H1  UNK     1      27.467  -7.272  37.796  1.00  0.00     0.169 HD
ENDROOT
BRANCH  16  29
HETATM   29  N2  UNK     1      31.779 -11.531  35.203  1.00  0.00    -0.379 N 
HETATM   30  H6  UNK     1      32.594 -11.672  34.618  1.00  0.00     0.158 HD
HETATM   31  H7  UNK     1      31.587 -12.164  35.968  1.00  0.00     0.158 HD
ENDBRANCH  16  29
TORSDOF 1
ENDMDL
MODEL 4
REMARK VINA RESULT:      -8.5      2.862      5.858
REMARK  1 active torsions:
REMARK  status: ('A' for Active; 'I' for Inactive)
REMARK    1  A    between atoms: C9_17  and  N2_7 
ROOT
HETATM    1  F1  UNK     1      32.917  -2.827  36.448  1.00  0.00    -0.206 F 
HETATM    2  O1  UNK     1      27.958  -7.007  35.103  1.00  0.00    -0.291 OA
HETATM    3  O2  UNK     1      30.601  -8.935  37.699  1.00  0.00    -0.274 OA
HETATM    4  O3  UNK     1      31.064  -8.885  33.059  1.00  0.00    -0.271 OA
HETATM    5  O4  UNK     1      32.368  -8.320  36.416  1.00  0.00    -0.259 OA
HETATM    6  N1  UNK     1      32.831  -7.381  33.425  1.00  0.00    -0.325 N 
HETATM    7  N3  UNK     1      30.279  -4.992  31.408  1.00  0.00    -0.191 NA
HETATM    8  C1  UNK     1      30.748  -6.853  34.455  1.00  0.00     0.147 A 
HETATM    9  C2  UNK     1      31.829  -5.842  34.785  1.00  0.00    -0.000 A 
HETATM   10  C3  UNK     1      30.215  -7.591  35.672  1.00  0.00     0.080 A 
HETATM   11  C4  UNK     1      31.521  -7.867  33.557  1.00  0.00     0.246 A 
HETATM   12  C5  UNK     1      29.644  -6.246  33.590  1.00  0.00     0.100 A 
HETATM   13  C6  UNK     1      33.014  -6.202  34.141  1.00  0.00     0.043 A 
HETATM   14  C7  UNK     1      28.893  -7.620  35.916  1.00  0.00     0.105 A 
HETATM   15  C8  UNK     1      31.774  -4.703  35.571  1.00  0.00     0.053 A 
HETATM   16  C9  UNK     1      28.342  -6.346  33.943  1.00  0.00     0.160 A 
HETATM   17  C10 UNK     1      31.156  -8.293  36.597  1.00  0.00     0.299 A 
HETATM   18  C11 UNK     1      28.340  -8.311  37.080  1.00  0.00     0.033 A 
HETATM   19  C12 UNK     1      34.173  -5.459  34.250  1.00  0.00     0.033 A 
HETATM   20  C13 UNK     1      29.218  -8.951  37.945  1.00  0.00     0.092 A 
HETATM   21  C14 UNK     1      32.935  -3.936  35.696  1.00  0.00     0.117 A 
HETATM   22  C15 UNK     1      34.123  -4.310  35.041  1.00  0.00     0.044 A 
HETATM   23  C16 UNK     1      29.995  -5.552  32.383  1.00  0.00     0.101 C 
HETATM   24  C17 UNK     1      26.971  -8.362  37.374  1.00  0.00     0.017 A 
HETATM   25  C18 UNK     1      28.779  -9.632  39.080  1.00  0.00     0.038 A 
HETATM   26  C19 UNK     1      26.514  -9.041  38.508  1.00  0.00     0.001 A 
HETATM   27  C20 UNK     1      27.416  -9.675  39.360  1.00  0.00     0.003 A 
HETATM   28  H1  UNK     1      33.564  -7.830  32.888  1.00  0.00     0.169 HD
ENDROOT
BRANCH  16  29
HETATM   29  N2  UNK     1      27.292  -5.831  33.235  1.00  0.00    -0.379 N 
HETATM   30  H6  UNK     1      26.458  -6.393  33.123  1.00  0.00     0.158 HD
HETATM   31  H7  UNK     1      27.339  -4.905  32.829  1.00  0.00     0.158 HD
ENDBRANCH  16  29
TORSDOF 1
ENDMDL
MODEL 5
REMARK VINA RESULT:      -8.5      4.511      6.937
REMARK  1 active torsions:
REMARK  status: ('A' for Active; 'I' for Inactive)
REMARK    1  A    between atoms: C9_17  and  N2_7 
ROOT
HETATM    1  F1  UNK     1      32.383  -8.821  27.630  1.00  0.00    -0.206 F 
HETATM    2  O1  UNK     1      31.116  -5.159  33.001  1.00  0.00    -0.291 OA
HETATM    3  O2  UNK     1      33.023  -8.659  34.248  1.00  0.00    -0.274 OA
HETATM    4  O3  UNK     1      28.420  -8.278  33.598  1.00  0.00    -0.271 OA
HETATM    5  O4  UNK     1      31.618  -9.918  32.986  1.00  0.00    -0.259 OA
HETATM    6  N1  UNK     1      28.763  -9.559  31.659  1.00  0.00    -0.325 N 
HETATM    7  N3  UNK     1      27.480  -6.109  30.005  1.00  0.00    -0.191 NA
HETATM    8  C1  UNK     1      30.130  -7.624  31.916  1.00  0.00     0.147 A 
HETATM    9  C2  UNK     1      30.457  -8.399  30.654  1.00  0.00    -0.000 A 
HETATM   10  C3  UNK     1      31.285  -7.551  32.900  1.00  0.00     0.080 A 
HETATM   11  C4  UNK     1      28.996  -8.494  32.542  1.00  0.00     0.246 A 
HETATM   12  C5  UNK     1      29.519  -6.258  31.604  1.00  0.00     0.100 A 
HETATM   13  C6  UNK     1      29.614  -9.508  30.558  1.00  0.00     0.043 A 
HETATM   14  C7  UNK     1      31.697  -6.359  33.366  1.00  0.00     0.105 A 
HETATM   15  C8  UNK     1      31.401  -8.148  29.674  1.00  0.00     0.053 A 
HETATM   16  C9  UNK     1      30.024  -5.125  32.141  1.00  0.00     0.160 A 
HETATM   17  C10 UNK     1      31.962  -8.802  33.359  1.00  0.00     0.299 A 
HETATM   18  C11 UNK     1      32.810  -6.243  34.307  1.00  0.00     0.033 A 
HETATM   19  C12 UNK     1      29.674 -10.397  29.504  1.00  0.00     0.033 A 
HETATM   20  C13 UNK     1      33.446  -7.406  34.722  1.00  0.00     0.092 A 
HETATM   21  C14 UNK     1      31.481  -9.035  28.597  1.00  0.00     0.117 A 
HETATM   22  C15 UNK     1      30.625 -10.149  28.513  1.00  0.00     0.044 A 
HETATM   23  C16 UNK     1      28.391  -6.176  30.719  1.00  0.00     0.101 C 
HETATM   24  C17 UNK     1      33.274  -5.023  34.815  1.00  0.00     0.017 A 
HETATM   25  C18 UNK     1      34.518  -7.390  35.614  1.00  0.00     0.038 A 
HETATM   26  C19 UNK     1      34.347  -4.988  35.711  1.00  0.00     0.001 A 
HETATM   27  C20 UNK     1      34.968  -6.170  36.111  1.00  0.00     0.003 A 
HETATM   28  H1  UNK     1      28.073 -10.288  31.800  1.00  0.00     0.169 HD
ENDROOT
BRANCH  16  29
HETATM   29  N2  UNK     1      29.547  -3.864  31.915  1.00  0.00    -0.379 N 
HETATM   30  H6  UNK     1      29.048  -3.391  32.658  1.00  0.00     0.158 HD
HETATM   31  H7  UNK     1      29.687  -3.403  31.025  1.00  0.00     0.158 HD
ENDBRANCH  16  29
TORSDOF 1
ENDMDL
MODEL 6
REMARK VINA RESULT:      -8.4      2.958      4.965
REMARK  1 active torsions:
REMARK  status: ('A' for Active; 'I' for Inactive)
REMARK    1  A    between atoms: C9_17  and  N2_7 
ROOT
HETATM    1  F1  UNK     1      35.955  -8.189  34.165  1.00  0.00    -0.206 F 
HETATM    2  O1  UNK     1      29.349  -8.197  34.651  1.00  0.00    -0.291 OA
HETATM    3  O2  UNK     1      30.465  -4.926  32.308  1.00  0.00    -0.274 OA
HETATM    4  O3  UNK     1      30.243  -4.851  36.966  1.00  0.00    -0.271 OA
HETATM    5  O4  UNK     1      32.031  -4.320  33.834  1.00  0.00    -0.259 OA
HETATM    6  N1  UNK     1      32.591  -4.864  36.905  1.00  0.00    -0.325 N 
HETATM    7  N3  UNK     1      31.914  -8.409  38.711  1.00  0.00    -0.191 NA
HETATM    8  C1  UNK     1      31.481  -6.559  35.652  1.00  0.00     0.147 A 
HETATM    9  C2  UNK     1      32.989  -6.633  35.514  1.00  0.00    -0.000 A 
HETATM   10  C3  UNK     1      30.765  -6.284  34.340  1.00  0.00     0.080 A 
HETATM   11  C4  UNK     1      31.304  -5.322  36.585  1.00  0.00     0.246 A 
HETATM   12  C5  UNK     1      30.917  -7.765  36.402  1.00  0.00     0.100 A 
HETATM   13  C6  UNK     1      33.576  -5.625  36.282  1.00  0.00     0.043 A 
HETATM   14  C7  UNK     1      29.775  -7.097  33.931  1.00  0.00     0.105 A 
HETATM   15  C8  UNK     1      33.776  -7.512  34.790  1.00  0.00     0.053 A 
HETATM   16  C9  UNK     1      29.911  -8.506  35.884  1.00  0.00     0.160 A 
HETATM   17  C10 UNK     1      31.152  -5.108  33.504  1.00  0.00     0.299 A 
HETATM   18  C11 UNK     1      29.066  -6.874  32.672  1.00  0.00     0.033 A 
HETATM   19  C12 UNK     1      34.943  -5.452  36.359  1.00  0.00     0.033 A 
HETATM   20  C13 UNK     1      29.437  -5.787  31.890  1.00  0.00     0.092 A 
HETATM   21  C14 UNK     1      35.164  -7.355  34.853  1.00  0.00     0.117 A 
HETATM   22  C15 UNK     1      35.741  -6.335  35.630  1.00  0.00     0.044 A 
HETATM   23  C16 UNK     1      31.469  -8.122  37.679  1.00  0.00     0.101 C 
HETATM   24  C17 UNK     1      28.033  -7.697  32.206  1.00  0.00     0.017 A 
HETATM   25  C18 UNK     1      28.818  -5.499  30.674  1.00  0.00     0.038 A 
HETATM   26  C19 UNK     1      27.400  -7.423  30.989  1.00  0.00     0.001 A 
HETATM   27  C20 UNK     1      27.793  -6.326  30.223  1.00  0.00     0.003 A 
HETATM   28  H1  UNK     1      32.791  -4.072  37.505  1.00  0.00     0.169 HD
ENDROOT
BRANCH  16  29
HETATM   29  N2  UNK     1      29.350  -9.601  36.482  1.00  0.00    -0.379 N 
HETATM   30  H6  UNK     1      29.922 -10.424  36.624  1.00  0.00     0.158 HD
HETATM   31  H7  UNK     1      28.383  -9.596  36.780  1.00  0.00     0.158 HD
ENDBRANCH  16  29
TORSDOF 1
ENDMDL
MODEL 7
REMARK VINA RESULT:      -8.4      3.738      7.015
REMARK  1 active torsions:
REMARK  status: ('A' for Active; 'I' for Inactive)
REMARK    1  A    between atoms: C9_17  and  N2_7 
ROOT
HETATM    1  F1  UNK     1      27.482  -9.221  30.520  1.00  0.00    -0.206 F 
HETATM    2  O1  UNK     1      32.745  -9.819  34.497  1.00  0.00    -0.291 OA
HETATM    3  O2  UNK     1      31.277  -5.928  34.877  1.00  0.00    -0.274 OA
HETATM    4  O3  UNK     1      34.312  -7.269  31.599  1.00  0.00    -0.271 OA
HETATM    5  O4  UNK     1      31.182  -5.704  32.621  1.00  0.00    -0.259 OA
HETATM    6  N1  UNK     1      32.506  -7.105  30.106  1.00  0.00    -0.325 N 
HETATM    7  N3  UNK     1      33.247 -11.066  29.882  1.00  0.00    -0.191 NA
HETATM    8  C1  UNK     1      32.157  -8.417  32.064  1.00  0.00     0.147 A 
HETATM    9  C2  UNK     1      30.921  -8.345  31.190  1.00  0.00    -0.000 A 
HETATM   10  C3  UNK     1      31.961  -7.810  33.444  1.00  0.00     0.080 A 
HETATM   11  C4  UNK     1      33.165  -7.532  31.270  1.00  0.00     0.246 A 
HETATM   12  C5  UNK     1      32.743  -9.827  32.107  1.00  0.00     0.100 A 
HETATM   13  C6  UNK     1      31.197  -7.576  30.057  1.00  0.00     0.043 A 
HETATM   14  C7  UNK     1      32.255  -8.528  34.542  1.00  0.00     0.105 A 
HETATM   15  C8  UNK     1      29.670  -8.911  31.366  1.00  0.00     0.053 A 
HETATM   16  C9  UNK     1      33.001 -10.445  33.282  1.00  0.00     0.160 A 
HETATM   17  C10 UNK     1      31.448  -6.414  33.584  1.00  0.00     0.299 A 
HETATM   18  C11 UNK     1      32.072  -7.985  35.888  1.00  0.00     0.033 A 
HETATM   19  C12 UNK     1      30.259  -7.342  29.072  1.00  0.00     0.033 A 
HETATM   20  C13 UNK     1      31.583  -6.691  36.016  1.00  0.00     0.092 A 
HETATM   21  C14 UNK     1      28.703  -8.687  30.381  1.00  0.00     0.117 A 
HETATM   22  C15 UNK     1      28.995  -7.910  29.245  1.00  0.00     0.044 A 
HETATM   23  C16 UNK     1      33.022 -10.513  30.877  1.00  0.00     0.101 C 
HETATM   24  C17 UNK     1      32.362  -8.698  37.058  1.00  0.00     0.017 A 
HETATM   25  C18 UNK     1      31.375  -6.095  37.259  1.00  0.00     0.038 A 
HETATM   26  C19 UNK     1      32.161  -8.114  38.313  1.00  0.00     0.001 A 
HETATM   27  C20 UNK     1      31.668  -6.814  38.414  1.00  0.00     0.003 A 
HETATM   28  H1  UNK     1      32.917  -6.518  29.390  1.00  0.00     0.169 HD
ENDROOT
BRANCH  16  29
HETATM   29  N2  UNK     1      33.519 -11.703  33.415  1.00  0.00    -0.379 N 
HETATM   30  H6  UNK     1      33.065 -12.352  34.046  1.00  0.00     0.158 HD
HETATM   31  H7  UNK     1      34.338 -11.989  32.895  1.00  0.00     0.158 HD
ENDBRANCH  16  29
TORSDOF 1
ENDMDL
MODEL 8
REMARK VINA RESULT:      -8.3      3.064      6.432
REMARK  1 active torsions:
REMARK  status: ('A' for Active; 'I' for Inactive)
REMARK    1  A    between atoms: C9_17  and  N2_7 
ROOT
HETATM    1  F1  UNK     1      28.607  -5.375  30.058  1.00  0.00    -0.206 F 
HETATM    2  O1  UNK     1      28.826  -8.037  36.120  1.00  0.00    -0.291 OA
HETATM    3  O2  UNK     1      31.424  -4.768  36.052  1.00  0.00    -0.274 OA
HETATM    4  O3  UNK     1      32.612  -9.080  34.732  1.00  0.00    -0.271 OA
HETATM    5  O4  UNK     1      32.350  -5.497  34.113  1.00  0.00    -0.259 OA
HETATM    6  N1  UNK     1      32.546  -8.240  32.539  1.00  0.00    -0.325 N 
HETATM    7  N3  UNK     1      29.546 -10.933  32.352  1.00  0.00    -0.191 NA
HETATM    8  C1  UNK     1      30.619  -7.858  33.888  1.00  0.00     0.147 A 
HETATM    9  C2  UNK     1      30.489  -7.244  32.508  1.00  0.00    -0.000 A 
HETATM   10  C3  UNK     1      30.585  -6.836  35.013  1.00  0.00     0.080 A 
HETATM   11  C4  UNK     1      32.046  -8.484  33.827  1.00  0.00     0.246 A 
HETATM   12  C5  UNK     1      29.637  -9.010  34.094  1.00  0.00     0.100 A 
HETATM   13  C6  UNK     1      31.642  -7.516  31.768  1.00  0.00     0.043 A 
HETATM   14  C7  UNK     1      29.714  -6.982  36.027  1.00  0.00     0.105 A 
HETATM   15  C8  UNK     1      29.450  -6.521  31.948  1.00  0.00     0.053 A 
HETATM   16  C9  UNK     1      28.811  -9.046  35.164  1.00  0.00     0.160 A 
HETATM   17  C10 UNK     1      31.521  -5.672  34.999  1.00  0.00     0.299 A 
HETATM   18  C11 UNK     1      29.643  -6.018  37.124  1.00  0.00     0.033 A 
HETATM   19  C12 UNK     1      31.805  -7.088  30.466  1.00  0.00     0.033 A 
HETATM   20  C13 UNK     1      30.505  -4.930  37.103  1.00  0.00     0.092 A 
HETATM   21  C14 UNK     1      29.594  -6.076  30.631  1.00  0.00     0.117 A 
HETATM   22  C15 UNK     1      30.760  -6.358  29.896  1.00  0.00     0.044 A 
HETATM   23  C16 UNK     1      29.587 -10.074  33.130  1.00  0.00     0.101 C 
HETATM   24  C17 UNK     1      28.750  -6.129  38.198  1.00  0.00     0.017 A 
HETATM   25  C18 UNK     1      30.504  -3.960  38.105  1.00  0.00     0.038 A 
HETATM   26  C19 UNK     1      28.736  -5.166  39.212  1.00  0.00     0.001 A 
HETATM   27  C20 UNK     1      29.612  -4.083  39.166  1.00  0.00     0.003 A 
HETATM   28  H1  UNK     1      33.455  -8.538  32.204  1.00  0.00     0.169 HD
ENDROOT
BRANCH  16  29
HETATM   29  N2  UNK     1      27.900 -10.032  35.425  1.00  0.00    -0.379 N 
HETATM   30  H6  UNK     1      26.919  -9.786  35.479  1.00  0.00     0.158 HD
HETATM   31  H7  UNK     1      28.192 -10.991  35.560  1.00  0.00     0.158 HD
ENDBRANCH  16  29
TORSDOF 1
ENDMDL
MODEL 9
REMARK VINA RESULT:      -8.3      2.913      3.619
REMARK  1 active torsions:
REMARK  status: ('A' for Active; 'I' for Inactive)
REMARK    1  A    between atoms: C9_17  and  N2_7 
ROOT
HETATM    1  F1  UNK     1      31.384  -2.798  36.797  1.00  0.00    -0.206 F 
HETATM    2  O1  UNK     1      32.748  -7.137  31.982  1.00  0.00    -0.291 OA
HETATM    3  O2  UNK     1      28.929  -7.988  33.441  1.00  0.00    -0.274 OA
HETATM    4  O3  UNK     1      32.868  -9.664  35.292  1.00  0.00    -0.271 OA
HETATM    5  O4  UNK     1      29.686  -7.907  35.578  1.00  0.00    -0.259 OA
HETATM    6  N1  UNK     1      32.486  -8.146  37.044  1.00  0.00    -0.325 N 
HETATM    7  N3  UNK     1      35.927  -6.652  35.555  1.00  0.00    -0.191 NA
HETATM    8  C1  UNK     1      32.451  -7.257  34.833  1.00  0.00     0.147 A 
HETATM    9  C2  UNK     1      32.156  -6.205  35.884  1.00  0.00    -0.000 A 
HETATM   10  C3  UNK     1      31.302  -7.488  33.865  1.00  0.00     0.080 A 
HETATM   11  C4  UNK     1      32.634  -8.537  35.704  1.00  0.00     0.246 A 
HETATM   12  C5  UNK     1      33.785  -7.004  34.131  1.00  0.00     0.100 A 
HETATM   13  C6  UNK     1      32.206  -6.787  37.152  1.00  0.00     0.043 A 
HETATM   14  C7  UNK     1      31.514  -7.413  32.540  1.00  0.00     0.105 A 
HETATM   15  C8  UNK     1      31.880  -4.856  35.741  1.00  0.00     0.053 A 
HETATM   16  C9  UNK     1      33.870  -6.955  32.783  1.00  0.00     0.160 A 
HETATM   17  C10 UNK     1      29.936  -7.805  34.383  1.00  0.00     0.299 A 
HETATM   18  C11 UNK     1      30.435  -7.619  31.575  1.00  0.00     0.033 A 
HETATM   19  C12 UNK     1      31.987  -6.066  38.308  1.00  0.00     0.033 A 
HETATM   20  C13 UNK     1      29.163  -7.901  32.059  1.00  0.00     0.092 A 
HETATM   21  C14 UNK     1      31.653  -4.106  36.899  1.00  0.00     0.117 A 
HETATM   22  C15 UNK     1      31.706  -4.706  38.170  1.00  0.00     0.044 A 
HETATM   23  C16 UNK     1      34.970  -6.809  34.919  1.00  0.00     0.101 C 
HETATM   24  C17 UNK     1      30.609  -7.547  30.187  1.00  0.00     0.017 A 
HETATM   25  C18 UNK     1      28.075  -8.109  31.212  1.00  0.00     0.038 A 
HETATM   26  C19 UNK     1      29.529  -7.754  29.324  1.00  0.00     0.001 A 
HETATM   27  C20 UNK     1      28.263  -8.034  29.835  1.00  0.00     0.003 A 
HETATM   28  H1  UNK     1      32.560  -8.768  37.840  1.00  0.00     0.169 HD
ENDROOT
BRANCH  16  29
HETATM   29  N2  UNK     1      35.017  -6.730  32.073  1.00  0.00    -0.379 N 
HETATM   30  H6  UNK     1      35.372  -5.784  32.010  1.00  0.00     0.158 HD
HETATM   31  H7  UNK     1      35.507  -7.489  31.617  1.00  0.00     0.158 HD
ENDBRANCH  16  29
TORSDOF 1
ENDMDL
MODEL 10
REMARK VINA RESULT:      -8.3      3.192      4.998
REMARK  1 active torsions:
REMARK  status: ('A' for Active; 'I' for Inactive)
REMARK    1  A    between atoms: C9_17  and  N2_7 
ROOT
HETATM    1  F1  UNK     1      35.529  -5.060  34.115  1.00  0.00    -0.206 F 
HETATM    2  O1  UNK     1      31.111  -9.945  33.412  1.00  0.00    -0.291 OA
HETATM    3  O2  UNK     1      29.913  -6.764  30.986  1.00  0.00    -0.274 OA
HETATM    4  O3  UNK     1      28.803  -7.174  35.497  1.00  0.00    -0.271 OA
HETATM    5  O4  UNK     1      30.199  -5.302  32.698  1.00  0.00    -0.259 OA
HETATM    6  N1  UNK     1      30.363  -5.455  35.859  1.00  0.00    -0.325 N 
HETATM    7  N3  UNK     1      32.154  -8.465  37.864  1.00  0.00    -0.191 NA
HETATM    8  C1  UNK     1      31.118  -7.336  34.606  1.00  0.00     0.147 A 
HETATM    9  C2  UNK     1      32.187  -6.271  34.748  1.00  0.00    -0.000 A 
HETATM   10  C3  UNK     1      30.704  -7.592  33.166  1.00  0.00     0.080 A 
HETATM   11  C4  UNK     1      29.917  -6.690  35.362  1.00  0.00     0.246 A 
HETATM   12  C5  UNK     1      31.481  -8.613  35.361  1.00  0.00     0.100 A 
HETATM   13  C6  UNK     1      31.685  -5.207  35.502  1.00  0.00     0.043 A 
HETATM   14  C7  UNK     1      30.729  -8.842  32.671  1.00  0.00     0.105 A 
HETATM   15  C8  UNK     1      33.485  -6.241  34.269  1.00  0.00     0.053 A 
HETATM   16  C9  UNK     1      31.464  -9.820  34.751  1.00  0.00     0.160 A 
HETATM   17  C10 UNK     1      30.263  -6.459  32.298  1.00  0.00     0.299 A 
HETATM   18  C11 UNK     1      30.347  -9.131  31.290  1.00  0.00     0.033 A 
HETATM   19  C12 UNK     1      32.440  -4.092  35.805  1.00  0.00     0.033 A 
HETATM   20  C13 UNK     1      29.950  -8.074  30.481  1.00  0.00     0.092 A 
HETATM   21  C14 UNK     1      34.267  -5.121  34.563  1.00  0.00     0.117 A 
HETATM   22  C15 UNK     1      33.750  -4.056  35.323  1.00  0.00     0.044 A 
HETATM   23  C16 UNK     1      31.854  -8.532  36.746  1.00  0.00     0.101 C 
HETATM   24  C17 UNK     1      30.361 -10.416  30.732  1.00  0.00     0.017 A 
HETATM   25  C18 UNK     1      29.572  -8.256  29.151  1.00  0.00     0.038 A 
HETATM   26  C19 UNK     1      29.984 -10.617  29.400  1.00  0.00     0.001 A 
HETATM   27  C20 UNK     1      29.591  -9.538  28.610  1.00  0.00     0.003 A 
HETATM   28  H1  UNK     1      29.799  -4.811  36.401  1.00  0.00     0.169 HD
ENDROOT
BRANCH  16  29
HETATM   29  N2  UNK     1      31.779 -11.010  35.346  1.00  0.00    -0.379 N 
HETATM   30  H6  UNK     1      32.673 -11.100  35.812  1.00  0.00     0.158 HD
HETATM   31  H7  UNK     1      31.135 -11.790  35.326  1.00  0.00     0.158 HD
ENDBRANCH  16  29
TORSDOF 1
ENDMDL
