MODEL 1
REMARK VINA RESULT:      -7.5      0.000      0.000
REMARK  4 active torsions:
REMARK  status: ('A' for Active; 'I' for Inactive)
REMARK    1  A    between atoms: C1_5  and  N1_4 
REMARK    2  A    between atoms: C2_6  and  N1_4 
REMARK    3  A    between atoms: C3_7  and  N1_4 
REMARK    4  A    between atoms: C12_16  and  C14_18 
ROOT
HETATM    1  O1  UNK     1      18.069   3.183  32.984  1.00  0.00    -0.274 OA
HETATM    2  O2  UNK     1      18.239   0.946  32.552  1.00  0.00    -0.259 OA
HETATM    3  C1  UNK     1      17.977   6.856  33.020  1.00  0.00     0.032 A 
HETATM    4  C4  UNK     1      17.889   5.531  33.440  1.00  0.00     0.067 A 
HETATM    5  C5  UNK     1      18.527   4.786  31.214  1.00  0.00    -0.001 A 
HETATM    6  C6  UNK     1      18.166   4.513  32.530  1.00  0.00     0.091 A 
HETATM    7  C7  UNK     1      18.339   7.149  31.704  1.00  0.00     0.030 A 
HETATM    8  C8  UNK     1      18.614   6.117  30.801  1.00  0.00     0.016 A 
HETATM    9  C11 UNK     1      18.802   3.675  30.316  1.00  0.00     0.035 A 
HETATM   10  C12 UNK     1      18.709   2.414  30.753  1.00  0.00     0.086 A 
HETATM   11  C13 UNK     1      18.326   2.101  32.147  1.00  0.00     0.302 A 
ENDROOT
BRANCH   3  12
HETATM   12  N1  UNK     1      17.701   7.902  33.925  1.00  0.00    -0.382 N 
BRANCH  12  13
HETATM   13  C2  UNK     1      16.595   7.796  34.855  1.00  0.00     0.118 C 
HETATM   14  C9  UNK     1      15.281   8.174  34.201  1.00  0.00     0.026 C 
ENDBRANCH  12  13
BRANCH  12  15
HETATM   15  C3  UNK     1      18.531   9.091  33.946  1.00  0.00     0.118 C 
HETATM   16  C10 UNK     1      19.899   8.803  34.529  1.00  0.00     0.026 C 
ENDBRANCH  12  15
ENDBRANCH   3  12
BRANCH  10  17
HETATM   17  C14 UNK     1      19.005   1.364  29.772  1.00  0.00     0.161 C 
HETATM   18  O3  UNK     1      19.960   0.603  29.938  1.00  0.00    -0.293 OA
HETATM   19  C15 UNK     1      18.102   1.243  28.571  1.00  0.00     0.097 C 
ENDBRANCH  10  17
TORSDOF 4
ENDMDL
MODEL 2
REMARK VINA RESULT:      -7.5      0.040      1.724
REMARK  4 active torsions:
REMARK  status: ('A' for Active; 'I' for Inactive)
REMARK    1  A    between atoms: C1_5  and  N1_4 
REMARK    2  A    between atoms: C2_6  and  N1_4 
REMARK    3  A    between atoms: C3_7  and  N1_4 
REMARK    4  A    between atoms: C12_16  and  C14_18 
ROOT
HETATM    1  O1  UNK     1      18.094   3.202  32.996  1.00  0.00    -0.274 OA
HETATM    2  O2  UNK     1      18.267   0.966  32.562  1.00  0.00    -0.259 OA
HETATM    3  C1  UNK     1      17.985   6.874  33.034  1.00  0.00     0.032 A 
HETATM    4  C4  UNK     1      17.911   5.549  33.456  1.00  0.00     0.067 A 
HETATM    5  C5  UNK     1      18.513   4.807  31.219  1.00  0.00    -0.001 A 
HETATM    6  C6  UNK     1      18.177   4.533  32.541  1.00  0.00     0.091 A 
HETATM    7  C7  UNK     1      18.322   7.169  31.712  1.00  0.00     0.030 A 
HETATM    8  C8  UNK     1      18.586   6.139  30.805  1.00  0.00     0.016 A 
HETATM    9  C11 UNK     1      18.778   3.698  30.316  1.00  0.00     0.035 A 
HETATM   10  C12 UNK     1      18.699   2.436  30.755  1.00  0.00     0.086 A 
HETATM   11  C13 UNK     1      18.341   2.121  32.156  1.00  0.00     0.302 A 
ENDROOT
BRANCH   3  12
HETATM   12  N1  UNK     1      17.720   7.920  33.943  1.00  0.00    -0.382 N 
BRANCH  12  13
HETATM   13  C2  UNK     1      18.545   9.111  33.952  1.00  0.00     0.118 C 
HETATM   14  C9  UNK     1      19.915   8.834  34.538  1.00  0.00     0.026 C 
ENDBRANCH  12  13
BRANCH  12  15
HETATM   15  C3  UNK     1      16.611   7.822  34.871  1.00  0.00     0.118 C 
HETATM   16  C10 UNK     1      15.286   8.070  34.179  1.00  0.00     0.026 C 
ENDBRANCH  12  15
ENDBRANCH   3  12
BRANCH  10  17
HETATM   17  C14 UNK     1      18.983   1.387  29.769  1.00  0.00     0.161 C 
HETATM   18  O3  UNK     1      19.928   0.613  29.932  1.00  0.00    -0.293 OA
HETATM   19  C15 UNK     1      18.080   1.284  28.566  1.00  0.00     0.097 C 
ENDBRANCH  10  17
TORSDOF 4
ENDMDL
MODEL 3
REMARK VINA RESULT:      -7.1      2.708      6.640
REMARK  4 active torsions:
REMARK  status: ('A' for Active; 'I' for Inactive)
REMARK    1  A    between atoms: C1_5  and  N1_4 
REMARK    2  A    between atoms: C2_6  and  N1_4 
REMARK    3  A    between atoms: C3_7  and  N1_4 
REMARK    4  A    between atoms: C12_16  and  C14_18 
ROOT
HETATM    1  O1  UNK     1      17.438   5.392  33.681  1.00  0.00    -0.274 OA
HETATM    2  O2  UNK     1      16.732   6.988  35.155  1.00  0.00    -0.259 OA
HETATM    3  C1  UNK     1      18.722   3.359  30.903  1.00  0.00     0.032 A 
HETATM    4  C4  UNK     1      18.179   3.714  32.135  1.00  0.00     0.067 A 
HETATM    5  C5  UNK     1      18.327   6.063  31.520  1.00  0.00    -0.001 A 
HETATM    6  C6  UNK     1      17.988   5.063  32.426  1.00  0.00     0.091 A 
HETATM    7  C7  UNK     1      19.066   4.348  29.980  1.00  0.00     0.030 A 
HETATM    8  C8  UNK     1      18.870   5.697  30.286  1.00  0.00     0.016 A 
HETATM    9  C11 UNK     1      18.103   7.452  31.888  1.00  0.00     0.035 A 
HETATM   10  C12 UNK     1      17.579   7.758  33.081  1.00  0.00     0.086 A 
HETATM   11  C13 UNK     1      17.212   6.712  34.061  1.00  0.00     0.302 A 
ENDROOT
BRANCH   3  12
HETATM   12  N1  UNK     1      18.922   1.998  30.587  1.00  0.00    -0.382 N 
BRANCH  12  13
HETATM   13  C2  UNK     1      18.943   0.997  31.634  1.00  0.00     0.118 C 
HETATM   14  C9  UNK     1      19.716  -0.235  31.209  1.00  0.00     0.026 C 
ENDBRANCH  12  13
BRANCH  12  15
HETATM   15  C3  UNK     1      19.095   1.583  29.208  1.00  0.00     0.118 C 
HETATM   16  C10 UNK     1      17.763   1.462  28.495  1.00  0.00     0.026 C 
ENDBRANCH  12  15
ENDBRANCH   3  12
BRANCH  10  17
HETATM   17  C14 UNK     1      17.392   9.186  33.360  1.00  0.00     0.161 C 
HETATM   18  O3  UNK     1      16.321   9.740  33.103  1.00  0.00    -0.293 OA
HETATM   19  C15 UNK     1      18.541   9.942  33.976  1.00  0.00     0.097 C 
ENDBRANCH  10  17
TORSDOF 4
ENDMDL
MODEL 4
REMARK VINA RESULT:      -6.7      2.881      4.504
REMARK  4 active torsions:
REMARK  status: ('A' for Active; 'I' for Inactive)
REMARK    1  A    between atoms: C1_5  and  N1_4 
REMARK    2  A    between atoms: C2_6  and  N1_4 
REMARK    3  A    between atoms: C3_7  and  N1_4 
REMARK    4  A    between atoms: C12_16  and  C14_18 
ROOT
HETATM    1  O1  UNK     1      18.318   2.835  35.435  1.00  0.00    -0.274 OA
HETATM    2  O2  UNK     1      18.359   1.500  37.289  1.00  0.00    -0.259 OA
HETATM    3  C1  UNK     1      18.258   4.389  32.106  1.00  0.00     0.032 A 
HETATM    4  C4  UNK     1      18.275   4.239  33.491  1.00  0.00     0.067 A 
HETATM    5  C5  UNK     1      18.310   1.821  33.225  1.00  0.00    -0.001 A 
HETATM    6  C6  UNK     1      18.302   2.955  34.031  1.00  0.00     0.091 A 
HETATM    7  C7  UNK     1      18.268   3.262  31.281  1.00  0.00     0.030 A 
HETATM    8  C8  UNK     1      18.294   1.980  31.838  1.00  0.00     0.016 A 
HETATM    9  C11 UNK     1      18.337   0.510  33.855  1.00  0.00     0.035 A 
HETATM   10  C12 UNK     1      18.354   0.403  35.189  1.00  0.00     0.086 A 
HETATM   11  C13 UNK     1      18.344   1.595  36.066  1.00  0.00     0.302 A 
ENDROOT
BRANCH   3  12
HETATM   12  N1  UNK     1      18.232   5.679  31.537  1.00  0.00    -0.382 N 
BRANCH  12  13
HETATM   13  C2  UNK     1      17.671   6.794  32.272  1.00  0.00     0.118 C 
HETATM   14  C9  UNK     1      16.798   7.660  31.387  1.00  0.00     0.026 C 
ENDBRANCH  12  13
BRANCH  12  15
HETATM   15  C3  UNK     1      18.781   5.909  30.214  1.00  0.00     0.118 C 
HETATM   16  C10 UNK     1      20.296   5.919  30.237  1.00  0.00     0.026 C 
ENDBRANCH  12  15
ENDBRANCH   3  12
BRANCH  10  17
HETATM   17  C14 UNK     1      18.380  -0.961  35.730  1.00  0.00     0.161 C 
HETATM   18  O3  UNK     1      17.376  -1.446  36.256  1.00  0.00    -0.293 OA
HETATM   19  C15 UNK     1      19.661  -1.745  35.609  1.00  0.00     0.097 C 
ENDBRANCH  10  17
TORSDOF 4
ENDMDL
MODEL 5
REMARK VINA RESULT:      -6.6     14.391     18.703
REMARK  4 active torsions:
REMARK  status: ('A' for Active; 'I' for Inactive)
REMARK    1  A    between atoms: C1_5  and  N1_4 
REMARK    2  A    between atoms: C2_6  and  N1_4 
REMARK    3  A    between atoms: C3_7  and  N1_4 
REMARK    4  A    between atoms: C12_16  and  C14_18 
ROOT
HETATM    1  O1  UNK     1      19.349   1.489  15.419  1.00  0.00    -0.274 OA
HETATM    2  O2  UNK     1      19.409   3.435  16.614  1.00  0.00    -0.259 OA
HETATM    3  C1  UNK     1      19.159  -1.938  14.108  1.00  0.00     0.032 A 
HETATM    4  C4  UNK     1      19.287  -0.552  14.161  1.00  0.00     0.067 A 
HETATM    5  C5  UNK     1      19.024  -0.623  16.578  1.00  0.00    -0.001 A 
HETATM    6  C6  UNK     1      19.218   0.087  15.397  1.00  0.00     0.091 A 
HETATM    7  C7  UNK     1      18.966  -2.667  15.283  1.00  0.00     0.030 A 
HETATM    8  C8  UNK     1      18.898  -2.012  16.516  1.00  0.00     0.016 A 
HETATM    9  C11 UNK     1      18.960   0.107  17.835  1.00  0.00     0.035 A 
HETATM   10  C12 UNK     1      19.087   1.439  17.849  1.00  0.00     0.086 A 
HETATM   11  C13 UNK     1      19.293   2.214  16.606  1.00  0.00     0.302 A 
ENDROOT
BRANCH   3  12
HETATM   12  N1  UNK     1      19.227  -2.606  12.867  1.00  0.00    -0.382 N 
BRANCH  12  13
HETATM   13  C2  UNK     1      19.078  -4.045  12.800  1.00  0.00     0.118 C 
HETATM   14  C9  UNK     1      19.076  -4.538  11.367  1.00  0.00     0.026 C 
ENDBRANCH  12  13
BRANCH  12  15
HETATM   15  C3  UNK     1      19.433  -1.859  11.642  1.00  0.00     0.118 C 
HETATM   16  C10 UNK     1      20.906  -1.635  11.370  1.00  0.00     0.026 C 
ENDBRANCH  12  15
ENDBRANCH   3  12
BRANCH  10  17
HETATM   17  C14 UNK     1      19.009   2.084  19.165  1.00  0.00     0.161 C 
HETATM   18  O3  UNK     1      19.602   3.143  19.380  1.00  0.00    -0.293 OA
HETATM   19  C15 UNK     1      18.176   1.418  20.230  1.00  0.00     0.097 C 
ENDBRANCH  10  17
TORSDOF 4
ENDMDL
MODEL 6
REMARK VINA RESULT:      -6.6     22.025     24.315
REMARK  4 active torsions:
REMARK  status: ('A' for Active; 'I' for Inactive)
REMARK    1  A    between atoms: C1_5  and  N1_4 
REMARK    2  A    between atoms: C2_6  and  N1_4 
REMARK    3  A    between atoms: C3_7  and  N1_4 
REMARK    4  A    between atoms: C12_16  and  C14_18 
ROOT
HETATM    1  O1  UNK     1      13.546   4.840   9.353  1.00  0.00    -0.274 OA
HETATM    2  O2  UNK     1      15.662   4.088   9.771  1.00  0.00    -0.259 OA
HETATM    3  C1  UNK     1      10.429   6.673   8.704  1.00  0.00     0.032 A 
HETATM    4  C4  UNK     1      11.323   5.626   8.913  1.00  0.00     0.067 A 
HETATM    5  C5  UNK     1      13.134   7.229   9.172  1.00  0.00    -0.001 A 
HETATM    6  C6  UNK     1      12.665   5.919   9.145  1.00  0.00     0.091 A 
HETATM    7  C7  UNK     1      10.881   7.994   8.729  1.00  0.00     0.030 A 
HETATM    8  C8  UNK     1      12.230   8.273   8.963  1.00  0.00     0.016 A 
HETATM    9  C11 UNK     1      14.548   7.465   9.419  1.00  0.00     0.035 A 
HETATM   10  C12 UNK     1      15.380   6.435   9.617  1.00  0.00     0.086 A 
HETATM   11  C13 UNK     1      14.903   5.034   9.591  1.00  0.00     0.302 A 
ENDROOT
BRANCH   3  12
HETATM   12  N1  UNK     1       9.065   6.399   8.468  1.00  0.00    -0.382 N 
BRANCH  12  13
HETATM   13  C2  UNK     1       8.210   5.949   9.548  1.00  0.00     0.118 C 
HETATM   14  C9  UNK     1       7.431   4.708   9.160  1.00  0.00     0.026 C 
ENDBRANCH  12  13
BRANCH  12  15
HETATM   15  C3  UNK     1       8.498   6.579   7.146  1.00  0.00     0.118 C 
HETATM   16  C10 UNK     1       9.444   6.096   6.067  1.00  0.00     0.026 C 
ENDBRANCH  12  15
ENDBRANCH   3  12
BRANCH  10  17
HETATM   17  C14 UNK     1      16.787   6.774   9.857  1.00  0.00     0.161 C 
HETATM   18  O3  UNK     1      17.676   6.299   9.148  1.00  0.00    -0.293 OA
HETATM   19  C15 UNK     1      17.102   7.725  10.983  1.00  0.00     0.097 C 
ENDBRANCH  10  17
TORSDOF 4
ENDMDL
MODEL 7
REMARK VINA RESULT:      -6.4      2.578      4.307
REMARK  4 active torsions:
REMARK  status: ('A' for Active; 'I' for Inactive)
REMARK    1  A    between atoms: C1_5  and  N1_4 
REMARK    2  A    between atoms: C2_6  and  N1_4 
REMARK    3  A    between atoms: C3_7  and  N1_4 
REMARK    4  A    between atoms: C12_16  and  C14_18 
ROOT
HETATM    1  O1  UNK     1      18.333   1.034  32.210  1.00  0.00    -0.274 OA
HETATM    2  O2  UNK     1      18.344  -1.232  32.503  1.00  0.00    -0.259 OA
HETATM    3  C1  UNK     1      18.326   4.701  32.427  1.00  0.00     0.032 A 
HETATM    4  C4  UNK     1      18.321   3.412  31.900  1.00  0.00     0.067 A 
HETATM    5  C5  UNK     1      18.358   2.495  34.153  1.00  0.00    -0.001 A 
HETATM    6  C6  UNK     1      18.337   2.325  32.772  1.00  0.00     0.091 A 
HETATM    7  C7  UNK     1      18.345   4.891  33.810  1.00  0.00     0.030 A 
HETATM    8  C8  UNK     1      18.362   3.792  34.672  1.00  0.00     0.016 A 
HETATM    9  C11 UNK     1      18.375   1.318  35.006  1.00  0.00     0.035 A 
HETATM   10  C12 UNK     1      18.370   0.093  34.467  1.00  0.00     0.086 A 
HETATM   11  C13 UNK     1      18.349  -0.111  33.001  1.00  0.00     0.302 A 
ENDROOT
BRANCH   3  12
HETATM   12  N1  UNK     1      18.309   5.816  31.562  1.00  0.00    -0.382 N 
BRANCH  12  13
HETATM   13  C2  UNK     1      17.825   7.100  32.030  1.00  0.00     0.118 C 
HETATM   14  C9  UNK     1      16.362   7.299  31.691  1.00  0.00     0.026 C 
ENDBRANCH  12  13
BRANCH  12  15
HETATM   15  C3  UNK     1      18.788   5.696  30.199  1.00  0.00     0.118 C 
HETATM   16  C10 UNK     1      20.287   5.905  30.119  1.00  0.00     0.026 C 
ENDBRANCH  12  15
ENDBRANCH   3  12
BRANCH  10  17
HETATM   17  C14 UNK     1      18.389  -1.032  35.410  1.00  0.00     0.161 C 
HETATM   18  O3  UNK     1      17.350  -1.410  35.953  1.00  0.00    -0.293 OA
HETATM   19  C15 UNK     1      19.709  -1.707  35.678  1.00  0.00     0.097 C 
ENDBRANCH  10  17
TORSDOF 4
ENDMDL
MODEL 8
REMARK VINA RESULT:      -6.4      5.046      6.247
REMARK  4 active torsions:
REMARK  status: ('A' for Active; 'I' for Inactive)
REMARK    1  A    between atoms: C1_5  and  N1_4 
REMARK    2  A    between atoms: C2_6  and  N1_4 
REMARK    3  A    between atoms: C3_7  and  N1_4 
REMARK    4  A    between atoms: C12_16  and  C14_18 
ROOT
HETATM    1  O1  UNK     1      19.751  -1.925  32.424  1.00  0.00    -0.274 OA
HETATM    2  O2  UNK     1      20.657  -2.877  30.555  1.00  0.00    -0.259 OA
HETATM    3  C1  UNK     1      18.204   0.156  35.027  1.00  0.00     0.032 A 
HETATM    4  C4  UNK     1      18.800  -0.928  34.387  1.00  0.00     0.067 A 
HETATM    5  C5  UNK     1      18.919   0.357  32.325  1.00  0.00    -0.001 A 
HETATM    6  C6  UNK     1      19.150  -0.811  33.043  1.00  0.00     0.091 A 
HETATM    7  C7  UNK     1      17.966   1.338  34.323  1.00  0.00     0.030 A 
HETATM    8  C8  UNK     1      18.321   1.440  32.975  1.00  0.00     0.016 A 
HETATM    9  C11 UNK     1      19.308   0.412  30.925  1.00  0.00     0.035 A 
HETATM   10  C12 UNK     1      19.879  -0.649  30.342  1.00  0.00     0.086 A 
HETATM   11  C13 UNK     1      20.134  -1.903  31.086  1.00  0.00     0.302 A 
ENDROOT
BRANCH   3  12
HETATM   12  N1  UNK     1      17.843   0.061  36.387  1.00  0.00    -0.382 N 
BRANCH  12  13
HETATM   13  C2  UNK     1      17.517  -1.225  36.971  1.00  0.00     0.118 C 
HETATM   14  C9  UNK     1      18.483  -1.592  38.079  1.00  0.00     0.026 C 
ENDBRANCH  12  13
BRANCH  12  15
HETATM   15  C3  UNK     1      17.806   1.246  37.222  1.00  0.00     0.118 C 
HETATM   16  C10 UNK     1      16.383   1.680  37.506  1.00  0.00     0.026 C 
ENDBRANCH  12  15
ENDBRANCH   3  12
BRANCH  10  17
HETATM   17  C14 UNK     1      20.235  -0.497  28.926  1.00  0.00     0.161 C 
HETATM   18  O3  UNK     1      21.415  -0.405  28.584  1.00  0.00    -0.293 OA
HETATM   19  C15 UNK     1      19.118  -0.470  27.916  1.00  0.00     0.097 C 
ENDBRANCH  10  17
TORSDOF 4
ENDMDL
MODEL 9
REMARK VINA RESULT:      -6.4      2.950      4.349
REMARK  4 active torsions:
REMARK  status: ('A' for Active; 'I' for Inactive)
REMARK    1  A    between atoms: C1_5  and  N1_4 
REMARK    2  A    between atoms: C2_6  and  N1_4 
REMARK    3  A    between atoms: C3_7  and  N1_4 
REMARK    4  A    between atoms: C12_16  and  C14_18 
ROOT
HETATM    1  O1  UNK     1      19.067   7.868  33.584  1.00  0.00    -0.274 OA
HETATM    2  O2  UNK     1      20.763   6.461  32.982  1.00  0.00    -0.259 OA
HETATM    3  C1  UNK     1      16.022   9.884  33.995  1.00  0.00     0.032 A 
HETATM    4  C4  UNK     1      17.288   9.347  34.218  1.00  0.00     0.067 A 
HETATM    5  C5  UNK     1      17.049   7.965  32.231  1.00  0.00    -0.001 A 
HETATM    6  C6  UNK     1      17.784   8.394  33.331  1.00  0.00     0.091 A 
HETATM    7  C7  UNK     1      15.271   9.466  32.894  1.00  0.00     0.030 A 
HETATM    8  C8  UNK     1      15.782   8.509  32.013  1.00  0.00     0.016 A 
HETATM    9  C11 UNK     1      17.627   6.966  31.345  1.00  0.00     0.035 A 
HETATM   10  C12 UNK     1      18.846   6.471  31.590  1.00  0.00     0.086 A 
HETATM   11  C13 UNK     1      19.645   6.912  32.755  1.00  0.00     0.302 A 
ENDROOT
BRANCH   3  12
HETATM   12  N1  UNK     1      15.500  10.851  34.879  1.00  0.00    -0.382 N 
BRANCH  12  13
HETATM   13  C2  UNK     1      14.240  10.620  35.557  1.00  0.00     0.118 C 
HETATM   14  C9  UNK     1      14.000  11.646  36.646  1.00  0.00     0.026 C 
ENDBRANCH  12  13
BRANCH  12  15
HETATM   15  C3  UNK     1      16.224  12.081  35.132  1.00  0.00     0.118 C 
HETATM   16  C10 UNK     1      16.215  12.989  33.919  1.00  0.00     0.026 C 
ENDBRANCH  12  15
ENDBRANCH   3  12
BRANCH  10  17
HETATM   17  C14 UNK     1      19.342   5.468  30.640  1.00  0.00     0.161 C 
HETATM   18  O3  UNK     1      20.139   5.785  29.754  1.00  0.00    -0.293 OA
HETATM   19  C15 UNK     1      18.856   4.050  30.791  1.00  0.00     0.097 C 
ENDBRANCH  10  17
TORSDOF 4
ENDMDL
MODEL 10
REMARK VINA RESULT:      -6.4      4.097      6.820
REMARK  4 active torsions:
REMARK  status: ('A' for Active; 'I' for Inactive)
REMARK    1  A    between atoms: C1_5  and  N1_4 
REMARK    2  A    between atoms: C2_6  and  N1_4 
REMARK    3  A    between atoms: C3_7  and  N1_4 
REMARK    4  A    between atoms: C12_16  and  C14_18 
ROOT
HETATM    1  O1  UNK     1      18.306   1.744  31.937  1.00  0.00    -0.274 OA
HETATM    2  O2  UNK     1      18.173   3.183  30.168  1.00  0.00    -0.259 OA
HETATM    3  C1  UNK     1      18.506  -0.001  35.164  1.00  0.00     0.032 A 
HETATM    4  C4  UNK     1      18.445   0.230  33.792  1.00  0.00     0.067 A 
HETATM    5  C5  UNK     1      18.348   2.625  34.202  1.00  0.00    -0.001 A 
HETATM    6  C6  UNK     1      18.367   1.542  33.330  1.00  0.00     0.091 A 
HETATM    7  C7  UNK     1      18.490   1.074  36.055  1.00  0.00     0.030 A 
HETATM    8  C8  UNK     1      18.410   2.385  35.576  1.00  0.00     0.016 A 
HETATM    9  C11 UNK     1      18.264   3.970  33.652  1.00  0.00     0.035 A 
HETATM   10  C12 UNK     1      18.207   4.155  32.328  1.00  0.00     0.086 A 
HETATM   11  C13 UNK     1      18.225   3.017  31.382  1.00  0.00     0.302 A 
ENDROOT
BRANCH   3  12
HETATM   12  N1  UNK     1      18.586  -1.321  35.655  1.00  0.00    -0.382 N 
BRANCH  12  13
HETATM   13  C2  UNK     1      17.668  -1.781  36.677  1.00  0.00     0.118 C 
HETATM   14  C9  UNK     1      18.247  -1.599  38.066  1.00  0.00     0.026 C 
ENDBRANCH  12  13
BRANCH  12  15
HETATM   15  C3  UNK     1      19.579  -2.239  35.132  1.00  0.00     0.118 C 
HETATM   16  C10 UNK     1      20.925  -2.038  35.797  1.00  0.00     0.026 C 
ENDBRANCH  12  15
ENDBRANCH   3  12
BRANCH  10  17
HETATM   17  C14 UNK     1      18.124   5.547  31.871  1.00  0.00     0.161 C 
HETATM   18  O3  UNK     1      17.073   6.181  31.983  1.00  0.00    -0.293 OA
HETATM   19  C15 UNK     1      19.360   6.170  31.275  1.00  0.00     0.097 C 
ENDBRANCH  10  17
TORSDOF 4
ENDMDL
