MODEL 1
REMARK VINA RESULT:      -7.9      0.000      0.000
REMARK  2 active torsions:
REMARK  status: ('A' for Active; 'I' for Inactive)
REMARK    1  A    between atoms: C11_18  and  S1_1 
REMARK    2  A    between atoms: C5_12  and  S1_1 
ROOT
HETATM    1  O1  UNK     1      15.910   8.461  32.527  1.00  0.00    -0.275 OA
HETATM    2  O2  UNK     1      14.490   6.943  31.575  1.00  0.00    -0.260 OA
HETATM    3  C1  UNK     1      18.086   7.720  33.375  1.00  0.00     0.016 A 
HETATM    4  C2  UNK     1      17.157   8.736  33.129  1.00  0.00     0.091 A 
HETATM    5  C3  UNK     1      19.309   8.104  33.946  1.00  0.00     0.022 A 
HETATM    6  C4  UNK     1      19.569   9.443  34.266  1.00  0.00    -0.061 A 
HETATM    7  C5  UNK     1      17.709   6.346  33.002  1.00  0.00     0.026 A 
HETATM    8  C6  UNK     1      17.400  10.075  33.445  1.00  0.00     0.039 A 
HETATM    9  C7  UNK     1      18.616  10.426  34.020  1.00  0.00     0.009 A 
HETATM   10  C8  UNK     1      16.531   6.115  32.409  1.00  0.00     0.102 A 
HETATM   11  C9  UNK     1      20.879   9.816  34.878  1.00  0.00     0.048 C 
HETATM   12  C10 UNK     1      15.558   7.182  32.128  1.00  0.00     0.289 A 
ENDROOT
BRANCH   7  13
HETATM   13  S1  UNK     1      18.802   5.036  33.325  1.00  0.00    -0.060 SA
BRANCH  13  14
HETATM   14  C11 UNK     1      18.409   4.066  31.902  1.00  0.00     0.165 A 
HETATM   15  S2  UNK     1      18.930   4.467  30.318  1.00  0.00    -0.022 SA
HETATM   16  C12 UNK     1      18.106   3.059  29.789  1.00  0.00     0.188 A 
HETATM   17  N2  UNK     1      17.509   2.379  30.745  1.00  0.00    -0.123 NA
HETATM   18  N3  UNK     1      18.105   2.722  28.475  1.00  0.00    -0.377 N 
HETATM   19  N1  UNK     1      17.686   2.969  31.984  1.00  0.00    -0.133 NA
HETATM   20  H8  UNK     1      18.582   3.285  27.778  1.00  0.00     0.158 HD
HETATM   21  H9  UNK     1      17.626   1.895  28.135  1.00  0.00     0.158 HD
ENDBRANCH  13  14
ENDBRANCH   7  13
TORSDOF 2
ENDMDL
MODEL 2
REMARK VINA RESULT:      -7.6     14.045     16.300
REMARK  2 active torsions:
REMARK  status: ('A' for Active; 'I' for Inactive)
REMARK    1  A    between atoms: C11_18  and  S1_1 
REMARK    2  A    between atoms: C5_12  and  S1_1 
ROOT
HETATM    1  O1  UNK     1      20.468  -6.160  35.879  1.00  0.00    -0.275 OA
HETATM    2  O2  UNK     1      19.888  -4.211  36.923  1.00  0.00    -0.260 OA
HETATM    3  C1  UNK     1      21.776  -7.841  37.090  1.00  0.00     0.016 A 
HETATM    4  C2  UNK     1      21.101  -7.420  35.940  1.00  0.00     0.091 A 
HETATM    5  C3  UNK     1      22.341  -9.125  37.059  1.00  0.00     0.022 A 
HETATM    6  C4  UNK     1      22.242  -9.933  35.918  1.00  0.00    -0.061 A 
HETATM    7  C5  UNK     1      21.823  -6.912  38.232  1.00  0.00     0.026 A 
HETATM    8  C6  UNK     1      20.995  -8.213  34.793  1.00  0.00     0.039 A 
HETATM    9  C7  UNK     1      21.574  -9.476  34.787  1.00  0.00     0.009 A 
HETATM   10  C8  UNK     1      21.194  -5.732  38.158  1.00  0.00     0.102 A 
HETATM   11  C9  UNK     1      22.860 -11.292  35.918  1.00  0.00     0.048 C 
HETATM   12  C10 UNK     1      20.463  -5.294  36.959  1.00  0.00     0.289 A 
ENDROOT
BRANCH   7  13
HETATM   13  S1  UNK     1      22.686  -7.359  39.671  1.00  0.00    -0.060 SA
BRANCH  13  14
HETATM   14  C11 UNK     1      24.270  -6.760  39.172  1.00  0.00     0.165 A 
HETATM   15  S2  UNK     1      25.567  -7.790  38.727  1.00  0.00    -0.022 SA
HETATM   16  C12 UNK     1      26.487  -6.366  38.462  1.00  0.00     0.188 A 
HETATM   17  N2  UNK     1      25.842  -5.244  38.697  1.00  0.00    -0.123 NA
HETATM   18  N3  UNK     1      27.775  -6.454  38.043  1.00  0.00    -0.377 N 
HETATM   19  N1  UNK     1      24.542  -5.474  39.114  1.00  0.00    -0.133 NA
HETATM   20  H8  UNK     1      28.223  -7.349  37.878  1.00  0.00     0.158 HD
HETATM   21  H9  UNK     1      28.341  -5.629  37.879  1.00  0.00     0.158 HD
ENDBRANCH  13  14
ENDBRANCH   7  13
TORSDOF 2
ENDMDL
MODEL 3
REMARK VINA RESULT:      -7.4     23.280     24.081
REMARK  2 active torsions:
REMARK  status: ('A' for Active; 'I' for Inactive)
REMARK    1  A    between atoms: C11_18  and  S1_1 
REMARK    2  A    between atoms: C5_12  and  S1_1 
ROOT
HETATM    1  O1  UNK     1      16.450   6.047   9.842  1.00  0.00    -0.275 OA
HETATM    2  O2  UNK     1      15.555   3.944   9.827  1.00  0.00    -0.260 OA
HETATM    3  C1  UNK     1      14.965   7.995   9.897  1.00  0.00     0.016 A 
HETATM    4  C2  UNK     1      16.250   7.444   9.886  1.00  0.00     0.091 A 
HETATM    5  C3  UNK     1      14.876   9.394   9.977  1.00  0.00     0.022 A 
HETATM    6  C4  UNK     1      16.027  10.191  10.025  1.00  0.00    -0.061 A 
HETATM    7  C5  UNK     1      13.823   7.067   9.839  1.00  0.00     0.026 A 
HETATM    8  C6  UNK     1      17.408   8.225   9.931  1.00  0.00     0.039 A 
HETATM    9  C7  UNK     1      17.290   9.608   9.999  1.00  0.00     0.009 A 
HETATM   10  C8  UNK     1      14.039   5.745   9.823  1.00  0.00     0.102 A 
HETATM   11  C9  UNK     1      15.896  11.676  10.105  1.00  0.00     0.048 C 
HETATM   12  C10 UNK     1      15.388   5.158   9.833  1.00  0.00     0.289 A 
ENDROOT
BRANCH   7  13
HETATM   13  S1  UNK     1      12.204   7.694   9.803  1.00  0.00    -0.060 SA
BRANCH  13  14
HETATM   14  C11 UNK     1      11.793   7.147   8.176  1.00  0.00     0.165 A 
HETATM   15  S2  UNK     1      10.199   6.732   7.699  1.00  0.00    -0.022 SA
HETATM   16  C12 UNK     1      10.849   6.392   6.148  1.00  0.00     0.188 A 
HETATM   17  N2  UNK     1      12.146   6.585   6.041  1.00  0.00    -0.123 NA
HETATM   18  N3  UNK     1      10.039   5.960   5.149  1.00  0.00    -0.377 N 
HETATM   19  N1  UNK     1      12.700   7.028   7.230  1.00  0.00    -0.133 NA
HETATM   20  H8  UNK     1       9.043   5.827   5.287  1.00  0.00     0.158 HD
HETATM   21  H9  UNK     1      10.397   5.751   4.223  1.00  0.00     0.158 HD
ENDBRANCH  13  14
ENDBRANCH   7  13
TORSDOF 2
ENDMDL
MODEL 4
REMARK VINA RESULT:      -7.4      2.662      3.973
REMARK  2 active torsions:
REMARK  status: ('A' for Active; 'I' for Inactive)
REMARK    1  A    between atoms: C11_18  and  S1_1 
REMARK    2  A    between atoms: C5_12  and  S1_1 
ROOT
HETATM    1  O1  UNK     1      20.626   6.989  33.213  1.00  0.00    -0.275 OA
HETATM    2  O2  UNK     1      22.597   6.087  32.486  1.00  0.00    -0.260 OA
HETATM    3  C1  UNK     1      18.532   6.390  32.089  1.00  0.00     0.016 A 
HETATM    4  C2  UNK     1      19.222   7.080  33.091  1.00  0.00     0.091 A 
HETATM    5  C3  UNK     1      17.135   6.520  32.077  1.00  0.00     0.022 A 
HETATM    6  C4  UNK     1      16.474   7.320  33.019  1.00  0.00    -0.061 A 
HETATM    7  C5  UNK     1      19.324   5.580  31.149  1.00  0.00     0.026 A 
HETATM    8  C6  UNK     1      18.579   7.883  34.036  1.00  0.00     0.039 A 
HETATM    9  C7  UNK     1      17.194   8.003  33.994  1.00  0.00     0.009 A 
HETATM   10  C8  UNK     1      20.652   5.490  31.300  1.00  0.00     0.102 A 
HETATM   11  C9  UNK     1      14.987   7.441  32.973  1.00  0.00     0.048 C 
HETATM   12  C10 UNK     1      21.381   6.195  32.366  1.00  0.00     0.289 A 
ENDROOT
BRANCH   7  13
HETATM   13  S1  UNK     1      18.529   4.738  29.855  1.00  0.00    -0.060 SA
BRANCH  13  14
HETATM   14  C11 UNK     1      18.550   3.133  30.593  1.00  0.00     0.165 A 
HETATM   15  S2  UNK     1      19.115   1.733  29.780  1.00  0.00    -0.022 SA
HETATM   16  C12 UNK     1      18.740   0.863  31.211  1.00  0.00     0.188 A 
HETATM   17  N2  UNK     1      18.239   1.594  32.184  1.00  0.00    -0.123 NA
HETATM   18  N3  UNK     1      18.964  -0.474  31.275  1.00  0.00    -0.377 N 
HETATM   19  N1  UNK     1      18.127   2.925  31.822  1.00  0.00    -0.133 NA
HETATM   20  H8  UNK     1      19.354  -0.989  30.492  1.00  0.00     0.158 HD
HETATM   21  H9  UNK     1      18.752  -1.012  32.108  1.00  0.00     0.158 HD
ENDBRANCH  13  14
ENDBRANCH   7  13
TORSDOF 2
ENDMDL
MODEL 5
REMARK VINA RESULT:      -7.4      1.464      1.915
REMARK  2 active torsions:
REMARK  status: ('A' for Active; 'I' for Inactive)
REMARK    1  A    between atoms: C11_18  and  S1_1 
REMARK    2  A    between atoms: C5_12  and  S1_1 
ROOT
HETATM    1  O1  UNK     1      14.520   8.527  32.682  1.00  0.00    -0.275 OA
HETATM    2  O2  UNK     1      13.934   6.537  31.722  1.00  0.00    -0.260 OA
HETATM    3  C1  UNK     1      16.863   8.952  33.258  1.00  0.00     0.016 A 
HETATM    4  C2  UNK     1      15.530   9.370  33.194  1.00  0.00     0.091 A 
HETATM    5  C3  UNK     1      17.794   9.879  33.751  1.00  0.00     0.022 A 
HETATM    6  C4  UNK     1      17.394  11.154  34.173  1.00  0.00    -0.061 A 
HETATM    7  C5  UNK     1      17.175   7.591  32.791  1.00  0.00     0.026 A 
HETATM    8  C6  UNK     1      15.114  10.636  33.613  1.00  0.00     0.039 A 
HETATM    9  C7  UNK     1      16.056  11.530  34.108  1.00  0.00     0.009 A 
HETATM   10  C8  UNK     1      16.203   6.820  32.287  1.00  0.00     0.102 A 
HETATM   11  C9  UNK     1      18.410  12.113  34.698  1.00  0.00     0.048 C 
HETATM   12  C10 UNK     1      14.802   7.261  32.197  1.00  0.00     0.289 A 
ENDROOT
BRANCH   7  13
HETATM   13  S1  UNK     1      18.804   7.000  32.888  1.00  0.00    -0.060 SA
BRANCH  13  14
HETATM   14  C11 UNK     1      18.471   5.349  32.357  1.00  0.00     0.165 A 
HETATM   15  S2  UNK     1      18.805   4.786  30.772  1.00  0.00    -0.022 SA
HETATM   16  C12 UNK     1      18.182   3.270  31.278  1.00  0.00     0.188 A 
HETATM   17  N2  UNK     1      17.773   3.232  32.528  1.00  0.00    -0.123 NA
HETATM   18  N3  UNK     1      18.141   2.226  30.411  1.00  0.00    -0.377 N 
HETATM   19  N1  UNK     1      17.942   4.451  33.161  1.00  0.00    -0.133 NA
HETATM   20  H8  UNK     1      18.471   2.311  29.455  1.00  0.00     0.158 HD
HETATM   21  H9  UNK     1      17.778   1.319  30.684  1.00  0.00     0.158 HD
ENDBRANCH  13  14
ENDBRANCH   7  13
TORSDOF 2
ENDMDL
MODEL 6
REMARK VINA RESULT:      -7.4      4.161      7.663
REMARK  2 active torsions:
REMARK  status: ('A' for Active; 'I' for Inactive)
REMARK    1  A    between atoms: C11_18  and  S1_1 
REMARK    2  A    between atoms: C5_12  and  S1_1 
ROOT
HETATM    1  O1  UNK     1      18.446   0.045  33.870  1.00  0.00    -0.275 OA
HETATM    2  O2  UNK     1      17.542   1.426  35.452  1.00  0.00    -0.260 OA
HETATM    3  C1  UNK     1      19.056   0.952  31.677  1.00  0.00     0.016 A 
HETATM    4  C2  UNK     1      18.987  -0.117  32.576  1.00  0.00     0.091 A 
HETATM    5  C3  UNK     1      19.644   0.692  30.429  1.00  0.00     0.022 A 
HETATM    6  C4  UNK     1      20.119  -0.585  30.104  1.00  0.00    -0.061 A 
HETATM    7  C5  UNK     1      18.525   2.251  32.119  1.00  0.00     0.026 A 
HETATM    8  C6  UNK     1      19.454  -1.397  32.267  1.00  0.00     0.039 A 
HETATM    9  C7  UNK     1      20.021  -1.628  31.019  1.00  0.00     0.009 A 
HETATM   10  C8  UNK     1      18.039   2.386  33.360  1.00  0.00     0.102 A 
HETATM   11  C9  UNK     1      20.733  -0.827  28.765  1.00  0.00     0.048 C 
HETATM   12  C10 UNK     1      17.984   1.271  34.319  1.00  0.00     0.289 A 
ENDROOT
BRANCH   7  13
HETATM   13  S1  UNK     1      18.541   3.604  31.031  1.00  0.00    -0.060 SA
BRANCH  13  14
HETATM   14  C11 UNK     1      18.197   4.854  32.229  1.00  0.00     0.165 A 
HETATM   15  S2  UNK     1      19.392   5.518  33.265  1.00  0.00    -0.022 SA
HETATM   16  C12 UNK     1      18.148   6.499  33.921  1.00  0.00     0.188 A 
HETATM   17  N2  UNK     1      16.961   6.315  33.384  1.00  0.00    -0.123 NA
HETATM   18  N3  UNK     1      18.426   7.380  34.916  1.00  0.00    -0.377 N 
HETATM   19  N1  UNK     1      16.989   5.350  32.392  1.00  0.00    -0.133 NA
HETATM   20  H8  UNK     1      19.363   7.480  35.294  1.00  0.00     0.158 HD
HETATM   21  H9  UNK     1      17.710   7.972  35.322  1.00  0.00     0.158 HD
ENDBRANCH  13  14
ENDBRANCH   7  13
TORSDOF 2
ENDMDL
MODEL 7
REMARK VINA RESULT:      -7.3     17.580     19.308
REMARK  2 active torsions:
REMARK  status: ('A' for Active; 'I' for Inactive)
REMARK    1  A    between atoms: C11_18  and  S1_1 
REMARK    2  A    between atoms: C5_12  and  S1_1 
ROOT
HETATM    1  O1  UNK     1      31.201  -4.797  38.998  1.00  0.00    -0.275 OA
HETATM    2  O2  UNK     1      29.449  -3.651  39.916  1.00  0.00    -0.260 OA
HETATM    3  C1  UNK     1      30.789  -6.389  37.182  1.00  0.00     0.016 A 
HETATM    4  C2  UNK     1      31.668  -5.725  38.043  1.00  0.00     0.091 A 
HETATM    5  C3  UNK     1      31.359  -7.265  36.246  1.00  0.00     0.022 A 
HETATM    6  C4  UNK     1      32.744  -7.472  36.198  1.00  0.00    -0.061 A 
HETATM    7  C5  UNK     1      29.351  -6.100  37.319  1.00  0.00     0.026 A 
HETATM    8  C6  UNK     1      33.051  -5.922  38.010  1.00  0.00     0.039 A 
HETATM    9  C7  UNK     1      33.588  -6.805  37.080  1.00  0.00     0.009 A 
HETATM   10  C8  UNK     1      28.935  -5.197  38.216  1.00  0.00     0.102 A 
HETATM   11  C9  UNK     1      33.317  -8.416  35.193  1.00  0.00     0.048 C 
HETATM   12  C10 UNK     1      29.857  -4.480  39.110  1.00  0.00     0.289 A 
ENDROOT
BRANCH   7  13
HETATM   13  S1  UNK     1      28.207  -6.927  36.309  1.00  0.00    -0.060 SA
BRANCH  13  14
HETATM   14  C11 UNK     1      27.418  -7.857  37.586  1.00  0.00     0.165 A 
HETATM   15  S2  UNK     1      28.155  -9.194  38.367  1.00  0.00    -0.022 SA
HETATM   16  C12 UNK     1      26.719  -9.326  39.296  1.00  0.00     0.188 A 
HETATM   17  N2  UNK     1      25.797  -8.430  39.015  1.00  0.00    -0.123 NA
HETATM   18  N3  UNK     1      26.600 -10.299  40.234  1.00  0.00    -0.377 N 
HETATM   19  N1  UNK     1      26.206  -7.568  38.011  1.00  0.00    -0.133 NA
HETATM   20  H8  UNK     1      27.345 -10.966  40.410  1.00  0.00     0.158 HD
HETATM   21  H9  UNK     1      25.762 -10.400  40.797  1.00  0.00     0.158 HD
ENDBRANCH  13  14
ENDBRANCH   7  13
TORSDOF 2
ENDMDL
MODEL 8
REMARK VINA RESULT:      -7.3     18.089     19.332
REMARK  2 active torsions:
REMARK  status: ('A' for Active; 'I' for Inactive)
REMARK    1  A    between atoms: C11_18  and  S1_1 
REMARK    2  A    between atoms: C5_12  and  S1_1 
ROOT
HETATM    1  O1  UNK     1      28.245  -5.740  39.537  1.00  0.00    -0.275 OA
HETATM    2  O2  UNK     1      29.584  -3.910  39.832  1.00  0.00    -0.260 OA
HETATM    3  C1  UNK     1      28.355  -6.997  37.437  1.00  0.00     0.016 A 
HETATM    4  C2  UNK     1      27.834  -6.816  38.722  1.00  0.00     0.091 A 
HETATM    5  C3  UNK     1      27.906  -8.118  36.723  1.00  0.00     0.022 A 
HETATM    6  C4  UNK     1      26.966  -8.999  37.274  1.00  0.00    -0.061 A 
HETATM    7  C5  UNK     1      29.335  -6.010  36.953  1.00  0.00     0.026 A 
HETATM    8  C6  UNK     1      26.895  -7.684  39.285  1.00  0.00     0.039 A 
HETATM    9  C7  UNK     1      26.459  -8.781  38.551  1.00  0.00     0.009 A 
HETATM   10  C8  UNK     1      29.728  -5.011  37.755  1.00  0.00     0.102 A 
HETATM   11  C9  UNK     1      26.506 -10.179  36.484  1.00  0.00     0.048 C 
HETATM   12  C10 UNK     1      29.199  -4.829  39.116  1.00  0.00     0.289 A 
ENDROOT
BRANCH   7  13
HETATM   13  S1  UNK     1      29.984  -6.155  35.349  1.00  0.00    -0.060 SA
BRANCH  13  14
HETATM   14  C11 UNK     1      31.544  -6.844  35.804  1.00  0.00     0.165 A 
HETATM   15  S2  UNK     1      33.021  -5.980  35.692  1.00  0.00    -0.022 SA
HETATM   16  C12 UNK     1      33.786  -7.390  36.301  1.00  0.00     0.188 A 
HETATM   17  N2  UNK     1      32.972  -8.392  36.552  1.00  0.00    -0.123 NA
HETATM   18  N3  UNK     1      35.130  -7.410  36.488  1.00  0.00    -0.377 N 
HETATM   19  N1  UNK     1      31.657  -8.073  36.261  1.00  0.00    -0.133 NA
HETATM   20  H8  UNK     1      35.712  -6.605  36.276  1.00  0.00     0.158 HD
HETATM   21  H9  UNK     1      35.608  -8.230  36.846  1.00  0.00     0.158 HD
ENDBRANCH  13  14
ENDBRANCH   7  13
TORSDOF 2
ENDMDL
MODEL 9
REMARK VINA RESULT:      -7.2     22.945     24.737
REMARK  2 active torsions:
REMARK  status: ('A' for Active; 'I' for Inactive)
REMARK    1  A    between atoms: C11_18  and  S1_1 
REMARK    2  A    between atoms: C5_12  and  S1_1 
ROOT
HETATM    1  O1  UNK     1      10.208   6.380   6.820  1.00  0.00    -0.275 OA
HETATM    2  O2  UNK     1      12.179   6.214   5.673  1.00  0.00    -0.260 OA
HETATM    3  C1  UNK     1      10.080   7.808   8.807  1.00  0.00     0.016 A 
HETATM    4  C2  UNK     1       9.477   6.944   7.888  1.00  0.00     0.091 A 
HETATM    5  C3  UNK     1       9.256   8.341   9.810  1.00  0.00     0.022 A 
HETATM    6  C4  UNK     1       7.899   8.003   9.889  1.00  0.00    -0.061 A 
HETATM    7  C5  UNK     1      11.514   8.095   8.635  1.00  0.00     0.026 A 
HETATM    8  C6  UNK     1       8.126   6.595   7.953  1.00  0.00     0.039 A 
HETATM    9  C7  UNK     1       7.336   7.129   8.964  1.00  0.00     0.009 A 
HETATM   10  C8  UNK     1      12.181   7.567   7.600  1.00  0.00     0.102 A 
HETATM   11  C9  UNK     1       7.053   8.584  10.972  1.00  0.00     0.048 C 
HETATM   12  C10 UNK     1      11.546   6.675   6.617  1.00  0.00     0.289 A 
ENDROOT
BRANCH   7  13
HETATM   13  S1  UNK     1      12.329   9.124   9.772  1.00  0.00    -0.060 SA
BRANCH  13  14
HETATM   14  C11 UNK     1      13.729   8.083  10.046  1.00  0.00     0.165 A 
HETATM   15  S2  UNK     1      15.331   8.535   9.634  1.00  0.00    -0.022 SA
HETATM   16  C12 UNK     1      15.821   7.008  10.245  1.00  0.00     0.188 A 
HETATM   17  N2  UNK     1      14.842   6.260  10.706  1.00  0.00    -0.123 NA
HETATM   18  N3  UNK     1      17.132   6.655  10.227  1.00  0.00    -0.377 N 
HETATM   19  N1  UNK     1      13.615   6.890  10.590  1.00  0.00    -0.133 NA
HETATM   20  H8  UNK     1      17.847   7.273   9.858  1.00  0.00     0.158 HD
HETATM   21  H9  UNK     1      17.449   5.759  10.582  1.00  0.00     0.158 HD
ENDBRANCH  13  14
ENDBRANCH   7  13
TORSDOF 2
ENDMDL
MODEL 10
REMARK VINA RESULT:      -7.2     13.968     16.089
REMARK  2 active torsions:
REMARK  status: ('A' for Active; 'I' for Inactive)
REMARK    1  A    between atoms: C11_18  and  S1_1 
REMARK    2  A    between atoms: C5_12  and  S1_1 
ROOT
HETATM    1  O1  UNK     1      21.359  -8.879  34.955  1.00  0.00    -0.275 OA
HETATM    2  O2  UNK     1      22.504 -10.853  35.096  1.00  0.00    -0.260 OA
HETATM    3  C1  UNK     1      21.312  -7.366  36.882  1.00  0.00     0.016 A 
HETATM    4  C2  UNK     1      20.964  -7.667  35.561  1.00  0.00     0.091 A 
HETATM    5  C3  UNK     1      20.898  -6.119  37.377  1.00  0.00     0.022 A 
HETATM    6  C4  UNK     1      20.157  -5.234  36.583  1.00  0.00    -0.061 A 
HETATM    7  C5  UNK     1      22.090  -8.368  37.628  1.00  0.00     0.026 A 
HETATM    8  C6  UNK     1      20.223  -6.796  34.757  1.00  0.00     0.039 A 
HETATM    9  C7  UNK     1      19.817  -5.573  35.278  1.00  0.00     0.009 A 
HETATM   10  C8  UNK     1      22.475  -9.499  37.023  1.00  0.00     0.102 A 
HETATM   11  C9  UNK     1      19.728  -3.919  37.144  1.00  0.00     0.048 C 
HETATM   12  C10 UNK     1      22.130  -9.813  35.627  1.00  0.00     0.289 A 
ENDROOT
BRANCH   7  13
HETATM   13  S1  UNK     1      22.513  -8.071  39.286  1.00  0.00    -0.060 SA
BRANCH  13  14
HETATM   14  C11 UNK     1      24.039  -7.238  38.977  1.00  0.00     0.165 A 
HETATM   15  S2  UNK     1      25.523  -8.059  38.724  1.00  0.00    -0.022 SA
HETATM   16  C12 UNK     1      26.243  -6.512  38.544  1.00  0.00     0.188 A 
HETATM   17  N2  UNK     1      25.411  -5.500  38.670  1.00  0.00    -0.123 NA
HETATM   18  N3  UNK     1      27.572  -6.403  38.293  1.00  0.00    -0.377 N 
HETATM   19  N1  UNK     1      24.118  -5.925  38.924  1.00  0.00    -0.133 NA
HETATM   20  H8  UNK     1      28.168  -7.219  38.206  1.00  0.00     0.158 HD
HETATM   21  H9  UNK     1      28.023  -5.501  38.182  1.00  0.00     0.158 HD
ENDBRANCH  13  14
ENDBRANCH   7  13
TORSDOF 2
ENDMDL
