MODEL 1
REMARK VINA RESULT:      -9.4      0.000      0.000
REMARK  4 active torsions:
REMARK  status: ('A' for Active; 'I' for Inactive)
REMARK    1  A    between atoms: C17_24  and  N1_6 
REMARK    2  A    between atoms: C4_11  and  N1_6 
REMARK    3  A    between atoms: C17_24  and  N2_7 
REMARK    4  A    between atoms: C8_15  and  N2_7 
ROOT
HETATM    1  N1  UNK     1      18.975  -5.034  36.031  1.00  0.00    -0.333 N 
HETATM    2  H7  UNK     1      18.380  -4.932  35.211  1.00  0.00     0.168 HD
ENDROOT
BRANCH   1   3
HETATM    3  C17 UNK     1      19.183  -3.827  36.713  1.00  0.00     0.176 C 
HETATM    4  S1  UNK     1      20.737  -3.522  37.288  1.00  0.00    -0.041 SA
BRANCH   3   5
HETATM    5  N2  UNK     1      18.107  -2.958  36.739  1.00  0.00    -0.333 N 
HETATM    6  H9  UNK     1      17.222  -3.399  36.513  1.00  0.00     0.168 HD
BRANCH   5   7
HETATM    7  C8  UNK     1      18.037  -1.558  36.533  1.00  0.00     0.037 A 
HETATM    8  C11 UNK     1      18.438  -1.037  35.312  1.00  0.00     0.069 A 
HETATM    9  C7  UNK     1      18.351   0.331  35.158  1.00  0.00     0.107 A 
HETATM   10  O2  UNK     1      18.694   1.034  34.045  1.00  0.00    -0.323 OA
HETATM   11  C9  UNK     1      17.889   1.145  36.168  1.00  0.00     0.105 A 
HETATM   12  C16 UNK     1      18.396   2.381  34.465  1.00  0.00     0.352 A 
HETATM   13  O3  UNK     1      17.886   2.459  35.812  1.00  0.00    -0.323 OA
HETATM   14  C13 UNK     1      17.489   0.636  37.386  1.00  0.00     0.042 A 
HETATM   15  C12 UNK     1      17.567  -0.747  37.567  1.00  0.00     0.032 A 
ENDBRANCH   5   7
ENDBRANCH   3   5
ENDBRANCH   1   3
BRANCH   1  16
HETATM   16  C4  UNK     1      19.254  -6.357  36.371  1.00  0.00     0.036 A 
HETATM   17  C10 UNK     1      18.615  -6.946  37.462  1.00  0.00     0.030 A 
HETATM   18  C6  UNK     1      18.890  -8.274  37.809  1.00  0.00     0.017 A 
HETATM   19  C1  UNK     1      19.809  -9.032  37.072  1.00  0.00     0.004 A 
HETATM   20  C2  UNK     1      20.433  -8.416  35.987  1.00  0.00     0.092 A 
HETATM   21  C3  UNK     1      20.148 -10.429  37.379  1.00  0.00    -0.043 A 
HETATM   22  O1  UNK     1      21.369  -9.110  35.195  1.00  0.00    -0.275 OA
HETATM   23  C5  UNK     1      20.169  -7.094  35.626  1.00  0.00     0.067 A 
HETATM   24  C18 UNK     1      21.709 -10.427  35.460  1.00  0.00     0.288 A 
HETATM   25  C14 UNK     1      21.042 -11.064  36.609  1.00  0.00     0.090 A 
HETATM   26  O4  UNK     1      22.522 -11.041  34.778  1.00  0.00    -0.260 OA
HETATM   27  C15 UNK     1      19.494 -11.120  38.540  1.00  0.00     0.049 C 
ENDBRANCH   1  16
TORSDOF 4
ENDMDL
MODEL 2
REMARK VINA RESULT:      -9.4      1.383      2.039
REMARK  4 active torsions:
REMARK  status: ('A' for Active; 'I' for Inactive)
REMARK    1  A    between atoms: C17_24  and  N1_6 
REMARK    2  A    between atoms: C4_11  and  N1_6 
REMARK    3  A    between atoms: C17_24  and  N2_7 
REMARK    4  A    between atoms: C8_15  and  N2_7 
ROOT
HETATM    1  N1  UNK     1      18.398  -5.014  36.391  1.00  0.00    -0.333 N 
HETATM    2  H7  UNK     1      17.394  -5.040  36.220  1.00  0.00     0.168 HD
ENDROOT
BRANCH   1   3
HETATM    3  C17 UNK     1      18.847  -3.769  36.850  1.00  0.00     0.176 C 
HETATM    4  S1  UNK     1      20.500  -3.596  37.127  1.00  0.00    -0.041 SA
BRANCH   3   5
HETATM    5  N2  UNK     1      17.889  -2.772  36.917  1.00  0.00    -0.333 N 
HETATM    6  H9  UNK     1      16.937  -3.121  36.914  1.00  0.00     0.168 HD
BRANCH   5   7
HETATM    7  C8  UNK     1      17.928  -1.416  36.508  1.00  0.00     0.037 A 
HETATM    8  C11 UNK     1      18.046  -1.124  35.157  1.00  0.00     0.069 A 
HETATM    9  C7  UNK     1      18.079   0.209  34.807  1.00  0.00     0.107 A 
HETATM   10  O2  UNK     1      18.191   0.702  33.544  1.00  0.00    -0.323 OA
HETATM   11  C9  UNK     1      17.999   1.208  35.752  1.00  0.00     0.105 A 
HETATM   12  C16 UNK     1      18.172   2.121  33.798  1.00  0.00     0.352 A 
HETATM   13  O3  UNK     1      18.052   2.450  35.197  1.00  0.00    -0.323 OA
HETATM   14  C13 UNK     1      17.883   0.927  37.097  1.00  0.00     0.042 A 
HETATM   15  C12 UNK     1      17.847  -0.416  37.478  1.00  0.00     0.032 A 
ENDBRANCH   5   7
ENDBRANCH   3   5
ENDBRANCH   1   3
BRANCH   1  16
HETATM   16  C4  UNK     1      19.019  -6.261  36.321  1.00  0.00     0.036 A 
HETATM   17  C10 UNK     1      19.963  -6.516  35.327  1.00  0.00     0.030 A 
HETATM   18  C6  UNK     1      20.590  -7.765  35.251  1.00  0.00     0.017 A 
HETATM   19  C1  UNK     1      20.281  -8.779  36.168  1.00  0.00     0.004 A 
HETATM   20  C2  UNK     1      19.332  -8.495  37.151  1.00  0.00     0.092 A 
HETATM   21  C3  UNK     1      20.898 -10.113  36.148  1.00  0.00    -0.043 A 
HETATM   22  O1  UNK     1      18.967  -9.460  38.110  1.00  0.00    -0.275 OA
HETATM   23  C5  UNK     1      18.699  -7.254  37.241  1.00  0.00     0.067 A 
HETATM   24  C18 UNK     1      19.530 -10.727  38.117  1.00  0.00     0.288 A 
HETATM   25  C14 UNK     1      20.531 -11.011  37.073  1.00  0.00     0.090 A 
HETATM   26  O4  UNK     1      19.220 -11.574  38.946  1.00  0.00    -0.260 OA
HETATM   27  C15 UNK     1      21.922 -10.449  35.103  1.00  0.00     0.049 C 
ENDBRANCH   1  16
TORSDOF 4
ENDMDL
MODEL 3
REMARK VINA RESULT:      -9.2      7.177     12.467
REMARK  4 active torsions:
REMARK  status: ('A' for Active; 'I' for Inactive)
REMARK    1  A    between atoms: C17_24  and  N1_6 
REMARK    2  A    between atoms: C4_11  and  N1_6 
REMARK    3  A    between atoms: C17_24  and  N2_7 
REMARK    4  A    between atoms: C8_15  and  N2_7 
ROOT
HETATM    1  N1  UNK     1      19.036   3.749  29.792  1.00  0.00    -0.333 N 
HETATM    2  H7  UNK     1      19.434   4.065  28.910  1.00  0.00     0.168 HD
ENDROOT
BRANCH   1   3
HETATM    3  C17 UNK     1      18.814   2.366  29.831  1.00  0.00     0.176 C 
HETATM    4  S1  UNK     1      17.868   1.699  28.606  1.00  0.00    -0.041 SA
BRANCH   3   5
HETATM    5  N2  UNK     1      19.499   1.675  30.815  1.00  0.00    -0.333 N 
HETATM    6  H9  UNK     1      20.410   1.342  30.520  1.00  0.00     0.168 HD
BRANCH   5   7
HETATM    7  C8  UNK     1      19.030   0.933  31.929  1.00  0.00     0.037 A 
HETATM    8  C11 UNK     1      18.464   1.611  32.997  1.00  0.00     0.069 A 
HETATM    9  C7  UNK     1      18.021   0.847  34.057  1.00  0.00     0.107 A 
HETATM   10  O2  UNK     1      17.442   1.318  35.195  1.00  0.00    -0.323 OA
HETATM   11  C9  UNK     1      18.135  -0.525  34.058  1.00  0.00     0.105 A 
HETATM   12  C16 UNK     1      17.201   0.089  35.911  1.00  0.00     0.352 A 
HETATM   13  O3  UNK     1      17.640  -1.084  35.196  1.00  0.00    -0.323 OA
HETATM   14  C13 UNK     1      18.697  -1.208  32.999  1.00  0.00     0.042 A 
HETATM   15  C12 UNK     1      19.153  -0.457  31.913  1.00  0.00     0.032 A 
ENDBRANCH   5   7
ENDBRANCH   3   5
ENDBRANCH   1   3
BRANCH   1  16
HETATM   16  C4  UNK     1      19.009   4.726  30.787  1.00  0.00     0.036 A 
HETATM   17  C10 UNK     1      20.175   5.410  31.125  1.00  0.00     0.030 A 
HETATM   18  C6  UNK     1      20.155   6.392  32.123  1.00  0.00     0.017 A 
HETATM   19  C1  UNK     1      18.968   6.702  32.799  1.00  0.00     0.004 A 
HETATM   20  C2  UNK     1      17.817   6.000  32.439  1.00  0.00     0.092 A 
HETATM   21  C3  UNK     1      18.872   7.718  33.856  1.00  0.00    -0.043 A 
HETATM   22  O1  UNK     1      16.583   6.254  33.071  1.00  0.00    -0.275 OA
HETATM   23  C5  UNK     1      17.819   5.020  31.446  1.00  0.00     0.067 A 
HETATM   24  C18 UNK     1      16.462   7.205  34.072  1.00  0.00     0.288 A 
HETATM   25  C14 UNK     1      17.686   7.938  34.440  1.00  0.00     0.090 A 
HETATM   26  O4  UNK     1      15.394   7.434  34.628  1.00  0.00    -0.260 OA
HETATM   27  C15 UNK     1      20.093   8.490  34.265  1.00  0.00     0.049 C 
ENDBRANCH   1  16
TORSDOF 4
ENDMDL
MODEL 4
REMARK VINA RESULT:      -9.2      9.192     14.774
REMARK  4 active torsions:
REMARK  status: ('A' for Active; 'I' for Inactive)
REMARK    1  A    between atoms: C17_24  and  N1_6 
REMARK    2  A    between atoms: C4_11  and  N1_6 
REMARK    3  A    between atoms: C17_24  and  N2_7 
REMARK    4  A    between atoms: C8_15  and  N2_7 
ROOT
HETATM    1  N1  UNK     1      17.977   5.387  32.848  1.00  0.00    -0.333 N 
HETATM    2  H7  UNK     1      17.734   4.736  33.592  1.00  0.00     0.168 HD
ENDROOT
BRANCH   1   3
HETATM    3  C17 UNK     1      18.366   4.749  31.663  1.00  0.00     0.176 C 
HETATM    4  S1  UNK     1      19.382   5.600  30.623  1.00  0.00    -0.041 SA
BRANCH   3   5
HETATM    5  N2  UNK     1      17.965   3.431  31.530  1.00  0.00    -0.333 N 
HETATM    6  H9  UNK     1      17.598   3.029  32.386  1.00  0.00     0.168 HD
BRANCH   5   7
HETATM    7  C8  UNK     1      18.391   2.414  30.640  1.00  0.00     0.037 A 
HETATM    8  C11 UNK     1      19.327   1.489  31.074  1.00  0.00     0.069 A 
HETATM    9  C7  UNK     1      19.710   0.517  30.173  1.00  0.00     0.107 A 
HETATM   10  O2  UNK     1      20.612  -0.475  30.402  1.00  0.00    -0.323 OA
HETATM   11  C9  UNK     1      19.189   0.466  28.899  1.00  0.00     0.105 A 
HETATM   12  C16 UNK     1      20.600  -1.158  29.132  1.00  0.00     0.352 A 
HETATM   13  O3  UNK     1      19.700  -0.566  28.173  1.00  0.00    -0.323 OA
HETATM   14  C13 UNK     1      18.257   1.383  28.458  1.00  0.00     0.042 A 
HETATM   15  C12 UNK     1      17.853   2.377  29.352  1.00  0.00     0.032 A 
ENDBRANCH   5   7
ENDBRANCH   3   5
ENDBRANCH   1   3
BRANCH   1  16
HETATM   16  C4  UNK     1      17.665   6.717  33.131  1.00  0.00     0.036 A 
HETATM   17  C10 UNK     1      18.658   7.585  33.584  1.00  0.00     0.030 A 
HETATM   18  C6  UNK     1      18.352   8.921  33.870  1.00  0.00     0.017 A 
HETATM   19  C1  UNK     1      17.049   9.408  33.709  1.00  0.00     0.004 A 
HETATM   20  C2  UNK     1      16.076   8.516  33.255  1.00  0.00     0.092 A 
HETATM   21  C3  UNK     1      16.655  10.796  33.990  1.00  0.00    -0.043 A 
HETATM   22  O1  UNK     1      14.742   8.928  33.066  1.00  0.00    -0.275 OA
HETATM   23  C5  UNK     1      16.365   7.182  32.964  1.00  0.00     0.067 A 
HETATM   24  C18 UNK     1      14.341  10.230  33.323  1.00  0.00     0.288 A 
HETATM   25  C14 UNK     1      15.379  11.159  33.802  1.00  0.00     0.090 A 
HETATM   26  O4  UNK     1      13.183  10.599  33.163  1.00  0.00    -0.260 OA
HETATM   27  C15 UNK     1      17.678  11.779  34.480  1.00  0.00     0.049 C 
ENDBRANCH   1  16
TORSDOF 4
ENDMDL
MODEL 5
REMARK VINA RESULT:      -9.1      7.489     10.338
REMARK  4 active torsions:
REMARK  status: ('A' for Active; 'I' for Inactive)
REMARK    1  A    between atoms: C17_24  and  N1_6 
REMARK    2  A    between atoms: C4_11  and  N1_6 
REMARK    3  A    between atoms: C17_24  and  N2_7 
REMARK    4  A    between atoms: C8_15  and  N2_7 
ROOT
HETATM    1  N1  UNK     1      17.637   4.202  31.850  1.00  0.00    -0.333 N 
HETATM    2  H7  UNK     1      16.621   4.175  31.903  1.00  0.00     0.168 HD
ENDROOT
BRANCH   1   3
HETATM    3  C17 UNK     1      18.188   5.355  32.424  1.00  0.00     0.176 C 
HETATM    4  S1  UNK     1      19.530   6.034  31.663  1.00  0.00    -0.041 SA
BRANCH   3   5
HETATM    5  N2  UNK     1      17.493   5.882  33.498  1.00  0.00    -0.333 N 
HETATM    6  H9  UNK     1      17.364   5.227  34.262  1.00  0.00     0.168 HD
BRANCH   5   7
HETATM    7  C8  UNK     1      16.536   6.925  33.565  1.00  0.00     0.037 A 
HETATM    8  C11 UNK     1      16.628   7.858  34.587  1.00  0.00     0.069 A 
HETATM    9  C7  UNK     1      15.674   8.855  34.610  1.00  0.00     0.107 A 
HETATM   10  O2  UNK     1      15.589   9.859  35.524  1.00  0.00    -0.323 OA
HETATM   11  C9  UNK     1      14.675   8.923  33.665  1.00  0.00     0.105 A 
HETATM   12  C16 UNK     1      14.426  10.567  35.049  1.00  0.00     0.352 A 
HETATM   13  O3  UNK     1      13.840   9.979  33.870  1.00  0.00    -0.323 OA
HETATM   14  C13 UNK     1      14.576   7.999  32.645  1.00  0.00     0.042 A 
HETATM   15  C12 UNK     1      15.530   6.979  32.600  1.00  0.00     0.032 A 
ENDBRANCH   5   7
ENDBRANCH   3   5
ENDBRANCH   1   3
BRANCH   1  16
HETATM   16  C4  UNK     1      18.216   3.011  31.413  1.00  0.00     0.036 A 
HETATM   17  C10 UNK     1      18.573   2.858  30.074  1.00  0.00     0.030 A 
HETATM   18  C6  UNK     1      19.154   1.665  29.628  1.00  0.00     0.017 A 
HETATM   19  C1  UNK     1      19.387   0.606  30.516  1.00  0.00     0.004 A 
HETATM   20  C2  UNK     1      19.019   0.788  31.849  1.00  0.00     0.092 A 
HETATM   21  C3  UNK     1      19.991  -0.673  30.119  1.00  0.00    -0.043 A 
HETATM   22  O1  UNK     1      19.220  -0.229  32.805  1.00  0.00    -0.275 OA
HETATM   23  C5  UNK     1      18.440   1.971  32.310  1.00  0.00     0.067 A 
HETATM   24  C18 UNK     1      19.787  -1.446  32.461  1.00  0.00     0.288 A 
HETATM   25  C14 UNK     1      20.170  -1.622  31.049  1.00  0.00     0.090 A 
HETATM   26  O4  UNK     1      19.967  -2.337  33.283  1.00  0.00    -0.260 OA
HETATM   27  C15 UNK     1      20.397  -0.899  28.692  1.00  0.00     0.049 C 
ENDBRANCH   1  16
TORSDOF 4
ENDMDL
MODEL 6
REMARK VINA RESULT:      -9.1      9.095     14.707
REMARK  4 active torsions:
REMARK  status: ('A' for Active; 'I' for Inactive)
REMARK    1  A    between atoms: C17_24  and  N1_6 
REMARK    2  A    between atoms: C4_11  and  N1_6 
REMARK    3  A    between atoms: C17_24  and  N2_7 
REMARK    4  A    between atoms: C8_15  and  N2_7 
ROOT
HETATM    1  N1  UNK     1      18.435   5.547  32.581  1.00  0.00    -0.333 N 
HETATM    2  H7  UNK     1      18.787   4.994  33.360  1.00  0.00     0.168 HD
ENDROOT
BRANCH   1   3
HETATM    3  C17 UNK     1      18.568   4.901  31.344  1.00  0.00     0.176 C 
HETATM    4  S1  UNK     1      19.434   5.704  30.142  1.00  0.00    -0.041 SA
BRANCH   3   5
HETATM    5  N2  UNK     1      18.069   3.612  31.282  1.00  0.00    -0.333 N 
HETATM    6  H9  UNK     1      17.616   3.309  32.137  1.00  0.00     0.168 HD
BRANCH   5   7
HETATM    7  C8  UNK     1      18.465   2.498  30.501  1.00  0.00     0.037 A 
HETATM    8  C11 UNK     1      19.348   1.577  31.043  1.00  0.00     0.069 A 
HETATM    9  C7  UNK     1      19.704   0.509  30.245  1.00  0.00     0.107 A 
HETATM   10  O2  UNK     1      20.554  -0.497  30.589  1.00  0.00    -0.323 OA
HETATM   11  C9  UNK     1      19.207   0.361  28.970  1.00  0.00     0.105 A 
HETATM   12  C16 UNK     1      20.536  -1.295  29.388  1.00  0.00     0.352 A 
HETATM   13  O3  UNK     1      19.685  -0.757  28.356  1.00  0.00    -0.323 OA
HETATM   14  C13 UNK     1      18.329   1.272  28.422  1.00  0.00     0.042 A 
HETATM   15  C12 UNK     1      17.953   2.363  29.210  1.00  0.00     0.032 A 
ENDBRANCH   5   7
ENDBRANCH   3   5
ENDBRANCH   1   3
BRANCH   1  16
HETATM   16  C4  UNK     1      17.738   6.692  32.964  1.00  0.00     0.036 A 
HETATM   17  C10 UNK     1      16.360   6.633  33.172  1.00  0.00     0.030 A 
HETATM   18  C6  UNK     1      15.654   7.779  33.556  1.00  0.00     0.017 A 
HETATM   19  C1  UNK     1      16.315   9.001  33.737  1.00  0.00     0.004 A 
HETATM   20  C2  UNK     1      17.693   9.029  33.522  1.00  0.00     0.092 A 
HETATM   21  C3  UNK     1      15.640  10.243  34.139  1.00  0.00    -0.043 A 
HETATM   22  O1  UNK     1      18.431  10.219  33.683  1.00  0.00    -0.275 OA
HETATM   23  C5  UNK     1      18.412   7.896  33.139  1.00  0.00     0.067 A 
HETATM   24  C18 UNK     1      17.822  11.406  34.060  1.00  0.00     0.288 A 
HETATM   25  C14 UNK     1      16.367  11.360  34.285  1.00  0.00     0.090 A 
HETATM   26  O4  UNK     1      18.454  12.446  34.203  1.00  0.00    -0.260 OA
HETATM   27  C15 UNK     1      14.158  10.245  34.378  1.00  0.00     0.049 C 
ENDBRANCH   1  16
TORSDOF 4
ENDMDL
MODEL 7
REMARK VINA RESULT:      -9.1      4.881      7.084
REMARK  4 active torsions:
REMARK  status: ('A' for Active; 'I' for Inactive)
REMARK    1  A    between atoms: C17_24  and  N1_6 
REMARK    2  A    between atoms: C4_11  and  N1_6 
REMARK    3  A    between atoms: C17_24  and  N2_7 
REMARK    4  A    between atoms: C8_15  and  N2_7 
ROOT
HETATM    1  N1  UNK     1      18.591  -0.683  31.619  1.00  0.00    -0.333 N 
HETATM    2  H7  UNK     1      17.908  -1.247  31.117  1.00  0.00     0.168 HD
ENDROOT
BRANCH   1   3
HETATM    3  C17 UNK     1      19.132   0.349  30.841  1.00  0.00     0.176 C 
HETATM    4  S1  UNK     1      20.642   0.081  30.142  1.00  0.00    -0.041 SA
BRANCH   3   5
HETATM    5  N2  UNK     1      18.309   1.441  30.634  1.00  0.00    -0.333 N 
HETATM    6  H9  UNK     1      17.707   1.350  29.823  1.00  0.00     0.168 HD
BRANCH   5   7
HETATM    7  C8  UNK     1      18.462   2.803  30.995  1.00  0.00     0.037 A 
HETATM    8  C11 UNK     1      18.133   3.199  32.282  1.00  0.00     0.069 A 
HETATM    9  C7  UNK     1      18.300   4.535  32.586  1.00  0.00     0.107 A 
HETATM   10  O2  UNK     1      18.034   5.121  33.785  1.00  0.00    -0.323 OA
HETATM   11  C9  UNK     1      18.771   5.435  31.657  1.00  0.00     0.105 A 
HETATM   12  C16 UNK     1      18.392   6.490  33.508  1.00  0.00     0.352 A 
HETATM   13  O3  UNK     1      18.859   6.698  32.160  1.00  0.00    -0.323 OA
HETATM   14  C13 UNK     1      19.100   5.050  30.374  1.00  0.00     0.042 A 
HETATM   15  C12 UNK     1      18.940   3.703  30.041  1.00  0.00     0.032 A 
ENDBRANCH   5   7
ENDBRANCH   3   5
ENDBRANCH   1   3
BRANCH   1  16
HETATM   16  C4  UNK     1      18.657  -0.952  32.986  1.00  0.00     0.036 A 
HETATM   17  C10 UNK     1      17.865  -0.230  33.878  1.00  0.00     0.030 A 
HETATM   18  C6  UNK     1      17.926  -0.495  35.252  1.00  0.00     0.017 A 
HETATM   19  C1  UNK     1      18.781  -1.485  35.753  1.00  0.00     0.004 A 
HETATM   20  C2  UNK     1      19.561  -2.191  34.837  1.00  0.00     0.092 A 
HETATM   21  C3  UNK     1      18.898  -1.817  37.180  1.00  0.00    -0.043 A 
HETATM   22  O1  UNK     1      20.446  -3.203  35.261  1.00  0.00    -0.275 OA
HETATM   23  C5  UNK     1      19.511  -1.941  33.465  1.00  0.00     0.067 A 
HETATM   24  C18 UNK     1      20.578  -3.537  36.600  1.00  0.00     0.288 A 
HETATM   25  C14 UNK     1      19.747  -2.784  37.555  1.00  0.00     0.090 A 
HETATM   26  O4  UNK     1      21.344  -4.416  36.979  1.00  0.00    -0.260 OA
HETATM   27  C15 UNK     1      18.072  -1.075  38.191  1.00  0.00     0.049 C 
ENDBRANCH   1  16
TORSDOF 4
ENDMDL
MODEL 8
REMARK VINA RESULT:      -9.0      2.154      2.898
REMARK  4 active torsions:
REMARK  status: ('A' for Active; 'I' for Inactive)
REMARK    1  A    between atoms: C17_24  and  N1_6 
REMARK    2  A    between atoms: C4_11  and  N1_6 
REMARK    3  A    between atoms: C17_24  and  N2_7 
REMARK    4  A    between atoms: C8_15  and  N2_7 
ROOT
HETATM    1  N1  UNK     1      18.613  -4.627  36.403  1.00  0.00    -0.333 N 
HETATM    2  H7  UNK     1      17.610  -4.455  36.391  1.00  0.00     0.168 HD
ENDROOT
BRANCH   1   3
HETATM    3  C17 UNK     1      19.374  -3.450  36.421  1.00  0.00     0.176 C 
HETATM    4  S1  UNK     1      20.768  -3.444  37.367  1.00  0.00    -0.041 SA
BRANCH   3   5
HETATM    5  N2  UNK     1      18.956  -2.451  35.559  1.00  0.00    -0.333 N 
HETATM    6  H9  UNK     1      17.987  -2.181  35.689  1.00  0.00     0.168 HD
BRANCH   5   7
HETATM    7  C8  UNK     1      19.410  -2.087  34.267  1.00  0.00     0.037 A 
HETATM    8  C11 UNK     1      18.750  -1.079  33.582  1.00  0.00     0.069 A 
HETATM    9  C7  UNK     1      19.229  -0.759  32.329  1.00  0.00     0.107 A 
HETATM   10  O2  UNK     1      18.723   0.194  31.499  1.00  0.00    -0.323 OA
HETATM   11  C9  UNK     1      20.311  -1.408  31.780  1.00  0.00     0.105 A 
HETATM   12  C16 UNK     1      19.609   0.073  30.367  1.00  0.00     0.352 A 
HETATM   13  O3  UNK     1      20.618  -0.943  30.537  1.00  0.00    -0.323 OA
HETATM   14  C13 UNK     1      20.974  -2.413  32.454  1.00  0.00     0.042 A 
HETATM   15  C12 UNK     1      20.508  -2.756  33.726  1.00  0.00     0.032 A 
ENDBRANCH   5   7
ENDBRANCH   3   5
ENDBRANCH   1   3
BRANCH   1  16
HETATM   16  C4  UNK     1      18.959  -5.963  36.605  1.00  0.00     0.036 A 
HETATM   17  C10 UNK     1      18.476  -6.648  37.719  1.00  0.00     0.030 A 
HETATM   18  C6  UNK     1      18.819  -7.990  37.928  1.00  0.00     0.017 A 
HETATM   19  C1  UNK     1      19.651  -8.665  37.025  1.00  0.00     0.004 A 
HETATM   20  C2  UNK     1      20.118  -7.954  35.919  1.00  0.00     0.092 A 
HETATM   21  C3  UNK     1      20.052 -10.070  37.179  1.00  0.00    -0.043 A 
HETATM   22  O1  UNK     1      20.958  -8.561  34.965  1.00  0.00    -0.275 OA
HETATM   23  C5  UNK     1      19.785  -6.617  35.696  1.00  0.00     0.067 A 
HETATM   24  C18 UNK     1      21.355  -9.884  35.084  1.00  0.00     0.288 A 
HETATM   25  C14 UNK     1      20.852 -10.622  36.256  1.00  0.00     0.090 A 
HETATM   26  O4  UNK     1      22.085 -10.423  34.260  1.00  0.00    -0.260 OA
HETATM   27  C15 UNK     1      19.566 -10.862  38.358  1.00  0.00     0.049 C 
ENDBRANCH   1  16
TORSDOF 4
ENDMDL
MODEL 9
REMARK VINA RESULT:      -8.9      7.233     10.120
REMARK  4 active torsions:
REMARK  status: ('A' for Active; 'I' for Inactive)
REMARK    1  A    between atoms: C17_24  and  N1_6 
REMARK    2  A    between atoms: C4_11  and  N1_6 
REMARK    3  A    between atoms: C17_24  and  N2_7 
REMARK    4  A    between atoms: C8_15  and  N2_7 
ROOT
HETATM    1  N1  UNK     1      17.810   3.869  31.398  1.00  0.00    -0.333 N 
HETATM    2  H7  UNK     1      16.815   3.853  31.612  1.00  0.00     0.168 HD
ENDROOT
BRANCH   1   3
HETATM    3  C17 UNK     1      18.388   5.135  31.563  1.00  0.00     0.176 C 
HETATM    4  S1  UNK     1      19.276   5.755  30.272  1.00  0.00    -0.041 SA
BRANCH   3   5
HETATM    5  N2  UNK     1      18.067   5.794  32.737  1.00  0.00    -0.333 N 
HETATM    6  H9  UNK     1      17.195   5.483  33.153  1.00  0.00     0.168 HD
BRANCH   5   7
HETATM    7  C8  UNK     1      18.412   7.087  33.202  1.00  0.00     0.037 A 
HETATM    8  C11 UNK     1      17.491   8.116  33.074  1.00  0.00     0.069 A 
HETATM    9  C7  UNK     1      17.872   9.356  33.542  1.00  0.00     0.107 A 
HETATM   10  O2  UNK     1      17.118  10.489  33.508  1.00  0.00    -0.323 OA
HETATM   11  C9  UNK     1      19.108   9.568  34.109  1.00  0.00     0.105 A 
HETATM   12  C16 UNK     1      18.017  11.437  34.118  1.00  0.00     0.352 A 
HETATM   13  O3  UNK     1      19.282  10.860  34.501  1.00  0.00    -0.323 OA
HETATM   14  C13 UNK     1      20.031   8.551  34.239  1.00  0.00     0.042 A 
HETATM   15  C12 UNK     1      19.670   7.284  33.774  1.00  0.00     0.032 A 
ENDBRANCH   5   7
ENDBRANCH   3   5
ENDBRANCH   1   3
BRANCH   1  16
HETATM   16  C4  UNK     1      18.370   2.607  31.199  1.00  0.00     0.036 A 
HETATM   17  C10 UNK     1      18.791   2.223  29.927  1.00  0.00     0.030 A 
HETATM   18  C6  UNK     1      19.354   0.958  29.721  1.00  0.00     0.017 A 
HETATM   19  C1  UNK     1      19.504   0.058  30.784  1.00  0.00     0.004 A 
HETATM   20  C2  UNK     1      19.074   0.471  32.046  1.00  0.00     0.092 A 
HETATM   21  C3  UNK     1      20.085  -1.284  30.642  1.00  0.00    -0.043 A 
HETATM   22  O1  UNK     1      19.190  -0.375  33.167  1.00  0.00    -0.275 OA
HETATM   23  C5  UNK     1      18.512   1.729  32.269  1.00  0.00     0.067 A 
HETATM   24  C18 UNK     1      19.733  -1.646  33.064  1.00  0.00     0.288 A 
HETATM   25  C14 UNK     1      20.183  -2.067  31.726  1.00  0.00     0.090 A 
HETATM   26  O4  UNK     1      19.839  -2.390  34.033  1.00  0.00    -0.260 OA
HETATM   27  C15 UNK     1      20.556  -1.757  29.298  1.00  0.00     0.049 C 
ENDBRANCH   1  16
TORSDOF 4
ENDMDL
MODEL 10
REMARK VINA RESULT:      -8.9      7.684     10.426
REMARK  4 active torsions:
REMARK  status: ('A' for Active; 'I' for Inactive)
REMARK    1  A    between atoms: C17_24  and  N1_6 
REMARK    2  A    between atoms: C4_11  and  N1_6 
REMARK    3  A    between atoms: C17_24  and  N2_7 
REMARK    4  A    between atoms: C8_15  and  N2_7 
ROOT
HETATM    1  N1  UNK     1      17.546   4.364  32.131  1.00  0.00    -0.333 N 
HETATM    2  H7  UNK     1      16.533   4.415  32.037  1.00  0.00     0.168 HD
ENDROOT
BRANCH   1   3
HETATM    3  C17 UNK     1      18.120   5.569  32.558  1.00  0.00     0.176 C 
HETATM    4  S1  UNK     1      19.384   6.193  31.636  1.00  0.00    -0.041 SA
BRANCH   3   5
HETATM    5  N2  UNK     1      17.504   6.180  33.636  1.00  0.00    -0.333 N 
HETATM    6  H9  UNK     1      17.477   5.603  34.470  1.00  0.00     0.168 HD
BRANCH   5   7
HETATM    7  C8  UNK     1      16.510   7.188  33.691  1.00  0.00     0.037 A 
HETATM    8  C11 UNK     1      16.568   8.136  34.701  1.00  0.00     0.069 A 
HETATM    9  C7  UNK     1      15.579   9.098  34.712  1.00  0.00     0.107 A 
HETATM   10  O2  UNK     1      15.457  10.108  35.615  1.00  0.00    -0.323 OA
HETATM   11  C9  UNK     1      14.580   9.119  33.765  1.00  0.00     0.105 A 
HETATM   12  C16 UNK     1      14.270  10.769  35.131  1.00  0.00     0.352 A 
HETATM   13  O3  UNK     1      13.707  10.147  33.958  1.00  0.00    -0.323 OA
HETATM   14  C13 UNK     1      14.514   8.181  32.757  1.00  0.00     0.042 A 
HETATM   15  C12 UNK     1      15.504   7.195  32.724  1.00  0.00     0.032 A 
ENDBRANCH   5   7
ENDBRANCH   3   5
ENDBRANCH   1   3
BRANCH   1  16
HETATM   16  C4  UNK     1      18.064   3.075  32.013  1.00  0.00     0.036 A 
HETATM   17  C10 UNK     1      18.071   2.221  33.115  1.00  0.00     0.030 A 
HETATM   18  C6  UNK     1      18.590   0.926  33.003  1.00  0.00     0.017 A 
HETATM   19  C1  UNK     1      19.111   0.466  31.787  1.00  0.00     0.004 A 
HETATM   20  C2  UNK     1      19.091   1.342  30.701  1.00  0.00     0.092 A 
HETATM   21  C3  UNK     1      19.672  -0.879  31.596  1.00  0.00    -0.043 A 
HETATM   22  O1  UNK     1      19.596   0.955  29.444  1.00  0.00    -0.275 OA
HETATM   23  C5  UNK     1      18.576   2.636  30.796  1.00  0.00     0.067 A 
HETATM   24  C18 UNK     1      20.132  -0.306  29.233  1.00  0.00     0.288 A 
HETATM   25  C14 UNK     1      20.145  -1.220  30.389  1.00  0.00     0.090 A 
HETATM   26  O4  UNK     1      20.573  -0.653  28.144  1.00  0.00    -0.260 OA
HETATM   27  C15 UNK     1      19.708  -1.845  32.745  1.00  0.00     0.049 C 
ENDBRANCH   1  16
TORSDOF 4
ENDMDL
