MODEL 1
REMARK VINA RESULT:     -10.3      0.000      0.000
REMARK  5 active torsions:
REMARK  status: ('A' for Active; 'I' for Inactive)
REMARK    1  A    between atoms: C1_11  and  N1_7 
REMARK    2  A    between atoms: C4_14  and  N2_8 
REMARK       I    between atoms: C9_19  and  N2_8 
REMARK    3  A    between atoms: C13_23  and  N4_10 
REMARK    4  A    between atoms: C1_11  and  C3_13 
REMARK    5  A    between atoms: C6_16  and  C9_19 
ROOT
HETATM    1  O2  UNK     1      20.822  -1.794  35.225  1.00  0.00    -0.267 OA
HETATM    2  N2  UNK     1      20.107  -3.956  34.623  1.00  0.00    -0.320 N 
HETATM    3  C9  UNK     1      20.470  -2.634  34.399  1.00  0.00     0.262 C 
HETATM    4  H5  UNK     1      19.817  -4.531  33.836  1.00  0.00     0.169 HD
ENDROOT
BRANCH   3   5
HETATM    5  C6  UNK     1      20.404  -2.276  32.978  1.00  0.00     0.108 A 
HETATM    6  C14 UNK     1      20.928  -3.165  31.917  1.00  0.00     0.304 A 
HETATM    7  O1  UNK     1      20.806  -2.714  30.605  1.00  0.00    -0.274 OA
HETATM    8  O3  UNK     1      21.443  -4.248  32.174  1.00  0.00    -0.259 OA
HETATM    9  C7  UNK     1      20.216  -1.472  30.298  1.00  0.00     0.089 A 
HETATM   10  C12 UNK     1      20.140  -1.106  28.956  1.00  0.00     0.041 A 
HETATM   11  C2  UNK     1      19.731  -0.651  31.311  1.00  0.00     0.001 A 
HETATM   12  C17 UNK     1      19.561   0.116  28.622  1.00  0.00     0.039 A 
HETATM   13  C13 UNK     1      19.069   0.955  29.624  1.00  0.00     0.103 A 
HETATM   14  C10 UNK     1      19.152   0.573  30.967  1.00  0.00     0.050 A 
HETATM   15  C8  UNK     1      19.842  -1.095  32.692  1.00  0.00     0.037 A 
BRANCH  13  16
HETATM   16  N4  UNK     1      18.479   2.199  29.278  1.00  0.00    -0.116 N 
HETATM   17  O4  UNK     1      17.930   2.321  28.156  1.00  0.00    -0.532 OA
HETATM   18  O5  UNK     1      18.523   3.144  30.103  1.00  0.00    -0.532 OA
ENDBRANCH  13  16
ENDBRANCH   3   5
BRANCH   2  19
HETATM   19  C4  UNK     1      20.056  -4.639  35.862  1.00  0.00     0.071 A 
HETATM   20  C11 UNK     1      20.347  -4.134  37.113  1.00  0.00     0.169 A 
HETATM   21  N3  UNK     1      20.193  -5.064  38.060  1.00  0.00    -0.183 NA
HETATM   22  N1  UNK     1      19.803  -6.145  37.364  1.00  0.00    -0.275 N 
HETATM   23  C5  UNK     1      19.706  -5.931  36.021  1.00  0.00     0.143 A 
BRANCH  22  24
HETATM   24  C1  UNK     1      19.531  -7.383  38.055  1.00  0.00     0.189 C 
BRANCH  24  25
HETATM   25  C3  UNK     1      20.379  -8.506  37.522  1.00  0.00    -0.038 A 
HETATM   26  C15 UNK     1      19.803  -9.747  37.286  1.00  0.00     0.012 A 
HETATM   27  C18 UNK     1      20.589 -10.788  36.791  1.00  0.00     0.043 A 
HETATM   28  C20 UNK     1      21.944 -10.577  36.537  1.00  0.00     0.116 A 
HETATM   29  C19 UNK     1      22.513  -9.326  36.777  1.00  0.00     0.043 A 
HETATM   30  F1  UNK     1      22.699 -11.576  36.061  1.00  0.00    -0.206 F 
HETATM   31  C16 UNK     1      21.727  -8.286  37.271  1.00  0.00     0.012 A 
ENDBRANCH  24  25
ENDBRANCH  22  24
ENDBRANCH   2  19
TORSDOF 5
ENDMDL
MODEL 2
REMARK VINA RESULT:     -10.0      3.431      4.620
REMARK  5 active torsions:
REMARK  status: ('A' for Active; 'I' for Inactive)
REMARK    1  A    between atoms: C1_11  and  N1_7 
REMARK    2  A    between atoms: C4_14  and  N2_8 
REMARK       I    between atoms: C9_19  and  N2_8 
REMARK    3  A    between atoms: C13_23  and  N4_10 
REMARK    4  A    between atoms: C1_11  and  C3_13 
REMARK    5  A    between atoms: C6_16  and  C9_19 
ROOT
HETATM    1  O2  UNK     1      16.822   0.187  34.465  1.00  0.00    -0.267 OA
HETATM    2  N2  UNK     1      19.132  -0.268  34.503  1.00  0.00    -0.320 N 
HETATM    3  C9  UNK     1      17.976   0.381  34.088  1.00  0.00     0.262 C 
HETATM    4  H5  UNK     1      20.023  -0.012  34.083  1.00  0.00     0.169 HD
ENDROOT
BRANCH   3   5
HETATM    5  C6  UNK     1      18.251   1.410  33.079  1.00  0.00     0.108 A 
HETATM    6  C14 UNK     1      18.788   1.076  31.741  1.00  0.00     0.304 A 
HETATM    7  O1  UNK     1      19.007   2.140  30.871  1.00  0.00    -0.274 OA
HETATM    8  O3  UNK     1      19.030  -0.080  31.410  1.00  0.00    -0.259 OA
HETATM    9  C7  UNK     1      18.733   3.471  31.241  1.00  0.00     0.089 A 
HETATM   10  C12 UNK     1      18.985   4.469  30.302  1.00  0.00     0.041 A 
HETATM   11  C2  UNK     1      18.229   3.764  32.505  1.00  0.00     0.001 A 
HETATM   12  C17 UNK     1      18.723   5.795  30.640  1.00  0.00     0.039 A 
HETATM   13  C13 UNK     1      18.218   6.109  31.903  1.00  0.00     0.103 A 
HETATM   14  C10 UNK     1      17.970   5.096  32.835  1.00  0.00     0.050 A 
HETATM   15  C8  UNK     1      17.989   2.673  33.437  1.00  0.00     0.037 A 
BRANCH  13  16
HETATM   16  N4  UNK     1      17.952   7.462  32.242  1.00  0.00    -0.116 N 
HETATM   17  O4  UNK     1      17.096   8.098  31.580  1.00  0.00    -0.532 OA
HETATM   18  O5  UNK     1      18.581   7.985  33.194  1.00  0.00    -0.532 OA
ENDBRANCH  13  16
ENDBRANCH   3   5
BRANCH   2  19
HETATM   19  C4  UNK     1      19.244  -1.307  35.458  1.00  0.00     0.071 A 
HETATM   20  C11 UNK     1      18.327  -1.660  36.427  1.00  0.00     0.169 A 
HETATM   21  N3  UNK     1      18.764  -2.691  37.156  1.00  0.00    -0.183 NA
HETATM   22  N1  UNK     1      19.964  -2.960  36.615  1.00  0.00    -0.275 N 
HETATM   23  C5  UNK     1      20.297  -2.141  35.577  1.00  0.00     0.143 A 
BRANCH  22  24
HETATM   24  C1  UNK     1      20.764  -4.037  37.145  1.00  0.00     0.189 C 
BRANCH  24  25
HETATM   25  C3  UNK     1      20.096  -5.370  36.939  1.00  0.00    -0.038 A 
HETATM   26  C15 UNK     1      19.782  -5.787  35.652  1.00  0.00     0.012 A 
HETATM   27  C18 UNK     1      19.163  -7.022  35.462  1.00  0.00     0.043 A 
HETATM   28  C20 UNK     1      18.865  -7.829  36.560  1.00  0.00     0.116 A 
HETATM   29  C19 UNK     1      19.185  -7.402  37.848  1.00  0.00     0.043 A 
HETATM   30  F1  UNK     1      18.271  -9.016  36.376  1.00  0.00    -0.206 F 
HETATM   31  C16 UNK     1      19.803  -6.166  38.039  1.00  0.00     0.012 A 
ENDBRANCH  24  25
ENDBRANCH  22  24
ENDBRANCH   2  19
TORSDOF 5
ENDMDL
MODEL 3
REMARK VINA RESULT:      -9.9      6.016      9.800
REMARK  5 active torsions:
REMARK  status: ('A' for Active; 'I' for Inactive)
REMARK    1  A    between atoms: C1_11  and  N1_7 
REMARK    2  A    between atoms: C4_14  and  N2_8 
REMARK       I    between atoms: C9_19  and  N2_8 
REMARK    3  A    between atoms: C13_23  and  N4_10 
REMARK    4  A    between atoms: C1_11  and  C3_13 
REMARK    5  A    between atoms: C6_16  and  C9_19 
ROOT
HETATM    1  O2  UNK     1      17.880   3.259  32.826  1.00  0.00    -0.267 OA
HETATM    2  N2  UNK     1      18.636   3.978  30.715  1.00  0.00    -0.320 N 
HETATM    3  C9  UNK     1      18.244   4.130  32.039  1.00  0.00     0.262 C 
HETATM    4  H5  UNK     1      18.894   4.802  30.176  1.00  0.00     0.169 HD
ENDROOT
BRANCH   3   5
HETATM    5  C6  UNK     1      18.302   5.529  32.476  1.00  0.00     0.108 A 
HETATM    6  C14 UNK     1      19.548   6.325  32.404  1.00  0.00     0.304 A 
HETATM    7  O1  UNK     1      19.476   7.643  32.848  1.00  0.00    -0.274 OA
HETATM    8  O3  UNK     1      20.594   5.853  31.973  1.00  0.00    -0.259 OA
HETATM    9  C7  UNK     1      18.279   8.195  33.345  1.00  0.00     0.089 A 
HETATM   10  C12 UNK     1      18.305   9.522  33.767  1.00  0.00     0.041 A 
HETATM   11  C2  UNK     1      17.118   7.429  33.405  1.00  0.00     0.001 A 
HETATM   12  C17 UNK     1      17.136  10.096  34.262  1.00  0.00     0.039 A 
HETATM   13  C13 UNK     1      15.962   9.344  34.331  1.00  0.00     0.103 A 
HETATM   14  C10 UNK     1      15.951   8.012  33.903  1.00  0.00     0.050 A 
HETATM   15  C8  UNK     1      17.162   6.049  32.947  1.00  0.00     0.037 A 
BRANCH  13  16
HETATM   16  N4  UNK     1      14.773   9.933  34.836  1.00  0.00    -0.116 N 
HETATM   17  O4  UNK     1      13.774  10.029  34.082  1.00  0.00    -0.532 OA
HETATM   18  O5  UNK     1      14.753  10.343  36.022  1.00  0.00    -0.532 OA
ENDBRANCH  13  16
ENDBRANCH   3   5
BRANCH   2  19
HETATM   19  C4  UNK     1      18.703   2.779  29.967  1.00  0.00     0.071 A 
HETATM   20  C11 UNK     1      17.973   2.446  28.844  1.00  0.00     0.169 A 
HETATM   21  N3  UNK     1      18.296   1.228  28.398  1.00  0.00    -0.183 NA
HETATM   22  N1  UNK     1      19.236   0.824  29.269  1.00  0.00    -0.275 N 
HETATM   23  C5  UNK     1      19.516   1.738  30.241  1.00  0.00     0.143 A 
BRANCH  22  24
HETATM   24  C1  UNK     1      19.845  -0.475  29.115  1.00  0.00     0.189 C 
BRANCH  24  25
HETATM   25  C3  UNK     1      19.968  -1.183  30.437  1.00  0.00    -0.038 A 
HETATM   26  C15 UNK     1      19.233  -0.733  31.526  1.00  0.00     0.012 A 
HETATM   27  C18 UNK     1      19.348  -1.389  32.751  1.00  0.00     0.043 A 
HETATM   28  C20 UNK     1      20.196  -2.490  32.876  1.00  0.00     0.116 A 
HETATM   29  C19 UNK     1      20.930  -2.934  31.776  1.00  0.00     0.043 A 
HETATM   30  F1  UNK     1      20.306  -3.120  34.053  1.00  0.00    -0.206 F 
HETATM   31  C16 UNK     1      20.816  -2.277  30.551  1.00  0.00     0.012 A 
ENDBRANCH  24  25
ENDBRANCH  22  24
ENDBRANCH   2  19
TORSDOF 5
ENDMDL
MODEL 4
REMARK VINA RESULT:      -9.8     16.510     20.014
REMARK  5 active torsions:
REMARK  status: ('A' for Active; 'I' for Inactive)
REMARK    1  A    between atoms: C1_11  and  N1_7 
REMARK    2  A    between atoms: C4_14  and  N2_8 
REMARK       I    between atoms: C9_19  and  N2_8 
REMARK    3  A    between atoms: C13_23  and  N4_10 
REMARK    4  A    between atoms: C1_11  and  C3_13 
REMARK    5  A    between atoms: C6_16  and  C9_19 
ROOT
HETATM    1  O2  UNK     1      17.894  -3.504  15.171  1.00  0.00    -0.267 OA
HETATM    2  N2  UNK     1      20.214  -3.428  14.775  1.00  0.00    -0.320 N 
HETATM    3  C9  UNK     1      18.974  -2.918  15.138  1.00  0.00     0.262 C 
HETATM    4  H5  UNK     1      21.023  -2.813  14.777  1.00  0.00     0.169 HD
ENDROOT
BRANCH   3   5
HETATM    5  C6  UNK     1      19.047  -1.503  15.518  1.00  0.00     0.108 A 
HETATM    6  C14 UNK     1      19.257  -0.431  14.519  1.00  0.00     0.304 A 
HETATM    7  O1  UNK     1      19.308   0.874  15.003  1.00  0.00    -0.274 OA
HETATM    8  O3  UNK     1      19.379  -0.674  13.323  1.00  0.00    -0.259 OA
HETATM    9  C7  UNK     1      19.170   1.163  16.374  1.00  0.00     0.089 A 
HETATM   10  C12 UNK     1      19.235   2.500  16.763  1.00  0.00     0.041 A 
HETATM   11  C2  UNK     1      18.974   0.140  17.297  1.00  0.00     0.001 A 
HETATM   12  C17 UNK     1      19.101   2.817  18.113  1.00  0.00     0.039 A 
HETATM   13  C13 UNK     1      18.904   1.805  19.054  1.00  0.00     0.103 A 
HETATM   14  C10 UNK     1      18.840   0.468  18.648  1.00  0.00     0.050 A 
HETATM   15  C8  UNK     1      18.915  -1.234  16.822  1.00  0.00     0.037 A 
BRANCH  13  16
HETATM   16  N4  UNK     1      18.767   2.133  20.428  1.00  0.00    -0.116 N 
HETATM   17  O4  UNK     1      17.637   2.040  20.966  1.00  0.00    -0.532 OA
HETATM   18  O5  UNK     1      19.780   2.508  21.068  1.00  0.00    -0.532 OA
ENDBRANCH  13  16
ENDBRANCH   3   5
BRANCH   2  19
HETATM   19  C4  UNK     1      20.516  -4.746  14.355  1.00  0.00     0.071 A 
HETATM   20  C11 UNK     1      21.128  -5.742  15.089  1.00  0.00     0.169 A 
HETATM   21  N3  UNK     1      21.256  -6.863  14.374  1.00  0.00    -0.183 NA
HETATM   22  N1  UNK     1      20.711  -6.534  13.191  1.00  0.00    -0.275 N 
HETATM   23  C5  UNK     1      20.247  -5.253  13.135  1.00  0.00     0.143 A 
BRANCH  22  24
HETATM   24  C1  UNK     1      20.662  -7.509  12.127  1.00  0.00     0.189 C 
BRANCH  24  25
HETATM   25  C3  UNK     1      19.261  -7.677  11.603  1.00  0.00    -0.038 A 
HETATM   26  C15 UNK     1      18.970  -7.309  10.296  1.00  0.00     0.012 A 
HETATM   27  C18 UNK     1      17.672  -7.466   9.811  1.00  0.00     0.043 A 
HETATM   28  C20 UNK     1      16.677  -7.990  10.637  1.00  0.00     0.116 A 
HETATM   29  C19 UNK     1      16.980  -8.356  11.948  1.00  0.00     0.043 A 
HETATM   30  F1  UNK     1      15.431  -8.140  10.170  1.00  0.00    -0.206 F 
HETATM   31  C16 UNK     1      18.278  -8.200  12.433  1.00  0.00     0.012 A 
ENDBRANCH  24  25
ENDBRANCH  22  24
ENDBRANCH   2  19
TORSDOF 5
ENDMDL
MODEL 5
REMARK VINA RESULT:      -9.8      2.852      3.906
REMARK  5 active torsions:
REMARK  status: ('A' for Active; 'I' for Inactive)
REMARK    1  A    between atoms: C1_11  and  N1_7 
REMARK    2  A    between atoms: C4_14  and  N2_8 
REMARK       I    between atoms: C9_19  and  N2_8 
REMARK    3  A    between atoms: C13_23  and  N4_10 
REMARK    4  A    between atoms: C1_11  and  C3_13 
REMARK    5  A    between atoms: C6_16  and  C9_19 
ROOT
HETATM    1  O2  UNK     1      17.500  -2.118  36.951  1.00  0.00    -0.267 OA
HETATM    2  N2  UNK     1      19.656  -2.249  36.014  1.00  0.00    -0.320 N 
HETATM    3  C9  UNK     1      18.444  -1.645  36.323  1.00  0.00     0.262 C 
HETATM    4  H5  UNK     1      20.341  -1.736  35.465  1.00  0.00     0.169 HD
ENDROOT
BRANCH   3   5
HETATM    5  C6  UNK     1      18.361  -0.275  35.804  1.00  0.00     0.108 A 
HETATM    6  C14 UNK     1      18.249   0.899  36.698  1.00  0.00     0.304 A 
HETATM    7  O1  UNK     1      18.178   2.147  36.085  1.00  0.00    -0.274 OA
HETATM    8  O3  UNK     1      18.221   0.784  37.918  1.00  0.00    -0.259 OA
HETATM    9  C7  UNK     1      18.209   2.291  34.684  1.00  0.00     0.089 A 
HETATM   10  C12 UNK     1      18.131   3.581  34.164  1.00  0.00     0.041 A 
HETATM   11  C2  UNK     1      18.314   1.173  33.862  1.00  0.00     0.001 A 
HETATM   12  C17 UNK     1      18.160   3.754  32.782  1.00  0.00     0.039 A 
HETATM   13  C13 UNK     1      18.265   2.645  31.940  1.00  0.00     0.103 A 
HETATM   14  C10 UNK     1      18.342   1.356  32.477  1.00  0.00     0.050 A 
HETATM   15  C8  UNK     1      18.391  -0.145  34.472  1.00  0.00     0.037 A 
BRANCH  13  16
HETATM   16  N4  UNK     1      18.295   2.827  30.532  1.00  0.00    -0.116 N 
HETATM   17  O4  UNK     1      19.026   3.726  30.050  1.00  0.00    -0.532 OA
HETATM   18  O5  UNK     1      17.590   2.083  29.807  1.00  0.00    -0.532 OA
ENDBRANCH  13  16
ENDBRANCH   3   5
BRANCH   2  19
HETATM   19  C4  UNK     1      20.080  -3.557  36.353  1.00  0.00     0.071 A 
HETATM   20  C11 UNK     1      19.979  -4.699  35.585  1.00  0.00     0.169 A 
HETATM   21  N3  UNK     1      20.481  -5.759  36.223  1.00  0.00    -0.183 NA
HETATM   22  N1  UNK     1      20.891  -5.244  37.394  1.00  0.00    -0.275 N 
HETATM   23  C5  UNK     1      20.666  -3.905  37.516  1.00  0.00     0.143 A 
BRANCH  22  24
HETATM   24  C1  UNK     1      21.505  -6.102  38.379  1.00  0.00     0.189 C 
BRANCH  24  25
HETATM   25  C3  UNK     1      20.986  -7.511  38.279  1.00  0.00    -0.038 A 
HETATM   26  C15 UNK     1      21.719  -8.464  37.584  1.00  0.00     0.012 A 
HETATM   27  C18 UNK     1      21.237  -9.770  37.492  1.00  0.00     0.043 A 
HETATM   28  C20 UNK     1      20.027 -10.110  38.096  1.00  0.00     0.116 A 
HETATM   29  C19 UNK     1      19.298  -9.146  38.792  1.00  0.00     0.043 A 
HETATM   30  F1  UNK     1      19.565 -11.365  38.008  1.00  0.00    -0.206 F 
HETATM   31  C16 UNK     1      19.780  -7.840  38.884  1.00  0.00     0.012 A 
ENDBRANCH  24  25
ENDBRANCH  22  24
ENDBRANCH   2  19
TORSDOF 5
ENDMDL
MODEL 6
REMARK VINA RESULT:      -9.7      1.987      2.865
REMARK  5 active torsions:
REMARK  status: ('A' for Active; 'I' for Inactive)
REMARK    1  A    between atoms: C1_11  and  N1_7 
REMARK    2  A    between atoms: C4_14  and  N2_8 
REMARK       I    between atoms: C9_19  and  N2_8 
REMARK    3  A    between atoms: C13_23  and  N4_10 
REMARK    4  A    between atoms: C1_11  and  C3_13 
REMARK    5  A    between atoms: C6_16  and  C9_19 
ROOT
HETATM    1  O2  UNK     1      17.809  -1.776  36.689  1.00  0.00    -0.267 OA
HETATM    2  N2  UNK     1      19.557  -2.896  35.577  1.00  0.00    -0.320 N 
HETATM    3  C9  UNK     1      18.607  -1.900  35.762  1.00  0.00     0.262 C 
HETATM    4  H5  UNK     1      20.139  -2.878  34.744  1.00  0.00     0.169 HD
ENDROOT
BRANCH   3   5
HETATM    5  C6  UNK     1      18.624  -0.911  34.679  1.00  0.00     0.108 A 
HETATM    6  C14 UNK     1      18.201   0.492  34.887  1.00  0.00     0.304 A 
HETATM    7  O1  UNK     1      18.263   1.336  33.781  1.00  0.00    -0.274 OA
HETATM    8  O3  UNK     1      17.816   0.897  35.979  1.00  0.00    -0.259 OA
HETATM    9  C7  UNK     1      18.704   0.880  32.523  1.00  0.00     0.089 A 
HETATM   10  C12 UNK     1      18.730   1.799  31.476  1.00  0.00     0.041 A 
HETATM   11  C2  UNK     1      19.096  -0.443  32.348  1.00  0.00     0.001 A 
HETATM   12  C17 UNK     1      19.162   1.378  30.221  1.00  0.00     0.039 A 
HETATM   13  C13 UNK     1      19.560   0.054  30.025  1.00  0.00     0.103 A 
HETATM   14  C10 UNK     1      19.528  -0.856  31.086  1.00  0.00     0.050 A 
HETATM   15  C8  UNK     1      19.044  -1.349  33.486  1.00  0.00     0.037 A 
BRANCH  13  16
HETATM   16  N4  UNK     1      20.000  -0.370  28.743  1.00  0.00    -0.116 N 
HETATM   17  O4  UNK     1      21.199  -0.708  28.593  1.00  0.00    -0.532 OA
HETATM   18  O5  UNK     1      19.177  -0.396  27.795  1.00  0.00    -0.532 OA
ENDBRANCH  13  16
ENDBRANCH   3   5
BRANCH   2  19
HETATM   19  C4  UNK     1      19.821  -4.004  36.418  1.00  0.00     0.071 A 
HETATM   20  C11 UNK     1      20.811  -4.117  37.372  1.00  0.00     0.169 A 
HETATM   21  N3  UNK     1      20.768  -5.307  37.978  1.00  0.00    -0.183 NA
HETATM   22  N1  UNK     1      19.734  -5.918  37.376  1.00  0.00    -0.275 N 
HETATM   23  C5  UNK     1      19.127  -5.160  36.419  1.00  0.00     0.143 A 
BRANCH  22  24
HETATM   24  C1  UNK     1      19.364  -7.257  37.769  1.00  0.00     0.189 C 
BRANCH  24  25
HETATM   25  C3  UNK     1      20.193  -8.287  37.050  1.00  0.00    -0.038 A 
HETATM   26  C15 UNK     1      20.531  -9.468  37.698  1.00  0.00     0.012 A 
HETATM   27  C18 UNK     1      21.298 -10.423  37.031  1.00  0.00     0.043 A 
HETATM   28  C20 UNK     1      21.720 -10.187  35.722  1.00  0.00     0.116 A 
HETATM   29  C19 UNK     1      21.374  -8.998  35.080  1.00  0.00     0.043 A 
HETATM   30  F1  UNK     1      22.456 -11.105  35.081  1.00  0.00    -0.206 F 
HETATM   31  C16 UNK     1      20.607  -8.044  35.747  1.00  0.00     0.012 A 
ENDBRANCH  24  25
ENDBRANCH  22  24
ENDBRANCH   2  19
TORSDOF 5
ENDMDL
MODEL 7
REMARK VINA RESULT:      -9.6      7.090     10.121
REMARK  5 active torsions:
REMARK  status: ('A' for Active; 'I' for Inactive)
REMARK    1  A    between atoms: C1_11  and  N1_7 
REMARK    2  A    between atoms: C4_14  and  N2_8 
REMARK       I    between atoms: C9_19  and  N2_8 
REMARK    3  A    between atoms: C13_23  and  N4_10 
REMARK    4  A    between atoms: C1_11  and  C3_13 
REMARK    5  A    between atoms: C6_16  and  C9_19 
ROOT
HETATM    1  O2  UNK     1      17.518   4.405  32.198  1.00  0.00    -0.267 OA
HETATM    2  N2  UNK     1      18.378   4.170  34.378  1.00  0.00    -0.320 N 
HETATM    3  C9  UNK     1      17.903   4.863  33.272  1.00  0.00     0.262 C 
HETATM    4  H5  UNK     1      18.682   4.691  35.197  1.00  0.00     0.169 HD
ENDROOT
BRANCH   3   5
HETATM    5  C6  UNK     1      17.888   6.313  33.492  1.00  0.00     0.108 A 
HETATM    6  C14 UNK     1      19.112   7.138  33.381  1.00  0.00     0.304 A 
HETATM    7  O1  UNK     1      18.970   8.504  33.613  1.00  0.00    -0.274 OA
HETATM    8  O3  UNK     1      20.200   6.649  33.098  1.00  0.00    -0.259 OA
HETATM    9  C7  UNK     1      17.725   9.076  33.939  1.00  0.00     0.089 A 
HETATM   10  C12 UNK     1      17.682  10.453  34.153  1.00  0.00     0.041 A 
HETATM   11  C2  UNK     1      16.587   8.283  34.039  1.00  0.00     0.001 A 
HETATM   12  C17 UNK     1      16.465  11.047  34.477  1.00  0.00     0.039 A 
HETATM   13  C13 UNK     1      15.311  10.268  34.583  1.00  0.00     0.103 A 
HETATM   14  C10 UNK     1      15.370   8.888  34.364  1.00  0.00     0.050 A 
HETATM   15  C8  UNK     1      16.703   6.852  33.802  1.00  0.00     0.037 A 
BRANCH  13  16
HETATM   16  N4  UNK     1      14.073  10.879  34.912  1.00  0.00    -0.116 N 
HETATM   17  O4  UNK     1      13.835  11.164  36.111  1.00  0.00    -0.532 OA
HETATM   18  O5  UNK     1      13.248  11.116  33.996  1.00  0.00    -0.532 OA
ENDBRANCH  13  16
ENDBRANCH   3   5
BRANCH   2  19
HETATM   19  C4  UNK     1      18.528   2.769  34.520  1.00  0.00     0.071 A 
HETATM   20  C11 UNK     1      19.026   2.084  35.609  1.00  0.00     0.169 A 
HETATM   21  N3  UNK     1      19.025   0.765  35.394  1.00  0.00    -0.183 NA
HETATM   22  N1  UNK     1      18.517   0.658  34.155  1.00  0.00    -0.275 N 
HETATM   23  C5  UNK     1      18.200   1.856  33.584  1.00  0.00     0.143 A 
BRANCH  22  24
HETATM   24  C1  UNK     1      18.354  -0.645  33.556  1.00  0.00     0.189 C 
BRANCH  24  25
HETATM   25  C3  UNK     1      19.142  -0.763  32.279  1.00  0.00    -0.038 A 
HETATM   26  C15 UNK     1      19.819  -1.943  31.999  1.00  0.00     0.012 A 
HETATM   27  C18 UNK     1      20.548  -2.052  30.815  1.00  0.00     0.043 A 
HETATM   28  C20 UNK     1      20.593  -0.981  29.923  1.00  0.00     0.116 A 
HETATM   29  C19 UNK     1      19.910   0.199  30.214  1.00  0.00     0.043 A 
HETATM   30  F1  UNK     1      21.294  -1.087  28.786  1.00  0.00    -0.206 F 
HETATM   31  C16 UNK     1      19.181   0.309  31.398  1.00  0.00     0.012 A 
ENDBRANCH  24  25
ENDBRANCH  22  24
ENDBRANCH   2  19
TORSDOF 5
ENDMDL
MODEL 8
REMARK VINA RESULT:      -9.6     16.431     19.746
REMARK  5 active torsions:
REMARK  status: ('A' for Active; 'I' for Inactive)
REMARK    1  A    between atoms: C1_11  and  N1_7 
REMARK    2  A    between atoms: C4_14  and  N2_8 
REMARK       I    between atoms: C9_19  and  N2_8 
REMARK    3  A    between atoms: C13_23  and  N4_10 
REMARK    4  A    between atoms: C1_11  and  C3_13 
REMARK    5  A    between atoms: C6_16  and  C9_19 
ROOT
HETATM    1  O2  UNK     1      17.920  -3.568  15.228  1.00  0.00    -0.267 OA
HETATM    2  N2  UNK     1      20.257  -3.502  14.947  1.00  0.00    -0.320 N 
HETATM    3  C9  UNK     1      19.001  -2.983  15.237  1.00  0.00     0.262 C 
HETATM    4  H5  UNK     1      21.067  -2.887  14.977  1.00  0.00     0.169 HD
ENDROOT
BRANCH   3   5
HETATM    5  C6  UNK     1      19.058  -1.561  15.590  1.00  0.00     0.108 A 
HETATM    6  C14 UNK     1      19.243  -0.504  14.570  1.00  0.00     0.304 A 
HETATM    7  O1  UNK     1      19.280   0.810  15.030  1.00  0.00    -0.274 OA
HETATM    8  O3  UNK     1      19.357  -0.767  13.378  1.00  0.00    -0.259 OA
HETATM    9  C7  UNK     1      19.150   1.123  16.397  1.00  0.00     0.089 A 
HETATM   10  C12 UNK     1      19.201   2.467  16.761  1.00  0.00     0.041 A 
HETATM   11  C2  UNK     1      18.978   0.114  17.340  1.00  0.00     0.001 A 
HETATM   12  C17 UNK     1      19.074   2.807  18.106  1.00  0.00     0.039 A 
HETATM   13  C13 UNK     1      18.901   1.809  19.067  1.00  0.00     0.103 A 
HETATM   14  C10 UNK     1      18.852   0.464  18.686  1.00  0.00     0.050 A 
HETATM   15  C8  UNK     1      18.934  -1.269  16.891  1.00  0.00     0.037 A 
BRANCH  13  16
HETATM   16  N4  UNK     1      18.773   2.161  20.436  1.00  0.00    -0.116 N 
HETATM   17  O4  UNK     1      17.637   2.125  20.969  1.00  0.00    -0.532 OA
HETATM   18  O5  UNK     1      19.798   2.499  21.077  1.00  0.00    -0.532 OA
ENDBRANCH  13  16
ENDBRANCH   3   5
BRANCH   2  19
HETATM   19  C4  UNK     1      20.578  -4.828  14.571  1.00  0.00     0.071 A 
HETATM   20  C11 UNK     1      21.342  -5.739  15.272  1.00  0.00     0.169 A 
HETATM   21  N3  UNK     1      21.439  -6.899  14.616  1.00  0.00    -0.183 NA
HETATM   22  N1  UNK     1      20.719  -6.680  13.503  1.00  0.00    -0.275 N 
HETATM   23  C5  UNK     1      20.176  -5.431  13.434  1.00  0.00     0.143 A 
BRANCH  22  24
HETATM   24  C1  UNK     1      20.583  -7.727  12.519  1.00  0.00     0.189 C 
BRANCH  24  25
HETATM   25  C3  UNK     1      21.918  -8.106  11.935  1.00  0.00    -0.038 A 
HETATM   26  C15 UNK     1      22.613  -9.187  12.460  1.00  0.00     0.012 A 
HETATM   27  C18 UNK     1      23.849  -9.539  11.918  1.00  0.00     0.043 A 
HETATM   28  C20 UNK     1      24.378  -8.806  10.855  1.00  0.00     0.116 A 
HETATM   29  C19 UNK     1      23.672  -7.722  10.335  1.00  0.00     0.043 A 
HETATM   30  F1  UNK     1      25.565  -9.144  10.335  1.00  0.00    -0.206 F 
HETATM   31  C16 UNK     1      22.436  -7.370  10.877  1.00  0.00     0.012 A 
ENDBRANCH  24  25
ENDBRANCH  22  24
ENDBRANCH   2  19
TORSDOF 5
ENDMDL
MODEL 9
REMARK VINA RESULT:      -9.3      8.141     11.106
REMARK  5 active torsions:
REMARK  status: ('A' for Active; 'I' for Inactive)
REMARK    1  A    between atoms: C1_11  and  N1_7 
REMARK    2  A    between atoms: C4_14  and  N2_8 
REMARK       I    between atoms: C9_19  and  N2_8 
REMARK    3  A    between atoms: C13_23  and  N4_10 
REMARK    4  A    between atoms: C1_11  and  C3_13 
REMARK    5  A    between atoms: C6_16  and  C9_19 
ROOT
HETATM    1  O2  UNK     1      25.480  -8.501  39.316  1.00  0.00    -0.267 OA
HETATM    2  N2  UNK     1      26.133  -8.854  37.082  1.00  0.00    -0.320 N 
HETATM    3  C9  UNK     1      26.185  -8.264  38.338  1.00  0.00     0.262 C 
HETATM    4  H5  UNK     1      26.775  -8.538  36.358  1.00  0.00     0.169 HD
ENDROOT
BRANCH   3   5
HETATM    5  C6  UNK     1      27.239  -7.247  38.428  1.00  0.00     0.108 A 
HETATM    6  C14 UNK     1      26.938  -5.828  38.725  1.00  0.00     0.304 A 
HETATM    7  O1  UNK     1      28.024  -4.958  38.785  1.00  0.00    -0.274 OA
HETATM    8  O3  UNK     1      25.792  -5.433  38.911  1.00  0.00    -0.259 OA
HETATM    9  C7  UNK     1      29.344  -5.401  38.572  1.00  0.00     0.089 A 
HETATM   10  C12 UNK     1      30.364  -4.456  38.652  1.00  0.00     0.041 A 
HETATM   11  C2  UNK     1      29.604  -6.739  38.294  1.00  0.00     0.001 A 
HETATM   12  C17 UNK     1      31.680  -4.864  38.448  1.00  0.00     0.039 A 
HETATM   13  C13 UNK     1      31.962  -6.203  38.167  1.00  0.00     0.103 A 
HETATM   14  C10 UNK     1      30.927  -7.140  38.090  1.00  0.00     0.050 A 
HETATM   15  C8  UNK     1      28.491  -7.673  38.226  1.00  0.00     0.037 A 
BRANCH  13  16
HETATM   16  N4  UNK     1      33.305  -6.614  37.959  1.00  0.00    -0.116 N 
HETATM   17  O4  UNK     1      34.198  -5.740  37.844  1.00  0.00    -0.532 OA
HETATM   18  O5  UNK     1      33.562  -7.841  37.897  1.00  0.00    -0.532 OA
ENDBRANCH  13  16
ENDBRANCH   3   5
BRANCH   2  19
HETATM   19  C4  UNK     1      25.249  -9.867  36.639  1.00  0.00     0.071 A 
HETATM   20  C11 UNK     1      25.552 -11.184  36.361  1.00  0.00     0.169 A 
HETATM   21  N3  UNK     1      24.468 -11.858  35.964  1.00  0.00    -0.183 NA
HETATM   22  N1  UNK     1      23.499 -10.929  36.006  1.00  0.00    -0.275 N 
HETATM   23  C5  UNK     1      23.931  -9.700  36.412  1.00  0.00     0.143 A 
BRANCH  22  24
HETATM   24  C1  UNK     1      22.149 -11.283  35.637  1.00  0.00     0.189 C 
BRANCH  24  25
HETATM   25  C3  UNK     1      21.144 -10.393  36.318  1.00  0.00    -0.038 A 
HETATM   26  C15 UNK     1      20.563 -10.803  37.511  1.00  0.00     0.012 A 
HETATM   27  C18 UNK     1      19.632  -9.978  38.141  1.00  0.00     0.043 A 
HETATM   28  C20 UNK     1      19.291  -8.751  37.573  1.00  0.00     0.116 A 
HETATM   29  C19 UNK     1      19.880  -8.348  36.375  1.00  0.00     0.043 A 
HETATM   30  F1  UNK     1      18.397  -7.958  38.179  1.00  0.00    -0.206 F 
HETATM   31  C16 UNK     1      20.811  -9.173  35.744  1.00  0.00     0.012 A 
ENDBRANCH  24  25
ENDBRANCH  22  24
ENDBRANCH   2  19
TORSDOF 5
ENDMDL
MODEL 10
REMARK VINA RESULT:      -9.3      2.803      3.412
REMARK  5 active torsions:
REMARK  status: ('A' for Active; 'I' for Inactive)
REMARK    1  A    between atoms: C1_11  and  N1_7 
REMARK    2  A    between atoms: C4_14  and  N2_8 
REMARK       I    between atoms: C9_19  and  N2_8 
REMARK    3  A    between atoms: C13_23  and  N4_10 
REMARK    4  A    between atoms: C1_11  and  C3_13 
REMARK    5  A    between atoms: C6_16  and  C9_19 
ROOT
HETATM    1  O2  UNK     1      17.450  -1.263  36.042  1.00  0.00    -0.267 OA
HETATM    2  N2  UNK     1      19.509  -2.047  35.210  1.00  0.00    -0.320 N 
HETATM    3  C9  UNK     1      18.393  -1.221  35.254  1.00  0.00     0.262 C 
HETATM    4  H5  UNK     1      20.204  -1.903  34.481  1.00  0.00     0.169 HD
ENDROOT
BRANCH   3   5
HETATM    5  C6  UNK     1      18.419  -0.198  34.203  1.00  0.00     0.108 A 
HETATM    6  C14 UNK     1      18.592  -0.543  32.774  1.00  0.00     0.304 A 
HETATM    7  O1  UNK     1      18.599   0.516  31.871  1.00  0.00    -0.274 OA
HETATM    8  O3  UNK     1      18.722  -1.704  32.399  1.00  0.00    -0.259 OA
HETATM    9  C7  UNK     1      18.452   1.852  32.291  1.00  0.00     0.089 A 
HETATM   10  C12 UNK     1      18.472   2.844  31.313  1.00  0.00     0.041 A 
HETATM   11  C2  UNK     1      18.291   2.155  33.640  1.00  0.00     0.001 A 
HETATM   12  C17 UNK     1      18.328   4.175  31.699  1.00  0.00     0.039 A 
HETATM   13  C13 UNK     1      18.166   4.499  33.047  1.00  0.00     0.103 A 
HETATM   14  C10 UNK     1      18.147   3.492  34.018  1.00  0.00     0.050 A 
HETATM   15  C8  UNK     1      18.278   1.070  34.608  1.00  0.00     0.037 A 
BRANCH  13  16
HETATM   16  N4  UNK     1      18.019   5.857  33.436  1.00  0.00    -0.116 N 
HETATM   17  O4  UNK     1      16.866   6.351  33.496  1.00  0.00    -0.532 OA
HETATM   18  O5  UNK     1      19.045   6.527  33.707  1.00  0.00    -0.532 OA
ENDBRANCH  13  16
ENDBRANCH   3   5
BRANCH   2  19
HETATM   19  C4  UNK     1      19.815  -3.133  36.065  1.00  0.00     0.071 A 
HETATM   20  C11 UNK     1      20.838  -3.214  36.987  1.00  0.00     0.169 A 
HETATM   21  N3  UNK     1      20.829  -4.390  37.620  1.00  0.00    -0.183 NA
HETATM   22  N1  UNK     1      19.782  -5.026  37.067  1.00  0.00    -0.275 N 
HETATM   23  C5  UNK     1      19.135  -4.296  36.114  1.00  0.00     0.143 A 
BRANCH  22  24
HETATM   24  C1  UNK     1      19.442  -6.360  37.501  1.00  0.00     0.189 C 
BRANCH  24  25
HETATM   25  C3  UNK     1      20.441  -7.369  37.004  1.00  0.00    -0.038 A 
HETATM   26  C15 UNK     1      20.317  -7.881  35.719  1.00  0.00     0.012 A 
HETATM   27  C18 UNK     1      21.243  -8.816  35.258  1.00  0.00     0.043 A 
HETATM   28  C20 UNK     1      22.286  -9.231  36.087  1.00  0.00     0.116 A 
HETATM   29  C19 UNK     1      22.402  -8.711  37.376  1.00  0.00     0.043 A 
HETATM   30  F1  UNK     1      23.176 -10.129  35.644  1.00  0.00    -0.206 F 
HETATM   31  C16 UNK     1      21.476  -7.776  37.837  1.00  0.00     0.012 A 
ENDBRANCH  24  25
ENDBRANCH  22  24
ENDBRANCH   2  19
TORSDOF 5
ENDMDL
