MODEL 1
REMARK VINA RESULT:      -9.3      0.000      0.000
REMARK  4 active torsions:
REMARK  status: ('A' for Active; 'I' for Inactive)
REMARK    1  A    between atoms: C11_15  and  O2_2 
REMARK    2  A    between atoms: C4_8  and  O2_2 
REMARK    3  A    between atoms: C11_15  and  C14_18 
REMARK    4  A    between atoms: C13_17  and  C14_18 
ROOT
HETATM    1  O1  UNK     1      20.352   7.993  33.592  1.00  0.00    -0.274 OA
HETATM    2  O3  UNK     1      20.958   9.797  34.858  1.00  0.00    -0.260 OA
HETATM    3  C1  UNK     1      17.985   7.433  33.363  1.00  0.00     0.005 A 
HETATM    4  C2  UNK     1      19.327   7.176  33.076  1.00  0.00     0.099 A 
HETATM    5  C3  UNK     1      19.725   6.108  32.269  1.00  0.00     0.006 A 
HETATM    6  C4  UNK     1      18.756   5.267  31.730  1.00  0.00     0.078 A 
HETATM    7  C5  UNK     1      17.658   8.580  34.222  1.00  0.00    -0.043 A 
HETATM    8  C6  UNK     1      17.025   6.575  32.812  1.00  0.00     0.017 A 
HETATM    9  C7  UNK     1      17.409   5.500  32.001  1.00  0.00     0.038 A 
HETATM   10  C8  UNK     1      21.171   5.866  31.983  1.00  0.00     0.054 C 
HETATM   11  C9  UNK     1      18.654   9.340  34.699  1.00  0.00     0.090 A 
HETATM   12  C10 UNK     1      16.225   8.883  34.550  1.00  0.00     0.049 C 
HETATM   13  C12 UNK     1      20.073   9.081  34.404  1.00  0.00     0.288 A 
ENDROOT
BRANCH   6  14
HETATM   14  O2  UNK     1      19.105   4.215  30.938  1.00  0.00    -0.343 OA
BRANCH  14  15
HETATM   15  C11 UNK     1      18.183   3.129  30.861  1.00  0.00     0.259 C 
BRANCH  15  16
HETATM   16  C14 UNK     1      18.459   2.301  29.621  1.00  0.00     0.183 C 
HETATM   17  O4  UNK     1      18.174   2.708  28.497  1.00  0.00    -0.290 OA
BRANCH  16  18
HETATM   18  C13 UNK     1      19.093   0.961  29.781  1.00  0.00     0.012 A 
HETATM   19  C15 UNK     1      19.310   0.480  31.052  1.00  0.00     0.016 A 
HETATM   20  C18 UNK     1      19.901  -0.775  31.202  1.00  0.00     0.007 A 
HETATM   21  C17 UNK     1      20.257  -1.516  30.074  1.00  0.00    -0.062 A 
HETATM   22  C19 UNK     1      20.023  -1.003  28.800  1.00  0.00     0.007 A 
HETATM   23  C20 UNK     1      20.889  -2.858  30.234  1.00  0.00     0.048 C 
HETATM   24  C16 UNK     1      19.433   0.252  28.651  1.00  0.00     0.016 A 
ENDBRANCH  16  18
ENDBRANCH  15  16
ENDBRANCH  14  15
ENDBRANCH   6  14
TORSDOF 4
ENDMDL
MODEL 2
REMARK VINA RESULT:      -9.2      1.600      2.468
REMARK  4 active torsions:
REMARK  status: ('A' for Active; 'I' for Inactive)
REMARK    1  A    between atoms: C11_15  and  O2_2 
REMARK    2  A    between atoms: C4_8  and  O2_2 
REMARK    3  A    between atoms: C11_15  and  C14_18 
REMARK    4  A    between atoms: C13_17  and  C14_18 
ROOT
HETATM    1  O1  UNK     1      16.727   9.126  33.252  1.00  0.00    -0.274 OA
HETATM    2  O3  UNK     1      16.374  11.290  33.898  1.00  0.00    -0.260 OA
HETATM    3  C1  UNK     1      18.949   8.146  33.517  1.00  0.00     0.005 A 
HETATM    4  C2  UNK     1      17.615   8.040  33.120  1.00  0.00     0.099 A 
HETATM    5  C3  UNK     1      17.090   6.866  32.576  1.00  0.00     0.006 A 
HETATM    6  C4  UNK     1      17.921   5.760  32.421  1.00  0.00     0.078 A 
HETATM    7  C5  UNK     1      19.416   9.421  34.080  1.00  0.00    -0.043 A 
HETATM    8  C6  UNK     1      19.769   7.022  33.353  1.00  0.00     0.017 A 
HETATM    9  C7  UNK     1      19.257   5.838  32.809  1.00  0.00     0.038 A 
HETATM   10  C8  UNK     1      15.656   6.791  32.163  1.00  0.00     0.054 C 
HETATM   11  C9  UNK     1      18.548  10.437  34.194  1.00  0.00     0.090 A 
HETATM   12  C10 UNK     1      20.844   9.568  34.516  1.00  0.00     0.049 C 
HETATM   13  C12 UNK     1      17.139  10.339  33.780  1.00  0.00     0.288 A 
ENDROOT
BRANCH   6  14
HETATM   14  O2  UNK     1      17.446   4.597  31.895  1.00  0.00    -0.343 OA
BRANCH  14  15
HETATM   15  C11 UNK     1      18.289   3.450  31.993  1.00  0.00     0.259 C 
BRANCH  15  16
HETATM   16  C14 UNK     1      18.549   2.878  30.612  1.00  0.00     0.183 C 
HETATM   17  O4  UNK     1      18.330   3.528  29.593  1.00  0.00    -0.290 OA
BRANCH  16  18
HETATM   18  C13 UNK     1      19.083   1.490  30.501  1.00  0.00     0.012 A 
HETATM   19  C15 UNK     1      19.093   0.694  31.623  1.00  0.00     0.016 A 
HETATM   20  C18 UNK     1      19.590  -0.605  31.518  1.00  0.00     0.007 A 
HETATM   21  C17 UNK     1      20.064  -1.073  30.291  1.00  0.00    -0.062 A 
HETATM   22  C19 UNK     1      20.039  -0.243  29.172  1.00  0.00     0.007 A 
HETATM   23  C20 UNK     1      20.597  -2.462  30.179  1.00  0.00     0.048 C 
HETATM   24  C16 UNK     1      19.542   1.056  29.278  1.00  0.00     0.016 A 
ENDBRANCH  16  18
ENDBRANCH  15  16
ENDBRANCH  14  15
ENDBRANCH   6  14
TORSDOF 4
ENDMDL
MODEL 3
REMARK VINA RESULT:      -9.2      2.298      8.778
REMARK  4 active torsions:
REMARK  status: ('A' for Active; 'I' for Inactive)
REMARK    1  A    between atoms: C11_15  and  O2_2 
REMARK    2  A    between atoms: C4_8  and  O2_2 
REMARK    3  A    between atoms: C11_15  and  C14_18 
REMARK    4  A    between atoms: C13_17  and  C14_18 
ROOT
HETATM    1  O1  UNK     1      19.366  -0.500  32.804  1.00  0.00    -0.274 OA
HETATM    2  O3  UNK     1      20.193  -2.613  33.083  1.00  0.00    -0.260 OA
HETATM    3  C1  UNK     1      19.365   0.499  30.575  1.00  0.00     0.005 A 
HETATM    4  C2  UNK     1      19.080   0.575  31.939  1.00  0.00     0.099 A 
HETATM    5  C3  UNK     1      18.502   1.707  32.519  1.00  0.00     0.006 A 
HETATM    6  C4  UNK     1      18.197   2.800  31.714  1.00  0.00     0.078 A 
HETATM    7  C5  UNK     1      19.974  -0.731  30.051  1.00  0.00    -0.043 A 
HETATM    8  C6  UNK     1      19.051   1.611  29.781  1.00  0.00     0.017 A 
HETATM    9  C7  UNK     1      18.471   2.752  30.348  1.00  0.00     0.038 A 
HETATM   10  C8  UNK     1      18.212   1.750  33.984  1.00  0.00     0.054 C 
HETATM   11  C9  UNK     1      20.234  -1.738  30.898  1.00  0.00     0.090 A 
HETATM   12  C10 UNK     1      20.292  -0.844  28.589  1.00  0.00     0.049 C 
HETATM   13  C12 UNK     1      19.940  -1.672  32.339  1.00  0.00     0.288 A 
ENDROOT
BRANCH   6  14
HETATM   14  O2  UNK     1      17.633   3.922  32.242  1.00  0.00    -0.343 OA
BRANCH  14  15
HETATM   15  C11 UNK     1      18.299   5.159  31.996  1.00  0.00     0.259 C 
BRANCH  15  16
HETATM   16  C14 UNK     1      18.780   5.758  33.304  1.00  0.00     0.183 C 
HETATM   17  O4  UNK     1      19.301   5.068  34.176  1.00  0.00    -0.290 OA
BRANCH  16  18
HETATM   18  C13 UNK     1      18.611   7.223  33.525  1.00  0.00     0.012 A 
HETATM   19  C15 UNK     1      19.656   7.935  34.067  1.00  0.00     0.016 A 
HETATM   20  C18 UNK     1      19.498   9.306  34.272  1.00  0.00     0.007 A 
HETATM   21  C17 UNK     1      18.297   9.928  33.928  1.00  0.00    -0.062 A 
HETATM   22  C19 UNK     1      17.257   9.180  33.380  1.00  0.00     0.007 A 
HETATM   23  C20 UNK     1      18.128  11.393  34.148  1.00  0.00     0.048 C 
HETATM   24  C16 UNK     1      17.415   7.809  33.176  1.00  0.00     0.016 A 
ENDBRANCH  16  18
ENDBRANCH  15  16
ENDBRANCH  14  15
ENDBRANCH   6  14
TORSDOF 4
ENDMDL
MODEL 4
REMARK VINA RESULT:      -9.1      2.119      8.007
REMARK  4 active torsions:
REMARK  status: ('A' for Active; 'I' for Inactive)
REMARK    1  A    between atoms: C11_15  and  O2_2 
REMARK    2  A    between atoms: C4_8  and  O2_2 
REMARK    3  A    between atoms: C11_15  and  C14_18 
REMARK    4  A    between atoms: C13_17  and  C14_18 
ROOT
HETATM    1  O1  UNK     1      19.038   0.133  33.105  1.00  0.00    -0.274 OA
HETATM    2  O3  UNK     1      19.465  -1.682  34.427  1.00  0.00    -0.260 OA
HETATM    3  C1  UNK     1      19.513   0.009  30.712  1.00  0.00     0.005 A 
HETATM    4  C2  UNK     1      19.054   0.718  31.823  1.00  0.00     0.099 A 
HETATM    5  C3  UNK     1      18.590   2.032  31.730  1.00  0.00     0.006 A 
HETATM    6  C4  UNK     1      18.582   2.662  30.489  1.00  0.00     0.078 A 
HETATM    7  C5  UNK     1      19.984  -1.370  30.903  1.00  0.00    -0.043 A 
HETATM    8  C6  UNK     1      19.498   0.661  29.472  1.00  0.00     0.017 A 
HETATM    9  C7  UNK     1      19.035   1.978  29.363  1.00  0.00     0.038 A 
HETATM   10  C8  UNK     1      18.106   2.758  32.943  1.00  0.00     0.054 C 
HETATM   11  C9  UNK     1      19.956  -1.901  32.134  1.00  0.00     0.090 A 
HETATM   12  C10 UNK     1      20.483  -2.159  29.728  1.00  0.00     0.049 C 
HETATM   13  C12 UNK     1      19.475  -1.165  33.315  1.00  0.00     0.288 A 
ENDROOT
BRANCH   6  14
HETATM   14  O2  UNK     1      18.137   3.942  30.357  1.00  0.00    -0.343 OA
BRANCH  14  15
HETATM   15  C11 UNK     1      18.996   4.860  29.682  1.00  0.00     0.259 C 
BRANCH  15  16
HETATM   16  C14 UNK     1      19.808   5.649  30.691  1.00  0.00     0.183 C 
HETATM   17  O4  UNK     1      21.017   5.816  30.557  1.00  0.00    -0.290 OA
BRANCH  16  18
HETATM   18  C13 UNK     1      19.110   6.234  31.872  1.00  0.00     0.012 A 
HETATM   19  C15 UNK     1      17.872   6.809  31.692  1.00  0.00     0.016 A 
HETATM   20  C18 UNK     1      17.219   7.353  32.798  1.00  0.00     0.007 A 
HETATM   21  C17 UNK     1      17.821   7.306  34.056  1.00  0.00    -0.062 A 
HETATM   22  C19 UNK     1      19.075   6.716  34.207  1.00  0.00     0.007 A 
HETATM   23  C20 UNK     1      17.123   7.889  35.238  1.00  0.00     0.048 C 
HETATM   24  C16 UNK     1      19.728   6.173  33.101  1.00  0.00     0.016 A 
ENDBRANCH  16  18
ENDBRANCH  15  16
ENDBRANCH  14  15
ENDBRANCH   6  14
TORSDOF 4
ENDMDL
MODEL 5
REMARK VINA RESULT:      -9.0      2.324      8.660
REMARK  4 active torsions:
REMARK  status: ('A' for Active; 'I' for Inactive)
REMARK    1  A    between atoms: C11_15  and  O2_2 
REMARK    2  A    between atoms: C4_8  and  O2_2 
REMARK    3  A    between atoms: C11_15  and  C14_18 
REMARK    4  A    between atoms: C13_17  and  C14_18 
ROOT
HETATM    1  O1  UNK     1      19.290  -0.406  32.830  1.00  0.00    -0.274 OA
HETATM    2  O3  UNK     1      20.106  -2.511  33.190  1.00  0.00    -0.260 OA
HETATM    3  C1  UNK     1      19.415   0.559  30.590  1.00  0.00     0.005 A 
HETATM    4  C2  UNK     1      19.051   0.654  31.934  1.00  0.00     0.099 A 
HETATM    5  C3  UNK     1      18.437   1.793  32.461  1.00  0.00     0.006 A 
HETATM    6  C4  UNK     1      18.176   2.872  31.623  1.00  0.00     0.078 A 
HETATM    7  C5  UNK     1      20.058  -0.677  30.122  1.00  0.00    -0.043 A 
HETATM    8  C6  UNK     1      19.144   1.657  29.762  1.00  0.00     0.017 A 
HETATM    9  C7  UNK     1      18.529   2.804  30.277  1.00  0.00     0.038 A 
HETATM   10  C8  UNK     1      18.062   1.856  33.906  1.00  0.00     0.054 C 
HETATM   11  C9  UNK     1      20.272  -1.670  30.997  1.00  0.00     0.090 A 
HETATM   12  C10 UNK     1      20.461  -0.811  28.682  1.00  0.00     0.049 C 
HETATM   13  C12 UNK     1      19.894  -1.583  32.418  1.00  0.00     0.288 A 
ENDROOT
BRANCH   6  14
HETATM   14  O2  UNK     1      17.578   3.999  32.100  1.00  0.00    -0.343 OA
BRANCH  14  15
HETATM   15  C11 UNK     1      18.419   5.125  32.343  1.00  0.00     0.259 C 
BRANCH  15  16
HETATM   16  C14 UNK     1      17.902   6.333  31.586  1.00  0.00     0.183 C 
HETATM   17  O4  UNK     1      18.254   6.570  30.433  1.00  0.00    -0.290 OA
BRANCH  16  18
HETATM   18  C13 UNK     1      16.943   7.249  32.268  1.00  0.00     0.012 A 
HETATM   19  C15 UNK     1      15.596   6.988  32.171  1.00  0.00     0.016 A 
HETATM   20  C18 UNK     1      14.700   7.844  32.811  1.00  0.00     0.007 A 
HETATM   21  C17 UNK     1      15.177   8.940  33.532  1.00  0.00    -0.062 A 
HETATM   22  C19 UNK     1      16.548   9.178  33.612  1.00  0.00     0.007 A 
HETATM   23  C20 UNK     1      14.219   9.856  34.216  1.00  0.00     0.048 C 
HETATM   24  C16 UNK     1      17.444   8.322  32.972  1.00  0.00     0.016 A 
ENDBRANCH  16  18
ENDBRANCH  15  16
ENDBRANCH  14  15
ENDBRANCH   6  14
TORSDOF 4
ENDMDL
MODEL 6
REMARK VINA RESULT:      -8.9      4.212      7.768
REMARK  4 active torsions:
REMARK  status: ('A' for Active; 'I' for Inactive)
REMARK    1  A    between atoms: C11_15  and  O2_2 
REMARK    2  A    between atoms: C4_8  and  O2_2 
REMARK    3  A    between atoms: C11_15  and  C14_18 
REMARK    4  A    between atoms: C13_17  and  C14_18 
ROOT
HETATM    1  O1  UNK     1      18.465  -1.569  35.252  1.00  0.00    -0.274 OA
HETATM    2  O3  UNK     1      18.414  -3.226  36.826  1.00  0.00    -0.260 OA
HETATM    3  C1  UNK     1      18.093   0.745  35.938  1.00  0.00     0.005 A 
HETATM    4  C2  UNK     1      18.354  -0.199  34.944  1.00  0.00     0.099 A 
HETATM    5  C3  UNK     1      18.519   0.156  33.603  1.00  0.00     0.006 A 
HETATM    6  C4  UNK     1      18.421   1.495  33.239  1.00  0.00     0.078 A 
HETATM    7  C5  UNK     1      17.934   0.282  37.323  1.00  0.00    -0.043 A 
HETATM    8  C6  UNK     1      17.998   2.089  35.551  1.00  0.00     0.017 A 
HETATM    9  C7  UNK     1      18.161   2.459  34.211  1.00  0.00     0.038 A 
HETATM   10  C8  UNK     1      18.797  -0.885  32.568  1.00  0.00     0.054 C 
HETATM   11  C9  UNK     1      18.045  -1.028  37.587  1.00  0.00     0.090 A 
HETATM   12  C10 UNK     1      17.653   1.272  38.415  1.00  0.00     0.049 C 
HETATM   13  C12 UNK     1      18.320  -2.035  36.548  1.00  0.00     0.288 A 
ENDROOT
BRANCH   6  14
HETATM   14  O2  UNK     1      18.575   1.881  31.942  1.00  0.00    -0.343 OA
BRANCH  14  15
HETATM   15  C11 UNK     1      17.751   2.950  31.481  1.00  0.00     0.259 C 
BRANCH  15  16
HETATM   16  C14 UNK     1      18.614   4.108  31.019  1.00  0.00     0.183 C 
HETATM   17  O4  UNK     1      19.114   4.132  29.897  1.00  0.00    -0.290 OA
BRANCH  16  18
HETATM   18  C13 UNK     1      18.855   5.242  31.958  1.00  0.00     0.012 A 
HETATM   19  C15 UNK     1      20.126   5.757  32.060  1.00  0.00     0.016 A 
HETATM   20  C18 UNK     1      20.351   6.819  32.937  1.00  0.00     0.007 A 
HETATM   21  C17 UNK     1      19.295   7.337  33.688  1.00  0.00    -0.062 A 
HETATM   22  C19 UNK     1      18.017   6.794  33.562  1.00  0.00     0.007 A 
HETATM   23  C20 UNK     1      19.535   8.471  34.627  1.00  0.00     0.048 C 
HETATM   24  C16 UNK     1      17.793   5.732  32.686  1.00  0.00     0.016 A 
ENDBRANCH  16  18
ENDBRANCH  15  16
ENDBRANCH  14  15
ENDBRANCH   6  14
TORSDOF 4
ENDMDL
MODEL 7
REMARK VINA RESULT:      -8.9      7.104      9.690
REMARK  4 active torsions:
REMARK  status: ('A' for Active; 'I' for Inactive)
REMARK    1  A    between atoms: C11_15  and  O2_2 
REMARK    2  A    between atoms: C4_8  and  O2_2 
REMARK    3  A    between atoms: C11_15  and  C14_18 
REMARK    4  A    between atoms: C13_17  and  C14_18 
ROOT
HETATM    1  O1  UNK     1      18.851  -0.139  33.945  1.00  0.00    -0.274 OA
HETATM    2  O3  UNK     1      18.029   1.744  32.943  1.00  0.00    -0.260 OA
HETATM    3  C1  UNK     1      18.394  -0.531  36.313  1.00  0.00     0.005 A 
HETATM    4  C2  UNK     1      18.978  -0.925  35.108  1.00  0.00     0.099 A 
HETATM    5  C3  UNK     1      19.712  -2.107  34.986  1.00  0.00     0.006 A 
HETATM    6  C4  UNK     1      19.870  -2.925  36.101  1.00  0.00     0.078 A 
HETATM    7  C5  UNK     1      17.639   0.729  36.349  1.00  0.00    -0.043 A 
HETATM    8  C6  UNK     1      18.566  -1.368  37.424  1.00  0.00     0.017 A 
HETATM    9  C7  UNK     1      19.299  -2.555  37.317  1.00  0.00     0.038 A 
HETATM   10  C8  UNK     1      20.321  -2.496  33.678  1.00  0.00     0.054 C 
HETATM   11  C9  UNK     1      17.534   1.456  35.227  1.00  0.00     0.090 A 
HETATM   12  C10 UNK     1      17.000   1.181  37.630  1.00  0.00     0.049 C 
HETATM   13  C12 UNK     1      18.145   1.053  33.949  1.00  0.00     0.288 A 
ENDROOT
BRANCH   6  14
HETATM   14  O2  UNK     1      20.579  -4.085  36.022  1.00  0.00    -0.343 OA
BRANCH  14  15
HETATM   15  C11 UNK     1      20.510  -4.963  37.144  1.00  0.00     0.259 C 
BRANCH  15  16
HETATM   16  C14 UNK     1      19.707  -6.200  36.788  1.00  0.00     0.183 C 
HETATM   17  O4  UNK     1      18.482  -6.174  36.713  1.00  0.00    -0.290 OA
BRANCH  16  18
HETATM   18  C13 UNK     1      20.435  -7.474  36.524  1.00  0.00     0.012 A 
HETATM   19  C15 UNK     1      20.736  -7.807  35.223  1.00  0.00     0.016 A 
HETATM   20  C18 UNK     1      21.419  -8.999  34.977  1.00  0.00     0.007 A 
HETATM   21  C17 UNK     1      21.783  -9.825  36.041  1.00  0.00    -0.062 A 
HETATM   22  C19 UNK     1      21.464  -9.461  37.348  1.00  0.00     0.007 A 
HETATM   23  C20 UNK     1      22.512 -11.100  35.778  1.00  0.00     0.048 C 
HETATM   24  C16 UNK     1      20.782  -8.270  37.594  1.00  0.00     0.016 A 
ENDBRANCH  16  18
ENDBRANCH  15  16
ENDBRANCH  14  15
ENDBRANCH   6  14
TORSDOF 4
ENDMDL
MODEL 8
REMARK VINA RESULT:      -8.8      1.736      8.685
REMARK  4 active torsions:
REMARK  status: ('A' for Active; 'I' for Inactive)
REMARK    1  A    between atoms: C11_15  and  O2_2 
REMARK    2  A    between atoms: C4_8  and  O2_2 
REMARK    3  A    between atoms: C11_15  and  C14_18 
REMARK    4  A    between atoms: C13_17  and  C14_18 
ROOT
HETATM    1  O1  UNK     1      19.646   0.872  29.566  1.00  0.00    -0.274 OA
HETATM    2  O3  UNK     1      20.608  -0.633  28.139  1.00  0.00    -0.260 OA
HETATM    3  C1  UNK     1      19.245   0.230  31.889  1.00  0.00     0.005 A 
HETATM    4  C2  UNK     1      19.175   1.171  30.860  1.00  0.00     0.099 A 
HETATM    5  C3  UNK     1      18.641   2.447  31.052  1.00  0.00     0.006 A 
HETATM    6  C4  UNK     1      18.161   2.799  32.309  1.00  0.00     0.078 A 
HETATM    7  C5  UNK     1      19.823  -1.089  31.597  1.00  0.00    -0.043 A 
HETATM    8  C6  UNK     1      18.756   0.604  33.148  1.00  0.00     0.017 A 
HETATM    9  C7  UNK     1      18.218   1.880  33.355  1.00  0.00     0.038 A 
HETATM   10  C8  UNK     1      18.585   3.427  29.926  1.00  0.00     0.054 C 
HETATM   11  C9  UNK     1      20.263  -1.345  30.357  1.00  0.00     0.090 A 
HETATM   12  C10 UNK     1      19.912  -2.123  32.681  1.00  0.00     0.049 C 
HETATM   13  C12 UNK     1      20.196  -0.363  29.262  1.00  0.00     0.288 A 
ENDROOT
BRANCH   6  14
HETATM   14  O2  UNK     1      17.633   4.035  32.536  1.00  0.00    -0.343 OA
BRANCH  14  15
HETATM   15  C11 UNK     1      18.246   4.823  33.555  1.00  0.00     0.259 C 
BRANCH  15  16
HETATM   16  C14 UNK     1      19.003   5.980  32.932  1.00  0.00     0.183 C 
HETATM   17  O4  UNK     1      19.931   5.797  32.149  1.00  0.00    -0.290 OA
BRANCH  16  18
HETATM   18  C13 UNK     1      18.602   7.372  33.287  1.00  0.00     0.012 A 
HETATM   19  C15 UNK     1      17.333   7.797  32.968  1.00  0.00     0.016 A 
HETATM   20  C18 UNK     1      16.958   9.098  33.302  1.00  0.00     0.007 A 
HETATM   21  C17 UNK     1      17.864   9.940  33.949  1.00  0.00    -0.062 A 
HETATM   22  C19 UNK     1      19.142   9.480  34.260  1.00  0.00     0.007 A 
HETATM   23  C20 UNK     1      17.463  11.332  34.305  1.00  0.00     0.048 C 
HETATM   24  C16 UNK     1      19.517   8.180  33.925  1.00  0.00     0.016 A 
ENDBRANCH  16  18
ENDBRANCH  15  16
ENDBRANCH  14  15
ENDBRANCH   6  14
TORSDOF 4
ENDMDL
MODEL 9
REMARK VINA RESULT:      -8.8      8.319     12.622
REMARK  4 active torsions:
REMARK  status: ('A' for Active; 'I' for Inactive)
REMARK    1  A    between atoms: C11_15  and  O2_2 
REMARK    2  A    between atoms: C4_8  and  O2_2 
REMARK    3  A    between atoms: C11_15  and  C14_18 
REMARK    4  A    between atoms: C13_17  and  C14_18 
ROOT
HETATM    1  O1  UNK     1      19.127  -8.383  38.013  1.00  0.00    -0.274 OA
HETATM    2  O3  UNK     1      19.059 -10.535  38.780  1.00  0.00    -0.260 OA
HETATM    3  C1  UNK     1      21.090  -7.007  38.480  1.00  0.00     0.005 A 
HETATM    4  C2  UNK     1      19.827  -7.165  37.909  1.00  0.00     0.099 A 
HETATM    5  C3  UNK     1      19.191  -6.136  37.210  1.00  0.00     0.006 A 
HETATM    6  C4  UNK     1      19.834  -4.910  37.074  1.00  0.00     0.078 A 
HETATM    7  C5  UNK     1      21.683  -8.144  39.199  1.00  0.00    -0.043 A 
HETATM    8  C6  UNK     1      21.722  -5.765  38.333  1.00  0.00     0.017 A 
HETATM    9  C7  UNK     1      21.097  -4.725  37.635  1.00  0.00     0.038 A 
HETATM   10  C8  UNK     1      17.838  -6.344  36.612  1.00  0.00     0.054 C 
HETATM   11  C9  UNK     1      20.994  -9.291  39.281  1.00  0.00     0.090 A 
HETATM   12  C10 UNK     1      23.041  -8.007  39.825  1.00  0.00     0.049 C 
HETATM   13  C12 UNK     1      19.661  -9.471  38.684  1.00  0.00     0.288 A 
ENDROOT
BRANCH   6  14
HETATM   14  O2  UNK     1      19.247  -3.883  36.399  1.00  0.00    -0.343 OA
BRANCH  14  15
HETATM   15  C11 UNK     1      19.889  -2.611  36.470  1.00  0.00     0.259 C 
BRANCH  15  16
HETATM   16  C14 UNK     1      19.210  -1.633  35.530  1.00  0.00     0.183 C 
HETATM   17  O4  UNK     1      18.415  -0.791  35.940  1.00  0.00    -0.290 OA
BRANCH  16  18
HETATM   18  C13 UNK     1      19.522  -1.706  34.074  1.00  0.00     0.012 A 
HETATM   19  C15 UNK     1      18.748  -0.983  33.195  1.00  0.00     0.016 A 
HETATM   20  C18 UNK     1      19.042  -1.050  31.833  1.00  0.00     0.007 A 
HETATM   21  C17 UNK     1      20.104  -1.837  31.386  1.00  0.00    -0.062 A 
HETATM   22  C19 UNK     1      20.871  -2.557  32.302  1.00  0.00     0.007 A 
HETATM   23  C20 UNK     1      20.417  -1.909  29.930  1.00  0.00     0.048 C 
HETATM   24  C16 UNK     1      20.576  -2.491  33.663  1.00  0.00     0.016 A 
ENDBRANCH  16  18
ENDBRANCH  15  16
ENDBRANCH  14  15
ENDBRANCH   6  14
TORSDOF 4
ENDMDL
MODEL 10
REMARK VINA RESULT:      -8.6      5.838      9.259
REMARK  4 active torsions:
REMARK  status: ('A' for Active; 'I' for Inactive)
REMARK    1  A    between atoms: C11_15  and  O2_2 
REMARK    2  A    between atoms: C4_8  and  O2_2 
REMARK    3  A    between atoms: C11_15  and  C14_18 
REMARK    4  A    between atoms: C13_17  and  C14_18 
ROOT
HETATM    1  O1  UNK     1      18.414   1.029  31.840  1.00  0.00    -0.274 OA
HETATM    2  O3  UNK     1      17.925   2.647  30.301  1.00  0.00    -0.260 OA
HETATM    3  C1  UNK     1      19.948  -0.773  31.235  1.00  0.00     0.005 A 
HETATM    4  C2  UNK     1      19.111  -0.152  32.164  1.00  0.00     0.099 A 
HETATM    5  C3  UNK     1      18.920  -0.658  33.451  1.00  0.00     0.006 A 
HETATM    6  C4  UNK     1      19.584  -1.822  33.828  1.00  0.00     0.078 A 
HETATM    7  C5  UNK     1      20.090  -0.170  29.902  1.00  0.00    -0.043 A 
HETATM    8  C6  UNK     1      20.607  -1.944  31.633  1.00  0.00     0.017 A 
HETATM    9  C7  UNK     1      20.425  -2.463  32.920  1.00  0.00     0.038 A 
HETATM   10  C8  UNK     1      18.017   0.036  34.417  1.00  0.00     0.054 C 
HETATM   11  C9  UNK     1      19.414   0.954  29.623  1.00  0.00     0.090 A 
HETATM   12  C10 UNK     1      20.982  -0.814  28.881  1.00  0.00     0.049 C 
HETATM   13  C12 UNK     1      18.528   1.620  30.593  1.00  0.00     0.288 A 
ENDROOT
BRANCH   6  14
HETATM   14  O2  UNK     1      19.423  -2.346  35.074  1.00  0.00    -0.343 OA
BRANCH  14  15
HETATM   15  C11 UNK     1      20.340  -3.365  35.471  1.00  0.00     0.259 C 
BRANCH  15  16
HETATM   16  C14 UNK     1      20.136  -3.706  36.935  1.00  0.00     0.183 C 
HETATM   17  O4  UNK     1      20.196  -2.847  37.811  1.00  0.00    -0.290 OA
BRANCH  16  18
HETATM   18  C13 UNK     1      19.857  -5.122  37.308  1.00  0.00     0.012 A 
HETATM   19  C15 UNK     1      18.903  -5.817  36.600  1.00  0.00     0.016 A 
HETATM   20  C18 UNK     1      18.643  -7.143  36.949  1.00  0.00     0.007 A 
HETATM   21  C17 UNK     1      19.347  -7.739  37.996  1.00  0.00    -0.062 A 
HETATM   22  C19 UNK     1      20.308  -7.009  38.694  1.00  0.00     0.007 A 
HETATM   23  C20 UNK     1      19.069  -9.156  38.369  1.00  0.00     0.048 C 
HETATM   24  C16 UNK     1      20.567  -5.684  38.346  1.00  0.00     0.016 A 
ENDBRANCH  16  18
ENDBRANCH  15  16
ENDBRANCH  14  15
ENDBRANCH   6  14
TORSDOF 4
ENDMDL
