MODEL 1
REMARK VINA RESULT:      -6.7      0.000      0.000
REMARK  2 active torsions:
REMARK  status: ('A' for Active; 'I' for Inactive)
REMARK    1  A    between atoms: C3_6  and  O1_1 
REMARK    2  A    between atoms: C8_11  and  O1_1 
ROOT
HETATM    1  O2  UNK     1      19.912  -0.586  31.845  1.00  0.00    -0.275 OA
HETATM    2  O3  UNK     1      20.979  -2.611  31.915  1.00  0.00    -0.260 OA
HETATM    3  C1  UNK     1      19.442   0.430  29.684  1.00  0.00    -0.002 A 
HETATM    4  C2  UNK     1      19.379   0.467  31.074  1.00  0.00     0.092 A 
HETATM    5  C3  UNK     1      18.258   2.589  31.017  1.00  0.00     0.071 A 
HETATM    6  C4  UNK     1      18.792   1.533  31.753  1.00  0.00     0.075 A 
HETATM    7  C5  UNK     1      18.903   1.492  28.955  1.00  0.00     0.017 A 
HETATM    8  C6  UNK     1      18.312   2.569  29.623  1.00  0.00     0.038 A 
HETATM    9  C7  UNK     1      20.068  -0.714  29.041  1.00  0.00     0.020 A 
HETATM   10  C9  UNK     1      20.570  -1.708  29.778  1.00  0.00     0.083 A 
HETATM   11  C10 UNK     1      20.514  -1.690  31.252  1.00  0.00     0.288 A 
ENDROOT
BRANCH   5  12
HETATM   12  O1  UNK     1      17.680   3.642  31.660  1.00  0.00    -0.351 OA
BRANCH  12  13
HETATM   13  C8  UNK     1      18.509   4.770  31.931  1.00  0.00     0.171 C 
HETATM   14  C11 UNK     1      18.484   5.053  33.419  1.00  0.00     0.034 C 
ENDBRANCH  12  13
ENDBRANCH   5  12
TORSDOF 2
ENDMDL
MODEL 2
REMARK VINA RESULT:      -6.7      1.441      2.056
REMARK  2 active torsions:
REMARK  status: ('A' for Active; 'I' for Inactive)
REMARK    1  A    between atoms: C3_6  and  O1_1 
REMARK    2  A    between atoms: C8_11  and  O1_1 
ROOT
HETATM    1  O2  UNK     1      20.066  -1.078  32.480  1.00  0.00    -0.275 OA
HETATM    2  O3  UNK     1      20.805  -2.786  33.813  1.00  0.00    -0.260 OA
HETATM    3  C1  UNK     1      20.161  -1.338  30.062  1.00  0.00    -0.002 A 
HETATM    4  C2  UNK     1      19.842  -0.575  31.182  1.00  0.00     0.092 A 
HETATM    5  C3  UNK     1      19.062   1.225  29.798  1.00  0.00     0.071 A 
HETATM    6  C4  UNK     1      19.294   0.701  31.068  1.00  0.00     0.075 A 
HETATM    7  C5  UNK     1      19.924  -0.806  28.793  1.00  0.00     0.017 A 
HETATM    8  C6  UNK     1      19.376   0.474  28.663  1.00  0.00     0.038 A 
HETATM    9  C7  UNK     1      20.729  -2.662  30.254  1.00  0.00     0.020 A 
HETATM   10  C9  UNK     1      20.938  -3.131  31.487  1.00  0.00     0.083 A 
HETATM   11  C10 UNK     1      20.608  -2.341  32.688  1.00  0.00     0.288 A 
ENDROOT
BRANCH   5  12
HETATM   12  O1  UNK     1      18.528   2.470  29.662  1.00  0.00    -0.351 OA
BRANCH  12  13
HETATM   13  C8  UNK     1      18.456   3.276  30.836  1.00  0.00     0.171 C 
HETATM   14  C11 UNK     1      19.104   4.615  30.555  1.00  0.00     0.034 C 
ENDBRANCH  12  13
ENDBRANCH   5  12
TORSDOF 2
ENDMDL
MODEL 3
REMARK VINA RESULT:      -6.4     22.836     24.630
REMARK  2 active torsions:
REMARK  status: ('A' for Active; 'I' for Inactive)
REMARK    1  A    between atoms: C3_6  and  O1_1 
REMARK    2  A    between atoms: C8_11  and  O1_1 
ROOT
HETATM    1  O2  UNK     1       9.693   5.506   8.626  1.00  0.00    -0.275 OA
HETATM    2  O3  UNK     1       7.545   5.500   7.834  1.00  0.00    -0.260 OA
HETATM    3  C1  UNK     1      11.497   6.206   7.150  1.00  0.00    -0.002 A 
HETATM    4  C2  UNK     1      11.062   5.750   8.392  1.00  0.00     0.092 A 
HETATM    5  C3  UNK     1      13.308   5.752   9.238  1.00  0.00     0.071 A 
HETATM    6  C4  UNK     1      11.949   5.521   9.441  1.00  0.00     0.075 A 
HETATM    7  C5  UNK     1      12.861   6.436   6.956  1.00  0.00     0.017 A 
HETATM    8  C6  UNK     1      13.763   6.209   8.000  1.00  0.00     0.038 A 
HETATM    9  C7  UNK     1      10.516   6.425   6.100  1.00  0.00     0.020 A 
HETATM   10  C9  UNK     1       9.222   6.192   6.331  1.00  0.00     0.083 A 
HETATM   11  C10 UNK     1       8.737   5.710   7.637  1.00  0.00     0.288 A 
ENDROOT
BRANCH   5  12
HETATM   12  O1  UNK     1      14.194   5.535  10.249  1.00  0.00    -0.351 OA
BRANCH  12  13
HETATM   13  C8  UNK     1      15.570   5.784   9.971  1.00  0.00     0.171 C 
HETATM   14  C11 UNK     1      15.991   7.058  10.672  1.00  0.00     0.034 C 
ENDBRANCH  12  13
ENDBRANCH   5  12
TORSDOF 2
ENDMDL
MODEL 4
REMARK VINA RESULT:      -6.4      3.415      7.091
REMARK  2 active torsions:
REMARK  status: ('A' for Active; 'I' for Inactive)
REMARK    1  A    between atoms: C3_6  and  O1_1 
REMARK    2  A    between atoms: C8_11  and  O1_1 
ROOT
HETATM    1  O2  UNK     1      17.386   6.471  33.594  1.00  0.00    -0.275 OA
HETATM    2  O3  UNK     1      16.770   7.645  35.460  1.00  0.00    -0.260 OA
HETATM    3  C1  UNK     1      19.667   6.672  32.770  1.00  0.00    -0.002 A 
HETATM    4  C2  UNK     1      18.388   6.132  32.662  1.00  0.00     0.092 A 
HETATM    5  C3  UNK     1      19.020   4.894  30.705  1.00  0.00     0.071 A 
HETATM    6  C4  UNK     1      18.050   5.246  31.641  1.00  0.00     0.075 A 
HETATM    7  C5  UNK     1      20.633   6.313  31.827  1.00  0.00     0.017 A 
HETATM    8  C6  UNK     1      20.308   5.425  30.797  1.00  0.00     0.038 A 
HETATM    9  C7  UNK     1      19.951   7.590  33.860  1.00  0.00     0.020 A 
HETATM   10  C9  UNK     1      18.997   7.905  34.739  1.00  0.00     0.083 A 
HETATM   11  C10 UNK     1      17.635   7.346  34.645  1.00  0.00     0.288 A 
ENDROOT
BRANCH   5  12
HETATM   12  O1  UNK     1      18.712   4.030  29.698  1.00  0.00    -0.351 OA
BRANCH  12  13
HETATM   13  C8  UNK     1      18.612   2.648  30.038  1.00  0.00     0.171 C 
HETATM   14  C11 UNK     1      17.931   1.910  28.904  1.00  0.00     0.034 C 
ENDBRANCH  12  13
ENDBRANCH   5  12
TORSDOF 2
ENDMDL
MODEL 5
REMARK VINA RESULT:      -6.4     11.542     13.146
REMARK  2 active torsions:
REMARK  status: ('A' for Active; 'I' for Inactive)
REMARK    1  A    between atoms: C3_6  and  O1_1 
REMARK    2  A    between atoms: C8_11  and  O1_1 
ROOT
HETATM    1  O2  UNK     1      30.345  -8.338  28.609  1.00  0.00    -0.275 OA
HETATM    2  O3  UNK     1      30.687 -10.157  27.261  1.00  0.00    -0.260 OA
HETATM    3  C1  UNK     1      28.242  -8.140  29.817  1.00  0.00    -0.002 A 
HETATM    4  C2  UNK     1      29.500  -7.638  29.494  1.00  0.00     0.092 A 
HETATM    5  C3  UNK     1      29.157  -5.726  30.904  1.00  0.00     0.071 A 
HETATM    6  C4  UNK     1      29.971  -6.440  30.027  1.00  0.00     0.075 A 
HETATM    7  C5  UNK     1      27.434  -7.418  30.698  1.00  0.00     0.017 A 
HETATM    8  C6  UNK     1      27.893  -6.213  31.239  1.00  0.00     0.038 A 
HETATM    9  C7  UNK     1      27.815  -9.396  29.225  1.00  0.00     0.020 A 
HETATM   10  C9  UNK     1      28.621 -10.053  28.388  1.00  0.00     0.083 A 
HETATM   11  C10 UNK     1      29.958  -9.543  28.031  1.00  0.00     0.288 A 
ENDROOT
BRANCH   5  12
HETATM   12  O1  UNK     1      29.597  -4.552  31.437  1.00  0.00    -0.351 OA
BRANCH  12  13
HETATM   13  C8  UNK     1      30.082  -3.568  30.526  1.00  0.00     0.171 C 
HETATM   14  C11 UNK     1      30.064  -2.216  31.207  1.00  0.00     0.034 C 
ENDBRANCH  12  13
ENDBRANCH   5  12
TORSDOF 2
ENDMDL
MODEL 6
REMARK VINA RESULT:      -6.3      2.699      4.470
REMARK  2 active torsions:
REMARK  status: ('A' for Active; 'I' for Inactive)
REMARK    1  A    between atoms: C3_6  and  O1_1 
REMARK    2  A    between atoms: C8_11  and  O1_1 
ROOT
HETATM    1  O2  UNK     1      18.744   0.635  30.715  1.00  0.00    -0.275 OA
HETATM    2  O3  UNK     1      18.725   1.641  28.658  1.00  0.00    -0.260 OA
HETATM    3  C1  UNK     1      20.235  -1.250  31.097  1.00  0.00    -0.002 A 
HETATM    4  C2  UNK     1      19.266  -0.365  31.561  1.00  0.00     0.092 A 
HETATM    5  C3  UNK     1      19.275  -1.408  33.723  1.00  0.00     0.071 A 
HETATM    6  C4  UNK     1      18.778  -0.429  32.864  1.00  0.00     0.075 A 
HETATM    7  C5  UNK     1      20.728  -2.227  31.964  1.00  0.00     0.017 A 
HETATM    8  C6  UNK     1      20.248  -2.304  33.275  1.00  0.00     0.038 A 
HETATM    9  C7  UNK     1      20.700  -1.125  29.725  1.00  0.00     0.020 A 
HETATM   10  C9  UNK     1      20.201  -0.175  28.931  1.00  0.00     0.083 A 
HETATM   11  C10 UNK     1      19.173   0.774  29.400  1.00  0.00     0.288 A 
ENDROOT
BRANCH   5  12
HETATM   12  O1  UNK     1      18.813  -1.490  35.001  1.00  0.00    -0.351 OA
BRANCH  12  13
HETATM   13  C8  UNK     1      18.790  -0.283  35.761  1.00  0.00     0.171 C 
HETATM   14  C11 UNK     1      18.003  -0.517  37.034  1.00  0.00     0.034 C 
ENDBRANCH  12  13
ENDBRANCH   5  12
TORSDOF 2
ENDMDL
MODEL 7
REMARK VINA RESULT:      -6.3      2.046      3.230
REMARK  2 active torsions:
REMARK  status: ('A' for Active; 'I' for Inactive)
REMARK    1  A    between atoms: C3_6  and  O1_1 
REMARK    2  A    between atoms: C8_11  and  O1_1 
ROOT
HETATM    1  O2  UNK     1      19.132  -0.594  32.954  1.00  0.00    -0.275 OA
HETATM    2  O3  UNK     1      19.185  -1.564  35.027  1.00  0.00    -0.260 OA
HETATM    3  C1  UNK     1      20.406  -1.604  31.142  1.00  0.00    -0.002 A 
HETATM    4  C2  UNK     1      19.554  -0.607  31.608  1.00  0.00     0.092 A 
HETATM    5  C3  UNK     1      19.487   0.421  29.440  1.00  0.00     0.071 A 
HETATM    6  C4  UNK     1      19.087   0.407  30.775  1.00  0.00     0.075 A 
HETATM    7  C5  UNK     1      20.802  -1.583  29.803  1.00  0.00     0.017 A 
HETATM    8  C6  UNK     1      20.341  -0.571  28.955  1.00  0.00     0.038 A 
HETATM    9  C7  UNK     1      20.854  -2.632  32.067  1.00  0.00     0.020 A 
HETATM   10  C9  UNK     1      20.450  -2.613  33.339  1.00  0.00     0.083 A 
HETATM   11  C10 UNK     1      19.548  -1.567  33.856  1.00  0.00     0.288 A 
ENDROOT
BRANCH   5  12
HETATM   12  O1  UNK     1      19.043   1.403  28.607  1.00  0.00    -0.351 OA
BRANCH  12  13
HETATM   13  C8  UNK     1      18.038   2.278  29.113  1.00  0.00     0.171 C 
HETATM   14  C11 UNK     1      18.689   3.569  29.562  1.00  0.00     0.034 C 
ENDBRANCH  12  13
ENDBRANCH   5  12
TORSDOF 2
ENDMDL
MODEL 8
REMARK VINA RESULT:      -6.2      8.978     12.656
REMARK  2 active torsions:
REMARK  status: ('A' for Active; 'I' for Inactive)
REMARK    1  A    between atoms: C3_6  and  O1_1 
REMARK    2  A    between atoms: C8_11  and  O1_1 
ROOT
HETATM    1  O2  UNK     1      20.906  -6.978  35.299  1.00  0.00    -0.275 OA
HETATM    2  O3  UNK     1      20.083  -4.841  35.321  1.00  0.00    -0.260 OA
HETATM    3  C1  UNK     1      19.839  -8.671  36.684  1.00  0.00    -0.002 A 
HETATM    4  C2  UNK     1      20.822  -8.305  35.770  1.00  0.00     0.092 A 
HETATM    5  C3  UNK     1      21.696 -10.541  35.734  1.00  0.00     0.071 A 
HETATM    6  C4  UNK     1      21.753  -9.222  35.287  1.00  0.00     0.075 A 
HETATM    7  C5  UNK     1      19.788  -9.995  37.127  1.00  0.00     0.017 A 
HETATM    8  C6  UNK     1      20.716 -10.926  36.651  1.00  0.00     0.038 A 
HETATM    9  C7  UNK     1      18.900  -7.663  37.146  1.00  0.00     0.020 A 
HETATM   10  C9  UNK     1      18.985  -6.409  36.695  1.00  0.00     0.083 A 
HETATM   11  C10 UNK     1      20.018  -5.997  35.726  1.00  0.00     0.288 A 
ENDROOT
BRANCH   5  12
HETATM   12  O1  UNK     1      22.595 -11.455  35.276  1.00  0.00    -0.351 OA
BRANCH  12  13
HETATM   13  C8  UNK     1      23.912 -11.397  35.819  1.00  0.00     0.171 C 
HETATM   14  C11 UNK     1      24.502 -12.791  35.831  1.00  0.00     0.034 C 
ENDBRANCH  12  13
ENDBRANCH   5  12
TORSDOF 2
ENDMDL
MODEL 9
REMARK VINA RESULT:      -6.2      3.680      5.672
REMARK  2 active torsions:
REMARK  status: ('A' for Active; 'I' for Inactive)
REMARK    1  A    between atoms: C3_6  and  O1_1 
REMARK    2  A    between atoms: C8_11  and  O1_1 
ROOT
HETATM    1  O2  UNK     1      17.427   4.119  32.078  1.00  0.00    -0.275 OA
HETATM    2  O3  UNK     1      17.336   2.404  30.563  1.00  0.00    -0.260 OA
HETATM    3  C1  UNK     1      19.260   5.715  31.949  1.00  0.00    -0.002 A 
HETATM    4  C2  UNK     1      18.092   5.265  32.559  1.00  0.00     0.092 A 
HETATM    5  C3  UNK     1      18.173   7.058  34.154  1.00  0.00     0.071 A 
HETATM    6  C4  UNK     1      17.538   5.922  33.656  1.00  0.00     0.075 A 
HETATM    7  C5  UNK     1      19.890   6.855  32.454  1.00  0.00     0.017 A 
HETATM    8  C6  UNK     1      19.345   7.523  33.555  1.00  0.00     0.038 A 
HETATM    9  C7  UNK     1      19.782   4.982  30.808  1.00  0.00     0.020 A 
HETATM   10  C9  UNK     1      19.147   3.897  30.359  1.00  0.00     0.083 A 
HETATM   11  C10 UNK     1      17.908   3.402  30.988  1.00  0.00     0.288 A 
ENDROOT
BRANCH   5  12
HETATM   12  O1  UNK     1      17.650   7.716  35.225  1.00  0.00    -0.351 OA
BRANCH  12  13
HETATM   13  C8  UNK     1      16.356   8.295  35.062  1.00  0.00     0.171 C 
HETATM   14  C11 UNK     1      16.505   9.660  34.424  1.00  0.00     0.034 C 
ENDBRANCH  12  13
ENDBRANCH   5  12
TORSDOF 2
ENDMDL
MODEL 10
REMARK VINA RESULT:      -6.2     23.104     24.792
REMARK  2 active torsions:
REMARK  status: ('A' for Active; 'I' for Inactive)
REMARK    1  A    between atoms: C3_6  and  O1_1 
REMARK    2  A    between atoms: C8_11  and  O1_1 
ROOT
HETATM    1  O2  UNK     1      12.040   6.033   9.720  1.00  0.00    -0.275 OA
HETATM    2  O3  UNK     1      14.213   6.248  10.409  1.00  0.00    -0.260 OA
HETATM    3  C1  UNK     1      11.508   6.356   7.367  1.00  0.00    -0.002 A 
HETATM    4  C2  UNK     1      11.102   6.070   8.668  1.00  0.00     0.092 A 
HETATM    5  C3  UNK     1       8.820   5.839   7.960  1.00  0.00     0.071 A 
HETATM    6  C4  UNK     1       9.770   5.809   8.980  1.00  0.00     0.075 A 
HETATM    7  C5  UNK     1      10.549   6.383   6.351  1.00  0.00     0.017 A 
HETATM    8  C6  UNK     1       9.208   6.124   6.650  1.00  0.00     0.038 A 
HETATM    9  C7  UNK     1      12.915   6.617   7.113  1.00  0.00     0.020 A 
HETATM   10  C9  UNK     1      13.797   6.580   8.114  1.00  0.00     0.083 A 
HETATM   11  C10 UNK     1      13.391   6.278   9.500  1.00  0.00     0.288 A 
ENDROOT
BRANCH   5  12
HETATM   12  O1  UNK     1       7.511   5.588   8.242  1.00  0.00    -0.351 OA
BRANCH  12  13
HETATM   13  C8  UNK     1       7.202   5.173   9.571  1.00  0.00     0.171 C 
HETATM   14  C11 UNK     1       6.833   3.705   9.555  1.00  0.00     0.034 C 
ENDBRANCH  12  13
ENDBRANCH   5  12
TORSDOF 2
ENDMDL
