MODEL 1
REMARK VINA RESULT:      -8.1      0.000      0.000
REMARK  5 active torsions:
REMARK  status: ('A' for Active; 'I' for Inactive)
REMARK    1  A    between atoms: C16_22  and  O2_2 
REMARK    2  A    between atoms: C3_9  and  O2_2 
REMARK    3  A    between atoms: C15_21  and  O4_4 
REMARK       I    between atoms: C17_23  and  N1_6 
REMARK    4  A    between atoms: C1_7  and  C5_11 
REMARK    5  A    between atoms: C16_22  and  C17_23 
ROOT
HETATM    1  O1  UNK     1      18.095   3.494  33.166  1.00  0.00    -0.306 OA
HETATM    2  O3  UNK     1      19.085   1.978  29.514  1.00  0.00    -0.284 OA
HETATM    3  C1  UNK     1      18.222   2.131  32.955  1.00  0.00     0.123 A 
HETATM    4  C2  UNK     1      18.663   3.884  30.838  1.00  0.00     0.051 A 
HETATM    5  C3  UNK     1      18.540   1.560  31.780  1.00  0.00     0.155 A 
HETATM    6  C4  UNK     1      18.320   4.339  32.110  1.00  0.00     0.090 A 
HETATM    7  C6  UNK     1      18.789   2.436  30.609  1.00  0.00     0.221 A 
HETATM    8  C7  UNK     1      18.880   4.792  29.799  1.00  0.00     0.018 A 
HETATM    9  C8  UNK     1      18.192   5.707  32.351  1.00  0.00     0.038 A 
HETATM   10  C11 UNK     1      18.753   6.161  30.043  1.00  0.00     0.001 A 
HETATM   11  C12 UNK     1      18.410   6.617  31.317  1.00  0.00     0.003 A 
ENDROOT
BRANCH   3  12
HETATM   12  C5  UNK     1      17.964   1.350  34.124  1.00  0.00     0.001 A 
HETATM   13  C10 UNK     1      18.862   1.374  35.191  1.00  0.00     0.017 A 
HETATM   14  C14 UNK     1      18.611   0.613  36.332  1.00  0.00     0.037 A 
HETATM   15  C15 UNK     1      17.462  -0.175  36.406  1.00  0.00     0.068 A 
HETATM   16  C13 UNK     1      16.564  -0.201  35.339  1.00  0.00     0.037 A 
HETATM   17  C9  UNK     1      16.815   0.561  34.198  1.00  0.00     0.017 A 
BRANCH  15  18
HETATM   18  O4  UNK     1      17.217  -0.920  37.518  1.00  0.00    -0.356 OA
HETATM   19  C18 UNK     1      18.321  -1.624  38.084  1.00  0.00     0.210 C 
ENDBRANCH  15  18
ENDBRANCH   3  12
BRANCH   5  20
HETATM   20  O2  UNK     1      18.633   0.197  31.602  1.00  0.00    -0.335 OA
BRANCH  20  21
HETATM   21  C16 UNK     1      19.985  -0.204  31.475  1.00  0.00     0.278 C 
BRANCH  21  22
HETATM   22  C17 UNK     1      20.083  -1.337  30.481  1.00  0.00     0.239 C 
HETATM   23  O5  UNK     1      20.459  -2.469  30.773  1.00  0.00    -0.271 OA
HETATM   24  N1  UNK     1      19.703  -0.957  29.213  1.00  0.00    -0.368 N 
HETATM   25  H14 UNK     1      19.718  -1.617  28.443  1.00  0.00     0.159 HD
HETATM   26  H15 UNK     1      19.396  -0.013  28.998  1.00  0.00     0.159 HD
ENDBRANCH  21  22
ENDBRANCH  20  21
ENDBRANCH   5  20
TORSDOF 5
ENDMDL
MODEL 2
REMARK VINA RESULT:      -8.1      2.072      4.717
REMARK  5 active torsions:
REMARK  status: ('A' for Active; 'I' for Inactive)
REMARK    1  A    between atoms: C16_22  and  O2_2 
REMARK    2  A    between atoms: C3_9  and  O2_2 
REMARK    3  A    between atoms: C15_21  and  O4_4 
REMARK       I    between atoms: C17_23  and  N1_6 
REMARK    4  A    between atoms: C1_7  and  C5_11 
REMARK    5  A    between atoms: C16_22  and  C17_23 
ROOT
HETATM    1  O1  UNK     1      19.088  -0.061  32.595  1.00  0.00    -0.306 OA
HETATM    2  O3  UNK     1      18.547   2.832  29.774  1.00  0.00    -0.284 OA
HETATM    3  C1  UNK     1      18.454   1.134  32.892  1.00  0.00     0.123 A 
HETATM    4  C2  UNK     1      19.375   0.688  30.304  1.00  0.00     0.051 A 
HETATM    5  C3  UNK     1      18.244   2.133  32.016  1.00  0.00     0.155 A 
HETATM    6  C4  UNK     1      19.531  -0.261  31.313  1.00  0.00     0.090 A 
HETATM    7  C6  UNK     1      18.710   1.962  30.619  1.00  0.00     0.221 A 
HETATM    8  C7  UNK     1      19.848   0.429  29.015  1.00  0.00     0.018 A 
HETATM    9  C8  UNK     1      20.161  -1.475  31.039  1.00  0.00     0.038 A 
HETATM   10  C11 UNK     1      20.476  -0.787  28.742  1.00  0.00     0.001 A 
HETATM   11  C12 UNK     1      20.632  -1.737  29.753  1.00  0.00     0.003 A 
ENDROOT
BRANCH   3  12
HETATM   12  C5  UNK     1      18.036   1.231  34.256  1.00  0.00     0.001 A 
HETATM   13  C10 UNK     1      16.854   0.617  34.668  1.00  0.00     0.017 A 
HETATM   14  C14 UNK     1      16.446   0.711  35.999  1.00  0.00     0.037 A 
HETATM   15  C15 UNK     1      17.221   1.419  36.917  1.00  0.00     0.068 A 
HETATM   16  C13 UNK     1      18.404   2.034  36.505  1.00  0.00     0.037 A 
HETATM   17  C9  UNK     1      18.811   1.940  35.175  1.00  0.00     0.017 A 
BRANCH  15  18
HETATM   18  O4  UNK     1      16.823   1.513  38.215  1.00  0.00    -0.356 OA
HETATM   19  C18 UNK     1      17.828   1.348  39.215  1.00  0.00     0.210 C 
ENDBRANCH  15  18
ENDBRANCH   3  12
BRANCH   5  20
HETATM   20  O2  UNK     1      17.630   3.319  32.356  1.00  0.00    -0.335 OA
BRANCH  20  21
HETATM   21  C16 UNK     1      18.580   4.360  32.487  1.00  0.00     0.278 C 
BRANCH  21  22
HETATM   22  C17 UNK     1      18.060   5.606  31.810  1.00  0.00     0.239 C 
HETATM   23  O5  UNK     1      17.153   6.299  32.263  1.00  0.00    -0.271 OA
HETATM   24  N1  UNK     1      18.718   5.876  30.631  1.00  0.00    -0.368 N 
HETATM   25  H14 UNK     1      18.473   6.684  30.069  1.00  0.00     0.159 HD
HETATM   26  H15 UNK     1      19.465   5.285  30.279  1.00  0.00     0.159 HD
ENDBRANCH  21  22
ENDBRANCH  20  21
ENDBRANCH   5  20
TORSDOF 5
ENDMDL
MODEL 3
REMARK VINA RESULT:      -8.0      2.128      6.133
REMARK  5 active torsions:
REMARK  status: ('A' for Active; 'I' for Inactive)
REMARK    1  A    between atoms: C16_22  and  O2_2 
REMARK    2  A    between atoms: C3_9  and  O2_2 
REMARK    3  A    between atoms: C15_21  and  O4_4 
REMARK       I    between atoms: C17_23  and  N1_6 
REMARK    4  A    between atoms: C1_7  and  C5_11 
REMARK    5  A    between atoms: C16_22  and  C17_23 
ROOT
HETATM    1  O1  UNK     1      18.004   3.091  34.895  1.00  0.00    -0.306 OA
HETATM    2  O3  UNK     1      18.767   0.344  31.981  1.00  0.00    -0.284 OA
HETATM    3  C1  UNK     1      18.262   3.470  33.588  1.00  0.00     0.123 A 
HETATM    4  C2  UNK     1      18.253   0.765  34.245  1.00  0.00     0.051 A 
HETATM    5  C3  UNK     1      18.526   2.622  32.578  1.00  0.00     0.155 A 
HETATM    6  C4  UNK     1      18.001   1.753  35.195  1.00  0.00     0.090 A 
HETATM    7  C6  UNK     1      18.537   1.166  32.858  1.00  0.00     0.221 A 
HETATM    8  C7  UNK     1      18.237  -0.584  34.609  1.00  0.00     0.018 A 
HETATM    9  C8  UNK     1      17.732   1.397  36.517  1.00  0.00     0.038 A 
HETATM   10  C11 UNK     1      17.966  -0.937  35.932  1.00  0.00     0.001 A 
HETATM   11  C12 UNK     1      17.713   0.052  36.883  1.00  0.00     0.003 A 
ENDROOT
BRANCH   3  12
HETATM   12  C5  UNK     1      18.239   4.886  33.394  1.00  0.00     0.001 A 
HETATM   13  C10 UNK     1      19.286   5.673  33.873  1.00  0.00     0.017 A 
HETATM   14  C14 UNK     1      19.263   7.054  33.683  1.00  0.00     0.037 A 
HETATM   15  C15 UNK     1      18.194   7.650  33.014  1.00  0.00     0.068 A 
HETATM   16  C13 UNK     1      17.146   6.863  32.535  1.00  0.00     0.037 A 
HETATM   17  C9  UNK     1      17.169   5.481  32.725  1.00  0.00     0.017 A 
BRANCH  15  18
HETATM   18  O4  UNK     1      18.170   8.998  32.829  1.00  0.00    -0.356 OA
HETATM   19  C18 UNK     1      18.440   9.814  33.968  1.00  0.00     0.210 C 
ENDBRANCH  15  18
ENDBRANCH   3  12
BRANCH   5  20
HETATM   20  O2  UNK     1      18.803   3.039  31.294  1.00  0.00    -0.335 OA
BRANCH  20  21
HETATM   21  C16 UNK     1      17.748   2.697  30.414  1.00  0.00     0.278 C 
BRANCH  21  22
HETATM   22  C17 UNK     1      18.322   2.179  29.116  1.00  0.00     0.239 C 
HETATM   23  O5  UNK     1      17.854   2.442  28.012  1.00  0.00    -0.271 OA
HETATM   24  N1  UNK     1      19.429   1.383  29.313  1.00  0.00    -0.368 N 
HETATM   25  H14 UNK     1      19.919   0.966  28.528  1.00  0.00     0.159 HD
HETATM   26  H15 UNK     1      19.796   1.181  30.238  1.00  0.00     0.159 HD
ENDBRANCH  21  22
ENDBRANCH  20  21
ENDBRANCH   5  20
TORSDOF 5
ENDMDL
MODEL 4
REMARK VINA RESULT:      -7.8      2.781      6.673
REMARK  5 active torsions:
REMARK  status: ('A' for Active; 'I' for Inactive)
REMARK    1  A    between atoms: C16_22  and  O2_2 
REMARK    2  A    between atoms: C3_9  and  O2_2 
REMARK    3  A    between atoms: C15_21  and  O4_4 
REMARK       I    between atoms: C17_23  and  N1_6 
REMARK    4  A    between atoms: C1_7  and  C5_11 
REMARK    5  A    between atoms: C16_22  and  C17_23 
ROOT
HETATM    1  O1  UNK     1      18.281   3.635  34.655  1.00  0.00    -0.306 OA
HETATM    2  O3  UNK     1      18.279   1.338  31.287  1.00  0.00    -0.284 OA
HETATM    3  C1  UNK     1      18.269   4.200  33.391  1.00  0.00     0.123 A 
HETATM    4  C2  UNK     1      18.283   1.428  33.644  1.00  0.00     0.051 A 
HETATM    5  C3  UNK     1      18.272   3.507  32.237  1.00  0.00     0.155 A 
HETATM    6  C4  UNK     1      18.284   2.268  34.756  1.00  0.00     0.090 A 
HETATM    7  C6  UNK     1      18.279   2.025  32.299  1.00  0.00     0.221 A 
HETATM    8  C7  UNK     1      18.286   0.040  33.808  1.00  0.00     0.018 A 
HETATM    9  C8  UNK     1      18.290   1.724  36.041  1.00  0.00     0.038 A 
HETATM   10  C11 UNK     1      18.291  -0.501  35.095  1.00  0.00     0.001 A 
HETATM   11  C12 UNK     1      18.292   0.340  36.209  1.00  0.00     0.003 A 
ENDROOT
BRANCH   3  12
HETATM   12  C5  UNK     1      18.267   5.629  33.408  1.00  0.00     0.001 A 
HETATM   13  C10 UNK     1      17.140   6.329  32.981  1.00  0.00     0.017 A 
HETATM   14  C14 UNK     1      17.137   7.724  32.999  1.00  0.00     0.037 A 
HETATM   15  C15 UNK     1      18.262   8.419  33.442  1.00  0.00     0.068 A 
HETATM   16  C13 UNK     1      19.391   7.718  33.869  1.00  0.00     0.037 A 
HETATM   17  C9  UNK     1      19.393   6.323  33.851  1.00  0.00     0.017 A 
BRANCH  15  18
HETATM   18  O4  UNK     1      18.261   9.779  33.458  1.00  0.00    -0.356 OA
HETATM   19  C18 UNK     1      17.222  10.419  34.197  1.00  0.00     0.210 C 
ENDBRANCH  15  18
ENDBRANCH   3  12
BRANCH   5  20
HETATM   20  O2  UNK     1      18.284   4.106  30.996  1.00  0.00    -0.335 OA
BRANCH  20  21
HETATM   21  C16 UNK     1      19.602   4.181  30.485  1.00  0.00     0.278 C 
BRANCH  21  22
HETATM   22  C17 UNK     1      20.038   5.626  30.428  1.00  0.00     0.239 C 
HETATM   23  O5  UNK     1      19.306   6.545  30.071  1.00  0.00    -0.271 OA
HETATM   24  N1  UNK     1      21.348   5.794  30.823  1.00  0.00    -0.368 N 
HETATM   25  H14 UNK     1      21.775   6.714  30.835  1.00  0.00     0.159 HD
HETATM   26  H15 UNK     1      21.931   5.016  31.114  1.00  0.00     0.159 HD
ENDBRANCH  21  22
ENDBRANCH  20  21
ENDBRANCH   5  20
TORSDOF 5
ENDMDL
MODEL 5
REMARK VINA RESULT:      -7.6      2.344      6.406
REMARK  5 active torsions:
REMARK  status: ('A' for Active; 'I' for Inactive)
REMARK    1  A    between atoms: C16_22  and  O2_2 
REMARK    2  A    between atoms: C3_9  and  O2_2 
REMARK    3  A    between atoms: C15_21  and  O4_4 
REMARK       I    between atoms: C17_23  and  N1_6 
REMARK    4  A    between atoms: C1_7  and  C5_11 
REMARK    5  A    between atoms: C16_22  and  C17_23 
ROOT
HETATM    1  O1  UNK     1      19.288   1.992  30.584  1.00  0.00    -0.306 OA
HETATM    2  O3  UNK     1      18.457  -0.526  33.680  1.00  0.00    -0.284 OA
HETATM    3  C1  UNK     1      18.700   2.447  31.752  1.00  0.00     0.123 A 
HETATM    4  C2  UNK     1      19.342  -0.251  31.510  1.00  0.00     0.051 A 
HETATM    5  C3  UNK     1      18.393   1.676  32.811  1.00  0.00     0.155 A 
HETATM    6  C4  UNK     1      19.599   0.661  30.488  1.00  0.00     0.090 A 
HETATM    7  C6  UNK     1      18.709   0.228  32.749  1.00  0.00     0.221 A 
HETATM    8  C7  UNK     1      19.680  -1.597  31.356  1.00  0.00     0.018 A 
HETATM    9  C8  UNK     1      20.197   0.229  29.303  1.00  0.00     0.038 A 
HETATM   10  C11 UNK     1      20.279  -2.026  30.171  1.00  0.00     0.001 A 
HETATM   11  C12 UNK     1      20.537  -1.113  29.146  1.00  0.00     0.003 A 
ENDROOT
BRANCH   3  12
HETATM   12  C5  UNK     1      18.422   3.849  31.739  1.00  0.00     0.001 A 
HETATM   13  C10 UNK     1      18.865   4.638  30.678  1.00  0.00     0.017 A 
HETATM   14  C14 UNK     1      18.593   6.006  30.665  1.00  0.00     0.037 A 
HETATM   15  C15 UNK     1      17.878   6.585  31.713  1.00  0.00     0.068 A 
HETATM   16  C13 UNK     1      17.435   5.797  32.775  1.00  0.00     0.037 A 
HETATM   17  C9  UNK     1      17.707   4.429  32.788  1.00  0.00     0.017 A 
BRANCH  15  18
HETATM   18  O4  UNK     1      17.614   7.920  31.701  1.00  0.00    -0.356 OA
HETATM   19  C18 UNK     1      17.375   8.545  32.961  1.00  0.00     0.210 C 
ENDBRANCH  15  18
ENDBRANCH   3  12
BRANCH   5  20
HETATM   20  O2  UNK     1      17.785   2.161  33.948  1.00  0.00    -0.335 OA
BRANCH  20  21
HETATM   21  C16 UNK     1      18.697   2.199  35.030  1.00  0.00     0.278 C 
BRANCH  21  22
HETATM   22  C17 UNK     1      18.029   1.656  36.272  1.00  0.00     0.239 C 
HETATM   23  O5  UNK     1      18.430   1.875  37.411  1.00  0.00    -0.271 OA
HETATM   24  N1  UNK     1      16.921   0.891  35.980  1.00  0.00    -0.368 N 
HETATM   25  H14 UNK     1      16.373   0.463  36.718  1.00  0.00     0.159 HD
HETATM   26  H15 UNK     1      16.611   0.726  35.027  1.00  0.00     0.159 HD
ENDBRANCH  21  22
ENDBRANCH  20  21
ENDBRANCH   5  20
TORSDOF 5
ENDMDL
MODEL 6
REMARK VINA RESULT:      -7.6     23.488     25.526
REMARK  5 active torsions:
REMARK  status: ('A' for Active; 'I' for Inactive)
REMARK    1  A    between atoms: C16_22  and  O2_2 
REMARK    2  A    between atoms: C3_9  and  O2_2 
REMARK    3  A    between atoms: C15_21  and  O4_4 
REMARK       I    between atoms: C17_23  and  N1_6 
REMARK    4  A    between atoms: C1_7  and  C5_11 
REMARK    5  A    between atoms: C16_22  and  C17_23 
ROOT
HETATM    1  O1  UNK     1      14.484   9.756   7.915  1.00  0.00    -0.306 OA
HETATM    2  O3  UNK     1      17.126   8.643  10.813  1.00  0.00    -0.284 OA
HETATM    3  C1  UNK     1      14.322   8.584   8.635  1.00  0.00     0.123 A 
HETATM    4  C2  UNK     1      16.499  10.229   9.183  1.00  0.00     0.051 A 
HETATM    5  C3  UNK     1      15.153   8.152   9.600  1.00  0.00     0.155 A 
HETATM    6  C4  UNK     1      15.562  10.553   8.204  1.00  0.00     0.090 A 
HETATM    7  C6  UNK     1      16.334   8.980   9.943  1.00  0.00     0.221 A 
HETATM    8  C7  UNK     1      17.579  11.080   9.434  1.00  0.00     0.018 A 
HETATM    9  C8  UNK     1      15.699  11.730   7.468  1.00  0.00     0.038 A 
HETATM   10  C11 UNK     1      17.713  12.258   8.697  1.00  0.00     0.001 A 
HETATM   11  C12 UNK     1      16.774  12.582   7.717  1.00  0.00     0.003 A 
ENDROOT
BRANCH   3  12
HETATM   12  C5  UNK     1      13.166   7.837   8.248  1.00  0.00     0.001 A 
HETATM   13  C10 UNK     1      11.953   8.039   8.905  1.00  0.00     0.017 A 
HETATM   14  C14 UNK     1      10.826   7.310   8.528  1.00  0.00     0.037 A 
HETATM   15  C15 UNK     1      10.911   6.378   7.493  1.00  0.00     0.068 A 
HETATM   16  C13 UNK     1      12.125   6.175   6.836  1.00  0.00     0.037 A 
HETATM   17  C9  UNK     1      13.252   6.904   7.213  1.00  0.00     0.017 A 
BRANCH  15  18
HETATM   18  O4  UNK     1       9.812   5.665   7.126  1.00  0.00    -0.356 OA
HETATM   19  C18 UNK     1       8.540   6.202   7.484  1.00  0.00     0.210 C 
ENDBRANCH  15  18
ENDBRANCH   3  12
BRANCH   5  20
HETATM   20  O2  UNK     1      14.971   6.967  10.279  1.00  0.00    -0.335 OA
BRANCH  20  21
HETATM   21  C16 UNK     1      15.862   5.974   9.807  1.00  0.00     0.278 C 
BRANCH  21  22
HETATM   22  C17 UNK     1      15.198   4.620   9.889  1.00  0.00     0.239 C 
HETATM   23  O5  UNK     1      15.814   3.558   9.887  1.00  0.00    -0.271 OA
HETATM   24  N1  UNK     1      13.826   4.712   9.968  1.00  0.00    -0.368 N 
HETATM   25  H14 UNK     1      13.249   3.881  10.029  1.00  0.00     0.159 HD
HETATM   26  H15 UNK     1      13.341   5.604   9.968  1.00  0.00     0.159 HD
ENDBRANCH  21  22
ENDBRANCH  20  21
ENDBRANCH   5  20
TORSDOF 5
ENDMDL
MODEL 7
REMARK VINA RESULT:      -7.4     14.899     17.801
REMARK  5 active torsions:
REMARK  status: ('A' for Active; 'I' for Inactive)
REMARK    1  A    between atoms: C16_22  and  O2_2 
REMARK    2  A    between atoms: C3_9  and  O2_2 
REMARK    3  A    between atoms: C15_21  and  O4_4 
REMARK       I    between atoms: C17_23  and  N1_6 
REMARK    4  A    between atoms: C1_7  and  C5_11 
REMARK    5  A    between atoms: C16_22  and  C17_23 
ROOT
HETATM    1  O1  UNK     1      18.758  -1.140  17.641  1.00  0.00    -0.306 OA
HETATM    2  O3  UNK     1      19.720   2.062  15.308  1.00  0.00    -0.284 OA
HETATM    3  C1  UNK     1      19.113  -1.291  16.311  1.00  0.00     0.123 A 
HETATM    4  C2  UNK     1      19.063   1.259  17.427  1.00  0.00     0.051 A 
HETATM    5  C3  UNK     1      19.437  -0.283  15.481  1.00  0.00     0.155 A 
HETATM    6  C4  UNK     1      18.744   0.125  18.171  1.00  0.00     0.090 A 
HETATM    7  C6  UNK     1      19.431   1.103  16.011  1.00  0.00     0.221 A 
HETATM    8  C7  UNK     1      19.031   2.523  18.020  1.00  0.00     0.018 A 
HETATM    9  C8  UNK     1      18.390   0.248  19.514  1.00  0.00     0.038 A 
HETATM   10  C11 UNK     1      18.677   2.645  19.365  1.00  0.00     0.001 A 
HETATM   11  C12 UNK     1      18.358   1.509  20.110  1.00  0.00     0.003 A 
ENDROOT
BRANCH   3  12
HETATM   12  C5  UNK     1      19.093  -2.650  15.869  1.00  0.00     0.001 A 
HETATM   13  C10 UNK     1      20.285  -3.366  15.763  1.00  0.00     0.017 A 
HETATM   14  C14 UNK     1      20.265  -4.692  15.333  1.00  0.00     0.037 A 
HETATM   15  C15 UNK     1      19.054  -5.303  15.008  1.00  0.00     0.068 A 
HETATM   16  C13 UNK     1      17.862  -4.587  15.113  1.00  0.00     0.037 A 
HETATM   17  C9  UNK     1      17.881  -3.261  15.544  1.00  0.00     0.017 A 
BRANCH  15  18
HETATM   18  O4  UNK     1      19.035  -6.597  14.586  1.00  0.00    -0.356 OA
HETATM   19  C18 UNK     1      17.993  -6.970  13.685  1.00  0.00     0.210 C 
ENDBRANCH  15  18
ENDBRANCH   3  12
BRANCH   5  20
HETATM   20  O2  UNK     1      19.762  -0.470  14.155  1.00  0.00    -0.335 OA
BRANCH  20  21
HETATM   21  C16 UNK     1      18.650  -0.957  13.428  1.00  0.00     0.278 C 
BRANCH  21  22
HETATM   22  C17 UNK     1      19.115  -1.497  12.096  1.00  0.00     0.239 C 
HETATM   23  O5  UNK     1      18.820  -0.992  11.016  1.00  0.00    -0.271 OA
HETATM   24  N1  UNK     1      19.908  -2.616  12.231  1.00  0.00    -0.368 N 
HETATM   25  H14 UNK     1      20.292  -3.084  11.418  1.00  0.00     0.159 HD
HETATM   26  H15 UNK     1      20.136  -3.013  13.137  1.00  0.00     0.159 HD
ENDBRANCH  21  22
ENDBRANCH  20  21
ENDBRANCH   5  20
TORSDOF 5
ENDMDL
MODEL 8
REMARK VINA RESULT:      -7.3     24.078     26.042
REMARK  5 active torsions:
REMARK  status: ('A' for Active; 'I' for Inactive)
REMARK    1  A    between atoms: C16_22  and  O2_2 
REMARK    2  A    between atoms: C3_9  and  O2_2 
REMARK    3  A    between atoms: C15_21  and  O4_4 
REMARK       I    between atoms: C17_23  and  N1_6 
REMARK    4  A    between atoms: C1_7  and  C5_11 
REMARK    5  A    between atoms: C16_22  and  C17_23 
ROOT
HETATM    1  O1  UNK     1      12.722   7.569   7.587  1.00  0.00    -0.306 OA
HETATM    2  O3  UNK     1       9.564   8.287  10.063  1.00  0.00    -0.284 OA
HETATM    3  C1  UNK     1      12.876   8.252   8.782  1.00  0.00     0.123 A 
HETATM    4  C2  UNK     1      10.351   7.336   8.053  1.00  0.00     0.051 A 
HETATM    5  C3  UNK     1      11.882   8.529   9.645  1.00  0.00     0.155 A 
HETATM    6  C4  UNK     1      11.470   7.124   7.250  1.00  0.00     0.090 A 
HETATM    7  C6  UNK     1      10.510   8.069   9.319  1.00  0.00     0.221 A 
HETATM    8  C7  UNK     1       9.099   6.859   7.657  1.00  0.00     0.018 A 
HETATM    9  C8  UNK     1      11.343   6.433   6.044  1.00  0.00     0.038 A 
HETATM   10  C11 UNK     1       8.974   6.168   6.451  1.00  0.00     0.001 A 
HETATM   11  C12 UNK     1      10.095   5.955   5.647  1.00  0.00     0.003 A 
ENDROOT
BRANCH   3  12
HETATM   12  C5  UNK     1      14.222   8.666   9.029  1.00  0.00     0.001 A 
HETATM   13  C10 UNK     1      15.068   7.868   9.797  1.00  0.00     0.017 A 
HETATM   14  C14 UNK     1      16.381   8.272  10.037  1.00  0.00     0.037 A 
HETATM   15  C15 UNK     1      16.848   9.476   9.510  1.00  0.00     0.068 A 
HETATM   16  C13 UNK     1      16.002  10.276   8.742  1.00  0.00     0.037 A 
HETATM   17  C9  UNK     1      14.689   9.871   8.501  1.00  0.00     0.017 A 
BRANCH  15  18
HETATM   18  O4  UNK     1      18.128   9.872   9.745  1.00  0.00    -0.356 OA
HETATM   19  C18 UNK     1      18.361  11.274   9.870  1.00  0.00     0.210 C 
ENDBRANCH  15  18
ENDBRANCH   3  12
BRANCH   5  20
HETATM   20  O2  UNK     1      12.070   9.233  10.815  1.00  0.00    -0.335 OA
BRANCH  20  21
HETATM   21  C16 UNK     1      11.771  10.604  10.632  1.00  0.00     0.278 C 
BRANCH  21  22
HETATM   22  C17 UNK     1      11.023  11.122  11.838  1.00  0.00     0.239 C 
HETATM   23  O5  UNK     1      11.495  11.924  12.639  1.00  0.00    -0.271 OA
HETATM   24  N1  UNK     1       9.754  10.594  11.935  1.00  0.00    -0.368 N 
HETATM   25  H14 UNK     1       9.137  10.854  12.697  1.00  0.00     0.159 HD
HETATM   26  H15 UNK     1       9.388   9.932  11.258  1.00  0.00     0.159 HD
ENDBRANCH  21  22
ENDBRANCH  20  21
ENDBRANCH   5  20
TORSDOF 5
ENDMDL
MODEL 9
REMARK VINA RESULT:      -7.1      1.627      6.018
REMARK  5 active torsions:
REMARK  status: ('A' for Active; 'I' for Inactive)
REMARK    1  A    between atoms: C16_22  and  O2_2 
REMARK    2  A    between atoms: C3_9  and  O2_2 
REMARK    3  A    between atoms: C15_21  and  O4_4 
REMARK       I    between atoms: C17_23  and  N1_6 
REMARK    4  A    between atoms: C1_7  and  C5_11 
REMARK    5  A    between atoms: C16_22  and  C17_23 
ROOT
HETATM    1  O1  UNK     1      18.090   1.838  34.878  1.00  0.00    -0.306 OA
HETATM    2  O3  UNK     1      18.820  -1.740  33.067  1.00  0.00    -0.284 OA
HETATM    3  C1  UNK     1      18.320   1.747  33.515  1.00  0.00     0.123 A 
HETATM    4  C2  UNK     1      18.346  -0.569  35.059  1.00  0.00     0.051 A 
HETATM    5  C3  UNK     1      18.571   0.604  32.851  1.00  0.00     0.155 A 
HETATM    6  C4  UNK     1      18.104   0.685  35.618  1.00  0.00     0.090 A 
HETATM    7  C6  UNK     1      18.600  -0.668  33.613  1.00  0.00     0.221 A 
HETATM    8  C7  UNK     1      18.349  -1.711  35.864  1.00  0.00     0.018 A 
HETATM    9  C8  UNK     1      17.864   0.803  36.987  1.00  0.00     0.038 A 
HETATM   10  C11 UNK     1      18.107  -1.590  37.233  1.00  0.00     0.001 A 
HETATM   11  C12 UNK     1      17.864  -0.335  37.793  1.00  0.00     0.003 A 
ENDROOT
BRANCH   3  12
HETATM   12  C5  UNK     1      18.281   3.010  32.847  1.00  0.00     0.001 A 
HETATM   13  C10 UNK     1      18.280   3.063  31.454  1.00  0.00     0.017 A 
HETATM   14  C14 UNK     1      18.242   4.296  30.803  1.00  0.00     0.037 A 
HETATM   15  C15 UNK     1      18.205   5.476  31.545  1.00  0.00     0.068 A 
HETATM   16  C13 UNK     1      18.207   5.424  32.939  1.00  0.00     0.037 A 
HETATM   17  C9  UNK     1      18.245   4.192  33.590  1.00  0.00     0.017 A 
BRANCH  15  18
HETATM   18  O4  UNK     1      18.169   6.679  30.910  1.00  0.00    -0.356 OA
HETATM   19  C18 UNK     1      17.055   7.527  31.187  1.00  0.00     0.210 C 
ENDBRANCH  15  18
ENDBRANCH   3  12
BRANCH   5  20
HETATM   20  O2  UNK     1      18.819   0.556  31.496  1.00  0.00    -0.335 OA
BRANCH  20  21
HETATM   21  C16 UNK     1      20.122   0.067  31.239  1.00  0.00     0.278 C 
BRANCH  21  22
HETATM   22  C17 UNK     1      20.110  -0.756  29.973  1.00  0.00     0.239 C 
HETATM   23  O5  UNK     1      20.345  -0.295  28.859  1.00  0.00    -0.271 OA
HETATM   24  N1  UNK     1      19.809  -2.080  30.209  1.00  0.00    -0.368 N 
HETATM   25  H14 UNK     1      19.767  -2.750  29.449  1.00  0.00     0.159 HD
HETATM   26  H15 UNK     1      19.619  -2.435  31.141  1.00  0.00     0.159 HD
ENDBRANCH  21  22
ENDBRANCH  20  21
ENDBRANCH   5  20
TORSDOF 5
ENDMDL
MODEL 10
REMARK VINA RESULT:      -7.1     16.857     19.726
REMARK  5 active torsions:
REMARK  status: ('A' for Active; 'I' for Inactive)
REMARK    1  A    between atoms: C16_22  and  O2_2 
REMARK    2  A    between atoms: C3_9  and  O2_2 
REMARK    3  A    between atoms: C15_21  and  O4_4 
REMARK       I    between atoms: C17_23  and  N1_6 
REMARK    4  A    between atoms: C1_7  and  C5_11 
REMARK    5  A    between atoms: C16_22  and  C17_23 
ROOT
HETATM    1  O1  UNK     1      18.546  -4.581  12.535  1.00  0.00    -0.306 OA
HETATM    2  O3  UNK     1      21.524  -2.011  13.604  1.00  0.00    -0.284 OA
HETATM    3  C1  UNK     1      18.863  -4.348  13.863  1.00  0.00     0.123 A 
HETATM    4  C2  UNK     1      20.286  -3.023  11.870  1.00  0.00     0.051 A 
HETATM    5  C3  UNK     1      19.833  -3.520  14.289  1.00  0.00     0.155 A 
HETATM    6  C4  UNK     1      19.257  -3.915  11.570  1.00  0.00     0.090 A 
HETATM    7  C6  UNK     1      20.631  -2.781  13.280  1.00  0.00     0.221 A 
HETATM    8  C7  UNK     1      20.977  -2.373  10.845  1.00  0.00     0.018 A 
HETATM    9  C8  UNK     1      18.914  -4.162  10.241  1.00  0.00     0.038 A 
HETATM   10  C11 UNK     1      20.631  -2.621   9.516  1.00  0.00     0.001 A 
HETATM   11  C12 UNK     1      19.601  -3.514   9.215  1.00  0.00     0.003 A 
ENDROOT
BRANCH   3  12
HETATM   12  C5  UNK     1      18.058  -5.096  14.777  1.00  0.00     0.001 A 
HETATM   13  C10 UNK     1      18.020  -6.487  14.697  1.00  0.00     0.017 A 
HETATM   14  C14 UNK     1      17.235  -7.216  15.590  1.00  0.00     0.037 A 
HETATM   15  C15 UNK     1      16.486  -6.554  16.562  1.00  0.00     0.068 A 
HETATM   16  C13 UNK     1      16.523  -5.161  16.642  1.00  0.00     0.037 A 
HETATM   17  C9  UNK     1      17.308  -4.432  15.750  1.00  0.00     0.017 A 
BRANCH  15  18
HETATM   18  O4  UNK     1      15.718  -7.264  17.433  1.00  0.00    -0.356 OA
HETATM   19  C18 UNK     1      15.848  -6.951  18.818  1.00  0.00     0.210 C 
ENDBRANCH  15  18
ENDBRANCH   3  12
BRANCH   5  20
HETATM   20  O2  UNK     1      20.135  -3.332  15.621  1.00  0.00    -0.335 OA
BRANCH  20  21
HETATM   21  C16 UNK     1      21.113  -4.261  16.051  1.00  0.00     0.278 C 
BRANCH  21  22
HETATM   22  C17 UNK     1      22.228  -3.527  16.758  1.00  0.00     0.239 C 
HETATM   23  O5  UNK     1      22.282  -3.380  17.975  1.00  0.00    -0.271 OA
HETATM   24  N1  UNK     1      23.177  -3.046  15.882  1.00  0.00    -0.368 N 
HETATM   25  H14 UNK     1      23.984  -2.532  16.217  1.00  0.00     0.159 HD
HETATM   26  H15 UNK     1      23.108  -3.182  14.878  1.00  0.00     0.159 HD
ENDBRANCH  21  22
ENDBRANCH  20  21
ENDBRANCH   5  20
TORSDOF 5
ENDMDL
