MODEL 1
REMARK VINA RESULT:     -10.2      0.000      0.000
REMARK  4 active torsions:
REMARK  status: ('A' for Active; 'I' for Inactive)
REMARK    1  A    between atoms: C12_19  and  O2_3 
REMARK       I    between atoms: C14_21  and  N1_7 
REMARK    2  A    between atoms: C5_12  and  N1_7 
REMARK    3  A    between atoms: C12_19  and  C4_11 
REMARK    4  A    between atoms: C13_20  and  C14_21 
ROOT
HETATM    1  S1  UNK     1      19.263   5.054  29.505  1.00  0.00    -0.082 SA
HETATM    2  C1  UNK     1      17.620   7.100  32.449  1.00  0.00    -0.018 A 
HETATM    3  C2  UNK     1      18.184   6.087  31.595  1.00  0.00     0.000 A 
HETATM    4  C3  UNK     1      18.422   7.829  33.326  1.00  0.00    -0.050 A 
HETATM    5  C4  UNK     1      18.351   4.702  31.880  1.00  0.00     0.085 A 
HETATM    6  C5  UNK     1      18.919   4.050  30.833  1.00  0.00     0.094 A 
HETATM    7  C6  UNK     1      16.249   7.345  32.388  1.00  0.00     0.013 A 
HETATM    8  C7  UNK     1      17.852   8.804  34.143  1.00  0.00     0.014 A 
HETATM    9  C8  UNK     1      16.480   9.049  34.084  1.00  0.00    -0.061 A 
HETATM   10  C9  UNK     1      18.638   6.414  30.335  1.00  0.00     0.065 A 
HETATM   11  C10 UNK     1      15.679   8.319  33.206  1.00  0.00     0.007 A 
HETATM   12  C11 UNK     1      19.895   7.594  33.418  1.00  0.00     0.049 C 
HETATM   13  C15 UNK     1      15.869  10.092  34.958  1.00  0.00     0.048 C 
ENDROOT
BRANCH   6  14
HETATM   14  N1  UNK     1      19.262   2.703  30.680  1.00  0.00    -0.316 N 
HETATM   15  C14 UNK     1      18.558   1.759  29.946  1.00  0.00     0.262 C 
HETATM   16  O4  UNK     1      17.523   1.906  29.299  1.00  0.00    -0.267 OA
HETATM   17  H8  UNK     1      20.120   2.434  31.151  1.00  0.00     0.169 HD
BRANCH  15  18
HETATM   18  C13 UNK     1      19.197   0.439  29.998  1.00  0.00     0.108 A 
HETATM   19  C17 UNK     1      19.498  -0.025  31.217  1.00  0.00     0.037 A 
HETATM   20  C16 UNK     1      20.135  -1.324  31.371  1.00  0.00    -0.001 A 
HETATM   21  C18 UNK     1      20.421  -2.072  30.233  1.00  0.00     0.089 A 
HETATM   22  C20 UNK     1      20.466  -1.847  32.623  1.00  0.00     0.014 A 
HETATM   23  C21 UNK     1      21.030  -3.323  30.312  1.00  0.00     0.038 A 
HETATM   24  O1  UNK     1      20.102  -1.579  28.954  1.00  0.00    -0.274 OA
HETATM   25  C23 UNK     1      21.359  -3.837  31.565  1.00  0.00     0.003 A 
HETATM   26  C22 UNK     1      21.077  -3.101  32.718  1.00  0.00     0.001 A 
HETATM   27  C19 UNK     1      19.493  -0.340  28.774  1.00  0.00     0.304 A 
HETATM   28  O5  UNK     1      19.219   0.081  27.656  1.00  0.00    -0.259 OA
ENDBRANCH  15  18
ENDBRANCH   6  14
BRANCH   5  29
HETATM   29  C12 UNK     1      17.976   4.048  33.111  1.00  0.00     0.296 C 
HETATM   30  O3  UNK     1      17.962   4.591  34.230  1.00  0.00    -0.259 OA
BRANCH  29  31
HETATM   31  O2  UNK     1      17.627   2.735  32.911  1.00  0.00    -0.322 OA
HETATM   32  C24 UNK     1      18.020   1.790  33.912  1.00  0.00     0.213 C 
ENDBRANCH  29  31
ENDBRANCH   5  29
TORSDOF 4
ENDMDL
MODEL 2
REMARK VINA RESULT:      -9.9      4.112     11.103
REMARK  4 active torsions:
REMARK  status: ('A' for Active; 'I' for Inactive)
REMARK    1  A    between atoms: C12_19  and  O2_3 
REMARK       I    between atoms: C14_21  and  N1_7 
REMARK    2  A    between atoms: C5_12  and  N1_7 
REMARK    3  A    between atoms: C12_19  and  C4_11 
REMARK    4  A    between atoms: C13_20  and  C14_21 
ROOT
HETATM    1  S1  UNK     1      19.686   8.236  34.188  1.00  0.00    -0.082 SA
HETATM    2  C1  UNK     1      18.695   5.164  31.923  1.00  0.00    -0.018 A 
HETATM    3  C2  UNK     1      18.762   6.419  32.624  1.00  0.00     0.000 A 
HETATM    4  C3  UNK     1      19.267   5.012  30.661  1.00  0.00    -0.050 A 
HETATM    5  C4  UNK     1      17.834   7.499  32.569  1.00  0.00     0.085 A 
HETATM    6  C5  UNK     1      18.226   8.524  33.367  1.00  0.00     0.094 A 
HETATM    7  C6  UNK     1      18.043   4.090  32.528  1.00  0.00     0.013 A 
HETATM    8  C7  UNK     1      19.187   3.786  30.002  1.00  0.00     0.014 A 
HETATM    9  C8  UNK     1      18.534   2.711  30.606  1.00  0.00    -0.061 A 
HETATM   10  C9  UNK     1      19.818   6.688  33.468  1.00  0.00     0.065 A 
HETATM   11  C10 UNK     1      17.962   2.864  31.869  1.00  0.00     0.007 A 
HETATM   12  C11 UNK     1      19.974   6.141  29.982  1.00  0.00     0.049 C 
HETATM   13  C15 UNK     1      18.448   1.399  29.902  1.00  0.00     0.048 C 
ENDROOT
BRANCH   6  14
HETATM   14  N1  UNK     1      17.626   9.763  33.614  1.00  0.00    -0.316 N 
HETATM   15  C14 UNK     1      16.571  10.002  34.483  1.00  0.00     0.262 C 
HETATM   16  O4  UNK     1      15.965   9.201  35.193  1.00  0.00    -0.267 OA
HETATM   17  H8  UNK     1      18.041  10.537  33.104  1.00  0.00     0.169 HD
BRANCH  15  18
HETATM   18  C13 UNK     1      16.187  11.418  34.501  1.00  0.00     0.108 A 
HETATM   19  C17 UNK     1      14.875  11.677  34.450  1.00  0.00     0.037 A 
HETATM   20  C16 UNK     1      14.397  13.050  34.461  1.00  0.00    -0.001 A 
HETATM   21  C18 UNK     1      15.324  14.085  34.527  1.00  0.00     0.089 A 
HETATM   22  C20 UNK     1      13.037  13.366  34.411  1.00  0.00     0.014 A 
HETATM   23  C21 UNK     1      14.932  15.423  34.540  1.00  0.00     0.038 A 
HETATM   24  O1  UNK     1      16.704  13.808  34.580  1.00  0.00    -0.274 OA
HETATM   25  C23 UNK     1      13.573  15.728  34.488  1.00  0.00     0.003 A 
HETATM   26  C22 UNK     1      12.628  14.703  34.424  1.00  0.00     0.001 A 
HETATM   27  C19 UNK     1      17.192  12.504  34.571  1.00  0.00     0.304 A 
HETATM   28  O5  UNK     1      18.395  12.272  34.616  1.00  0.00    -0.259 OA
ENDBRANCH  15  18
ENDBRANCH   6  14
BRANCH   5  29
HETATM   29  C12 UNK     1      16.626   7.527  31.779  1.00  0.00     0.296 C 
HETATM   30  O3  UNK     1      16.467   8.201  30.745  1.00  0.00    -0.259 OA
BRANCH  29  31
HETATM   31  O2  UNK     1      15.652   6.712  32.300  1.00  0.00    -0.322 OA
HETATM   32  C24 UNK     1      14.335   7.261  32.427  1.00  0.00     0.213 C 
ENDBRANCH  29  31
ENDBRANCH   5  29
TORSDOF 4
ENDMDL
MODEL 3
REMARK VINA RESULT:      -9.4      5.959     11.842
REMARK  4 active torsions:
REMARK  status: ('A' for Active; 'I' for Inactive)
REMARK    1  A    between atoms: C12_19  and  O2_3 
REMARK       I    between atoms: C14_21  and  N1_7 
REMARK    2  A    between atoms: C5_12  and  N1_7 
REMARK    3  A    between atoms: C12_19  and  C4_11 
REMARK    4  A    between atoms: C13_20  and  C14_21 
ROOT
HETATM    1  S1  UNK     1      20.763  -3.927  37.549  1.00  0.00    -0.082 SA
HETATM    2  C1  UNK     1      20.064  -7.806  37.668  1.00  0.00    -0.018 A 
HETATM    3  C2  UNK     1      20.197  -6.421  37.301  1.00  0.00     0.000 A 
HETATM    4  C3  UNK     1      21.102  -8.711  37.453  1.00  0.00    -0.050 A 
HETATM    5  C4  UNK     1      19.865  -5.814  36.055  1.00  0.00     0.085 A 
HETATM    6  C5  UNK     1      20.126  -4.482  36.074  1.00  0.00     0.094 A 
HETATM    7  C6  UNK     1      18.870  -8.237  38.247  1.00  0.00     0.013 A 
HETATM    8  C7  UNK     1      20.948 -10.048  37.817  1.00  0.00     0.014 A 
HETATM    9  C8  UNK     1      19.755 -10.480  38.394  1.00  0.00    -0.061 A 
HETATM   10  C9  UNK     1      20.696  -5.507  38.204  1.00  0.00     0.065 A 
HETATM   11  C10 UNK     1      18.716  -9.575  38.609  1.00  0.00     0.007 A 
HETATM   12  C11 UNK     1      22.396  -8.285  36.835  1.00  0.00     0.049 C 
HETATM   13  C15 UNK     1      19.589 -11.910  38.784  1.00  0.00     0.048 C 
ENDROOT
BRANCH   6  14
HETATM   14  N1  UNK     1      19.957  -3.510  35.082  1.00  0.00    -0.316 N 
HETATM   15  C14 UNK     1      19.215  -2.343  35.200  1.00  0.00     0.262 C 
HETATM   16  O4  UNK     1      18.574  -1.935  36.167  1.00  0.00    -0.267 OA
HETATM   17  H8  UNK     1      20.452  -3.704  34.217  1.00  0.00     0.169 HD
BRANCH  15  18
HETATM   18  C13 UNK     1      19.249  -1.547  33.967  1.00  0.00     0.108 A 
HETATM   19  C17 UNK     1      19.835  -2.120  32.909  1.00  0.00     0.037 A 
HETATM   20  C16 UNK     1      19.919  -1.409  31.643  1.00  0.00    -0.001 A 
HETATM   21  C18 UNK     1      19.379  -0.130  31.552  1.00  0.00     0.089 A 
HETATM   22  C20 UNK     1      20.522  -1.968  30.513  1.00  0.00     0.014 A 
HETATM   23  C21 UNK     1      19.427   0.604  30.368  1.00  0.00     0.038 A 
HETATM   24  O1  UNK     1      18.763   0.467  32.668  1.00  0.00    -0.274 OA
HETATM   25  C23 UNK     1      20.031   0.040  29.247  1.00  0.00     0.003 A 
HETATM   26  C22 UNK     1      20.577  -1.243  29.319  1.00  0.00     0.001 A 
HETATM   27  C19 UNK     1      18.667  -0.188  33.893  1.00  0.00     0.304 A 
HETATM   28  O5  UNK     1      18.129   0.341  34.860  1.00  0.00    -0.259 OA
ENDBRANCH  15  18
ENDBRANCH   6  14
BRANCH   5  29
HETATM   29  C12 UNK     1      19.322  -6.498  34.907  1.00  0.00     0.296 C 
HETATM   30  O3  UNK     1      18.257  -7.143  34.901  1.00  0.00    -0.259 OA
BRANCH  29  31
HETATM   31  O2  UNK     1      20.120  -6.359  33.799  1.00  0.00    -0.322 OA
HETATM   32  C24 UNK     1      20.946  -7.472  33.440  1.00  0.00     0.213 C 
ENDBRANCH  29  31
ENDBRANCH   5  29
TORSDOF 4
ENDMDL
MODEL 4
REMARK VINA RESULT:      -9.4     15.336     20.476
REMARK  4 active torsions:
REMARK  status: ('A' for Active; 'I' for Inactive)
REMARK    1  A    between atoms: C12_19  and  O2_3 
REMARK       I    between atoms: C14_21  and  N1_7 
REMARK    2  A    between atoms: C5_12  and  N1_7 
REMARK    3  A    between atoms: C12_19  and  C4_11 
REMARK    4  A    between atoms: C13_20  and  C14_21 
ROOT
HETATM    1  S1  UNK     1      19.836  -3.912  11.624  1.00  0.00    -0.082 SA
HETATM    2  C1  UNK     1      20.742  -7.641  12.533  1.00  0.00    -0.018 A 
HETATM    3  C2  UNK     1      20.432  -6.236  12.545  1.00  0.00     0.000 A 
HETATM    4  C3  UNK     1      19.736  -8.601  12.632  1.00  0.00    -0.050 A 
HETATM    5  C4  UNK     1      20.343  -5.373  13.675  1.00  0.00     0.085 A 
HETATM    6  C5  UNK     1      20.030  -4.106  13.301  1.00  0.00     0.094 A 
HETATM    7  C6  UNK     1      22.075  -8.036  12.420  1.00  0.00     0.013 A 
HETATM    8  C7  UNK     1      20.062  -9.957  12.619  1.00  0.00     0.014 A 
HETATM    9  C8  UNK     1      21.395 -10.352  12.508  1.00  0.00    -0.061 A 
HETATM   10  C9  UNK     1      20.179  -5.570  11.365  1.00  0.00     0.065 A 
HETATM   11  C10 UNK     1      22.401  -9.391  12.408  1.00  0.00     0.007 A 
HETATM   12  C11 UNK     1      18.296  -8.215  12.755  1.00  0.00     0.049 C 
HETATM   13  C15 UNK     1      21.744 -11.802  12.493  1.00  0.00     0.048 C 
ENDROOT
BRANCH   6  14
HETATM   14  N1  UNK     1      19.843  -2.953  14.070  1.00  0.00    -0.316 N 
HETATM   15  C14 UNK     1      18.807  -2.726  14.966  1.00  0.00     0.262 C 
HETATM   16  O4  UNK     1      17.870  -3.466  15.258  1.00  0.00    -0.267 OA
HETATM   17  H8  UNK     1      20.563  -2.247  13.947  1.00  0.00     0.169 HD
BRANCH  15  18
HETATM   18  C13 UNK     1      18.916  -1.409  15.605  1.00  0.00     0.108 A 
HETATM   19  C17 UNK     1      18.736  -1.378  16.930  1.00  0.00     0.037 A 
HETATM   20  C16 UNK     1      18.823  -0.119  17.653  1.00  0.00    -0.001 A 
HETATM   21  C18 UNK     1      19.097   1.047  16.944  1.00  0.00     0.089 A 
HETATM   22  C20 UNK     1      18.643  -0.039  19.036  1.00  0.00     0.014 A 
HETATM   23  C21 UNK     1      19.193   2.285  17.576  1.00  0.00     0.038 A 
HETATM   24  O1  UNK     1      19.285   1.008  15.549  1.00  0.00    -0.274 OA
HETATM   25  C23 UNK     1      19.011   2.355  18.956  1.00  0.00     0.003 A 
HETATM   26  C22 UNK     1      18.737   1.196  19.685  1.00  0.00     0.001 A 
HETATM   27  C19 UNK     1      19.208  -0.181  14.830  1.00  0.00     0.304 A 
HETATM   28  O5  UNK     1      19.373  -0.206  13.615  1.00  0.00    -0.259 OA
ENDBRANCH  15  18
ENDBRANCH   6  14
BRANCH   5  29
HETATM   29  C12 UNK     1      20.553  -5.765  15.048  1.00  0.00     0.296 C 
HETATM   30  O3  UNK     1      19.659  -6.155  15.822  1.00  0.00    -0.259 OA
BRANCH  29  31
HETATM   31  O2  UNK     1      21.871  -5.662  15.417  1.00  0.00    -0.322 OA
HETATM   32  C24 UNK     1      22.240  -4.542  16.229  1.00  0.00     0.213 C 
ENDBRANCH  29  31
ENDBRANCH   5  29
TORSDOF 4
ENDMDL
MODEL 5
REMARK VINA RESULT:      -9.2     13.425     16.565
REMARK  4 active torsions:
REMARK  status: ('A' for Active; 'I' for Inactive)
REMARK    1  A    between atoms: C12_19  and  O2_3 
REMARK       I    between atoms: C14_21  and  N1_7 
REMARK    2  A    between atoms: C5_12  and  N1_7 
REMARK    3  A    between atoms: C12_19  and  C4_11 
REMARK    4  A    between atoms: C13_20  and  C14_21 
ROOT
HETATM    1  S1  UNK     1      27.928  -9.151  36.075  1.00  0.00    -0.082 SA
HETATM    2  C1  UNK     1      31.330  -7.219  36.571  1.00  0.00    -0.018 A 
HETATM    3  C2  UNK     1      29.963  -7.669  36.590  1.00  0.00     0.000 A 
HETATM    4  C3  UNK     1      32.240  -7.643  37.538  1.00  0.00    -0.050 A 
HETATM    5  C4  UNK     1      28.855  -7.065  37.252  1.00  0.00     0.085 A 
HETATM    6  C5  UNK     1      27.715  -7.772  37.045  1.00  0.00     0.094 A 
HETATM    7  C6  UNK     1      31.736  -6.343  35.565  1.00  0.00     0.013 A 
HETATM    8  C7  UNK     1      33.559  -7.192  37.498  1.00  0.00     0.014 A 
HETATM    9  C8  UNK     1      33.966  -6.315  36.493  1.00  0.00    -0.061 A 
HETATM   10  C9  UNK     1      29.598  -8.812  35.912  1.00  0.00     0.065 A 
HETATM   11  C10 UNK     1      33.055  -5.891  35.526  1.00  0.00     0.007 A 
HETATM   12  C11 UNK     1      31.840  -8.581  38.631  1.00  0.00     0.049 C 
HETATM   13  C15 UNK     1      35.377  -5.832  36.450  1.00  0.00     0.048 C 
ENDROOT
BRANCH   6  14
HETATM   14  N1  UNK     1      26.412  -7.546  37.501  1.00  0.00    -0.316 N 
HETATM   15  C14 UNK     1      25.855  -8.049  38.668  1.00  0.00     0.262 C 
HETATM   16  O4  UNK     1      26.374  -8.773  39.516  1.00  0.00    -0.267 OA
HETATM   17  H8  UNK     1      25.860  -6.938  36.903  1.00  0.00     0.169 HD
BRANCH  15  18
HETATM   18  C13 UNK     1      24.464  -7.615  38.841  1.00  0.00     0.108 A 
HETATM   19  C17 UNK     1      23.543  -8.584  38.887  1.00  0.00     0.037 A 
HETATM   20  C16 UNK     1      22.137  -8.253  39.055  1.00  0.00    -0.001 A 
HETATM   21  C18 UNK     1      21.769  -6.916  39.168  1.00  0.00     0.089 A 
HETATM   22  C20 UNK     1      21.142  -9.233  39.108  1.00  0.00     0.014 A 
HETATM   23  C21 UNK     1      20.439  -6.532  39.331  1.00  0.00     0.038 A 
HETATM   24  O1  UNK     1      22.743  -5.900  39.120  1.00  0.00    -0.274 OA
HETATM   25  C23 UNK     1      19.453  -7.515  39.382  1.00  0.00     0.003 A 
HETATM   26  C22 UNK     1      19.803  -8.862  39.271  1.00  0.00     0.001 A 
HETATM   27  C19 UNK     1      24.096  -6.186  38.960  1.00  0.00     0.304 A 
HETATM   28  O5  UNK     1      24.936  -5.294  38.918  1.00  0.00    -0.259 OA
ENDBRANCH  15  18
ENDBRANCH   6  14
BRANCH   5  29
HETATM   29  C12 UNK     1      28.907  -5.860  38.044  1.00  0.00     0.296 C 
HETATM   30  O3  UNK     1      28.560  -5.776  39.236  1.00  0.00    -0.259 OA
BRANCH  29  31
HETATM   31  O2  UNK     1      29.393  -4.794  37.328  1.00  0.00    -0.322 OA
HETATM   32  C24 UNK     1      30.270  -3.889  38.009  1.00  0.00     0.213 C 
ENDBRANCH  29  31
ENDBRANCH   5  29
TORSDOF 4
ENDMDL
MODEL 6
REMARK VINA RESULT:      -9.1     15.678     20.613
REMARK  4 active torsions:
REMARK  status: ('A' for Active; 'I' for Inactive)
REMARK    1  A    between atoms: C12_19  and  O2_3 
REMARK       I    between atoms: C14_21  and  N1_7 
REMARK    2  A    between atoms: C5_12  and  N1_7 
REMARK    3  A    between atoms: C12_19  and  C4_11 
REMARK    4  A    between atoms: C13_20  and  C14_21 
ROOT
HETATM    1  S1  UNK     1      17.811  -5.551  15.235  1.00  0.00    -0.082 SA
HETATM    2  C1  UNK     1      18.603  -6.617  11.521  1.00  0.00    -0.018 A 
HETATM    3  C2  UNK     1      18.426  -5.918  12.767  1.00  0.00     0.000 A 
HETATM    4  C3  UNK     1      19.805  -7.254  11.218  1.00  0.00    -0.050 A 
HETATM    5  C4  UNK     1      18.701  -4.548  13.044  1.00  0.00     0.085 A 
HETATM    6  C5  UNK     1      18.409  -4.240  14.334  1.00  0.00     0.094 A 
HETATM    7  C6  UNK     1      17.547  -6.649  10.611  1.00  0.00     0.013 A 
HETATM    8  C7  UNK     1      19.953  -7.923  10.004  1.00  0.00     0.014 A 
HETATM    9  C8  UNK     1      18.897  -7.955   9.093  1.00  0.00    -0.061 A 
HETATM   10  C9  UNK     1      17.936  -6.581  13.872  1.00  0.00     0.065 A 
HETATM   11  C10 UNK     1      17.694  -7.317   9.397  1.00  0.00     0.007 A 
HETATM   12  C11 UNK     1      20.959  -7.241  12.169  1.00  0.00     0.049 C 
HETATM   13  C15 UNK     1      19.053  -8.671   7.794  1.00  0.00     0.048 C 
ENDROOT
BRANCH   6  14
HETATM   14  N1  UNK     1      18.524  -3.031  15.027  1.00  0.00    -0.316 N 
HETATM   15  C14 UNK     1      19.611  -2.624  15.788  1.00  0.00     0.262 C 
HETATM   16  O4  UNK     1      20.663  -3.223  16.004  1.00  0.00    -0.267 OA
HETATM   17  H8  UNK     1      17.725  -2.413  14.924  1.00  0.00     0.169 HD
BRANCH  15  18
HETATM   18  C13 UNK     1      19.400  -1.297  16.378  1.00  0.00     0.108 A 
HETATM   19  C17 UNK     1      19.297  -1.252  17.711  1.00  0.00     0.037 A 
HETATM   20  C16 UNK     1      19.085   0.018  18.388  1.00  0.00    -0.001 A 
HETATM   21  C18 UNK     1      18.994   1.179  17.627  1.00  0.00     0.089 A 
HETATM   22  C20 UNK     1      18.973   0.112  19.778  1.00  0.00     0.014 A 
HETATM   23  C21 UNK     1      18.791   2.427  18.214  1.00  0.00     0.038 A 
HETATM   24  O1  UNK     1      19.103   1.125  16.225  1.00  0.00    -0.274 OA
HETATM   25  C23 UNK     1      18.679   2.511  19.600  1.00  0.00     0.003 A 
HETATM   26  C22 UNK     1      18.770   1.357  20.381  1.00  0.00     0.001 A 
HETATM   27  C19 UNK     1      19.305  -0.074  15.549  1.00  0.00     0.304 A 
HETATM   28  O5  UNK     1      19.398  -0.111  14.327  1.00  0.00    -0.259 OA
ENDBRANCH  15  18
ENDBRANCH   6  14
BRANCH   5  29
HETATM   29  C12 UNK     1      19.221  -3.589  12.100  1.00  0.00     0.296 C 
HETATM   30  O3  UNK     1      18.626  -3.202  11.077  1.00  0.00    -0.259 OA
BRANCH  29  31
HETATM   31  O2  UNK     1      20.468  -3.138  12.457  1.00  0.00    -0.322 OA
HETATM   32  C24 UNK     1      20.907  -1.900  11.887  1.00  0.00     0.213 C 
ENDBRANCH  29  31
ENDBRANCH   5  29
TORSDOF 4
ENDMDL
MODEL 7
REMARK VINA RESULT:      -9.0      3.966      9.740
REMARK  4 active torsions:
REMARK  status: ('A' for Active; 'I' for Inactive)
REMARK    1  A    between atoms: C12_19  and  O2_3 
REMARK       I    between atoms: C14_21  and  N1_7 
REMARK    2  A    between atoms: C5_12  and  N1_7 
REMARK    3  A    between atoms: C12_19  and  C4_11 
REMARK    4  A    between atoms: C13_20  and  C14_21 
ROOT
HETATM    1  S1  UNK     1      18.052  -0.347  37.165  1.00  0.00    -0.082 SA
HETATM    2  C1  UNK     1      19.277  -4.066  36.690  1.00  0.00    -0.018 A 
HETATM    3  C2  UNK     1      18.953  -2.671  36.541  1.00  0.00     0.000 A 
HETATM    4  C3  UNK     1      20.508  -4.467  37.206  1.00  0.00    -0.050 A 
HETATM    5  C4  UNK     1      19.192  -1.837  35.410  1.00  0.00     0.085 A 
HETATM    6  C5  UNK     1      18.750  -0.573  35.631  1.00  0.00     0.094 A 
HETATM    7  C6  UNK     1      18.335  -5.020  36.306  1.00  0.00     0.013 A 
HETATM    8  C7  UNK     1      20.798  -5.825  37.339  1.00  0.00     0.014 A 
HETATM    9  C8  UNK     1      19.857  -6.780  36.955  1.00  0.00    -0.061 A 
HETATM   10  C9  UNK     1      18.339  -1.987  37.567  1.00  0.00     0.065 A 
HETATM   11  C10 UNK     1      18.625  -6.377  36.439  1.00  0.00     0.007 A 
HETATM   12  C11 UNK     1      21.542  -3.473  37.627  1.00  0.00     0.049 C 
HETATM   13  C15 UNK     1      20.166  -8.232  37.098  1.00  0.00     0.048 C 
ENDROOT
BRANCH   6  14
HETATM   14  N1  UNK     1      18.780   0.556  34.807  1.00  0.00    -0.316 N 
HETATM   15  C14 UNK     1      17.700   1.102  34.128  1.00  0.00     0.262 C 
HETATM   16  O4  UNK     1      16.531   0.719  34.110  1.00  0.00    -0.267 OA
HETATM   17  H8  UNK     1      19.691   1.000  34.739  1.00  0.00     0.169 HD
BRANCH  15  18
HETATM   18  C13 UNK     1      18.084   2.287  33.352  1.00  0.00     0.108 A 
HETATM   19  C17 UNK     1      18.112   3.447  34.019  1.00  0.00     0.037 A 
HETATM   20  C16 UNK     1      18.480   4.678  33.336  1.00  0.00    -0.001 A 
HETATM   21  C18 UNK     1      18.802   4.626  31.983  1.00  0.00     0.089 A 
HETATM   22  C20 UNK     1      18.523   5.910  33.992  1.00  0.00     0.014 A 
HETATM   23  C21 UNK     1      19.163   5.768  31.270  1.00  0.00     0.038 A 
HETATM   24  O1  UNK     1      18.771   3.402  31.287  1.00  0.00    -0.274 OA
HETATM   25  C23 UNK     1      19.202   6.993  31.933  1.00  0.00     0.003 A 
HETATM   26  C22 UNK     1      18.884   7.065  33.291  1.00  0.00     0.001 A 
HETATM   27  C19 UNK     1      18.423   2.209  31.913  1.00  0.00     0.304 A 
HETATM   28  O5  UNK     1      18.398   1.149  31.298  1.00  0.00    -0.259 OA
ENDBRANCH  15  18
ENDBRANCH   6  14
BRANCH   5  29
HETATM   29  C12 UNK     1      19.817  -2.253  34.178  1.00  0.00     0.296 C 
HETATM   30  O3  UNK     1      20.807  -3.005  34.101  1.00  0.00    -0.259 OA
BRANCH  29  31
HETATM   31  O2  UNK     1      19.191  -1.723  33.078  1.00  0.00    -0.322 OA
HETATM   32  C24 UNK     1      19.900  -1.765  31.835  1.00  0.00     0.213 C 
ENDBRANCH  29  31
ENDBRANCH   5  29
TORSDOF 4
ENDMDL
MODEL 8
REMARK VINA RESULT:      -8.9     22.566     24.491
REMARK  4 active torsions:
REMARK  status: ('A' for Active; 'I' for Inactive)
REMARK    1  A    between atoms: C12_19  and  O2_3 
REMARK       I    between atoms: C14_21  and  N1_7 
REMARK    2  A    between atoms: C5_12  and  N1_7 
REMARK    3  A    between atoms: C12_19  and  C4_11 
REMARK    4  A    between atoms: C13_20  and  C14_21 
ROOT
HETATM    1  S1  UNK     1      12.227   6.078   7.478  1.00  0.00    -0.082 SA
HETATM    2  C1  UNK     1      14.854   8.680   8.850  1.00  0.00    -0.018 A 
HETATM    3  C2  UNK     1      13.714   7.829   8.629  1.00  0.00     0.000 A 
HETATM    4  C3  UNK     1      15.942   8.243   9.604  1.00  0.00    -0.050 A 
HETATM    5  C4  UNK     1      12.541   7.718   9.430  1.00  0.00     0.085 A 
HETATM    6  C5  UNK     1      11.675   6.811   8.909  1.00  0.00     0.094 A 
HETATM    7  C6  UNK     1      14.855   9.960   8.297  1.00  0.00     0.013 A 
HETATM    8  C7  UNK     1      17.034   9.087   9.805  1.00  0.00     0.014 A 
HETATM    9  C8  UNK     1      17.036  10.367   9.253  1.00  0.00    -0.061 A 
HETATM   10  C9  UNK     1      13.674   6.991   7.535  1.00  0.00     0.065 A 
HETATM   11  C10 UNK     1      15.947  10.804   8.499  1.00  0.00     0.007 A 
HETATM   12  C11 UNK     1      15.975   6.878  10.212  1.00  0.00     0.049 C 
HETATM   13  C15 UNK     1      18.204  11.270   9.467  1.00  0.00     0.048 C 
ENDROOT
BRANCH   6  14
HETATM   14  N1  UNK     1      10.420   6.391   9.361  1.00  0.00    -0.316 N 
HETATM   15  C14 UNK     1       9.231   6.453   8.647  1.00  0.00     0.262 C 
HETATM   16  O4  UNK     1       9.041   6.876   7.509  1.00  0.00    -0.267 OA
HETATM   17  H8  UNK     1      10.424   5.994  10.296  1.00  0.00     0.169 HD
BRANCH  15  18
HETATM   18  C13 UNK     1       8.101   5.927   9.422  1.00  0.00     0.108 A 
HETATM   19  C17 UNK     1       7.749   4.661   9.170  1.00  0.00     0.037 A 
HETATM   20  C16 UNK     1       6.640   4.051   9.886  1.00  0.00    -0.001 A 
HETATM   21  C18 UNK     1       5.956   4.805  10.835  1.00  0.00     0.089 A 
HETATM   22  C20 UNK     1       6.238   2.733   9.655  1.00  0.00     0.014 A 
HETATM   23  C21 UNK     1       4.884   4.280  11.556  1.00  0.00     0.038 A 
HETATM   24  O1  UNK     1       6.331   6.136  11.097  1.00  0.00    -0.274 OA
HETATM   25  C23 UNK     1       4.490   2.965  11.318  1.00  0.00     0.003 A 
HETATM   26  C22 UNK     1       5.165   2.193  10.370  1.00  0.00     0.001 A 
HETATM   27  C19 UNK     1       7.388   6.747  10.428  1.00  0.00     0.304 A 
HETATM   28  O5  UNK     1       7.707   7.908  10.662  1.00  0.00    -0.259 OA
ENDBRANCH  15  18
ENDBRANCH   6  14
BRANCH   5  29
HETATM   29  C12 UNK     1      12.278   8.460  10.639  1.00  0.00     0.296 C 
HETATM   30  O3  UNK     1      13.021   8.481  11.637  1.00  0.00    -0.259 OA
BRANCH  29  31
HETATM   31  O2  UNK     1      11.097   9.157  10.570  1.00  0.00    -0.322 OA
HETATM   32  C24 UNK     1      11.168  10.534  10.184  1.00  0.00     0.213 C 
ENDBRANCH  29  31
ENDBRANCH   5  29
TORSDOF 4
ENDMDL
MODEL 9
REMARK VINA RESULT:      -8.9     14.098     16.883
REMARK  4 active torsions:
REMARK  status: ('A' for Active; 'I' for Inactive)
REMARK    1  A    between atoms: C12_19  and  O2_3 
REMARK       I    between atoms: C14_21  and  N1_7 
REMARK    2  A    between atoms: C5_12  and  N1_7 
REMARK    3  A    between atoms: C12_19  and  C4_11 
REMARK    4  A    between atoms: C13_20  and  C14_21 
ROOT
HETATM    1  S1  UNK     1      29.137  -4.897  38.368  1.00  0.00    -0.082 SA
HETATM    2  C1  UNK     1      32.442  -6.128  36.605  1.00  0.00    -0.018 A 
HETATM    3  C2  UNK     1      31.102  -5.964  37.103  1.00  0.00     0.000 A 
HETATM    4  C3  UNK     1      32.828  -5.581  35.382  1.00  0.00    -0.050 A 
HETATM    5  C4  UNK     1      29.980  -6.813  36.880  1.00  0.00     0.085 A 
HETATM    6  C5  UNK     1      28.874  -6.341  37.510  1.00  0.00     0.094 A 
HETATM    7  C6  UNK     1      33.360  -6.850  37.368  1.00  0.00     0.013 A 
HETATM    8  C7  UNK     1      34.133  -5.755  34.922  1.00  0.00     0.014 A 
HETATM    9  C8  UNK     1      35.051  -6.477  35.684  1.00  0.00    -0.061 A 
HETATM   10  C9  UNK     1      30.783  -4.884  37.896  1.00  0.00     0.065 A 
HETATM   11  C10 UNK     1      34.664  -7.025  36.907  1.00  0.00     0.007 A 
HETATM   12  C11 UNK     1      31.872  -4.802  34.537  1.00  0.00     0.049 C 
HETATM   13  C15 UNK     1      36.447  -6.664  35.192  1.00  0.00     0.048 C 
ENDROOT
BRANCH   6  14
HETATM   14  N1  UNK     1      27.572  -6.848  37.560  1.00  0.00    -0.316 N 
HETATM   15  C14 UNK     1      27.050  -7.662  38.556  1.00  0.00     0.262 C 
HETATM   16  O4  UNK     1      27.605  -8.092  39.565  1.00  0.00    -0.267 OA
HETATM   17  H8  UNK     1      26.979  -6.556  36.788  1.00  0.00     0.169 HD
BRANCH  15  18
HETATM   18  C13 UNK     1      25.648  -8.012  38.296  1.00  0.00     0.108 A 
HETATM   19  C17 UNK     1      24.732  -7.371  39.032  1.00  0.00     0.037 A 
HETATM   20  C16 UNK     1      23.317  -7.651  38.848  1.00  0.00    -0.001 A 
HETATM   21  C18 UNK     1      22.934  -8.591  37.897  1.00  0.00     0.089 A 
HETATM   22  C20 UNK     1      22.327  -7.005  39.594  1.00  0.00     0.014 A 
HETATM   23  C21 UNK     1      21.595  -8.905  37.672  1.00  0.00     0.038 A 
HETATM   24  O1  UNK     1      23.903  -9.262  37.125  1.00  0.00    -0.274 OA
HETATM   25  C23 UNK     1      20.615  -8.258  38.420  1.00  0.00     0.003 A 
HETATM   26  C22 UNK     1      20.979  -7.310  39.379  1.00  0.00     0.001 A 
HETATM   27  C19 UNK     1      25.264  -9.016  37.278  1.00  0.00     0.304 A 
HETATM   28  O5  UNK     1      26.100  -9.606  36.602  1.00  0.00    -0.259 OA
ENDBRANCH  15  18
ENDBRANCH   6  14
BRANCH   5  29
HETATM   29  C12 UNK     1      29.987  -8.023  36.094  1.00  0.00     0.296 C 
HETATM   30  O3  UNK     1      30.236  -8.080  34.875  1.00  0.00    -0.259 OA
BRANCH  29  31
HETATM   31  O2  UNK     1      29.685  -9.129  36.848  1.00  0.00    -0.322 OA
HETATM   32  C24 UNK     1      30.689  -9.600  37.755  1.00  0.00     0.213 C 
ENDBRANCH  29  31
ENDBRANCH   5  29
TORSDOF 4
ENDMDL
MODEL 10
REMARK VINA RESULT:      -8.8      1.983      3.603
REMARK  4 active torsions:
REMARK  status: ('A' for Active; 'I' for Inactive)
REMARK    1  A    between atoms: C12_19  and  O2_3 
REMARK       I    between atoms: C14_21  and  N1_7 
REMARK    2  A    between atoms: C5_12  and  N1_7 
REMARK    3  A    between atoms: C12_19  and  C4_11 
REMARK    4  A    between atoms: C13_20  and  C14_21 
ROOT
HETATM    1  S1  UNK     1      19.800   6.102  34.309  1.00  0.00    -0.082 SA
HETATM    2  C1  UNK     1      17.455   9.264  34.081  1.00  0.00    -0.018 A 
HETATM    3  C2  UNK     1      18.143   8.017  33.875  1.00  0.00     0.000 A 
HETATM    4  C3  UNK     1      16.289   9.326  34.842  1.00  0.00    -0.050 A 
HETATM    5  C4  UNK     1      17.943   7.075  32.825  1.00  0.00     0.085 A 
HETATM    6  C5  UNK     1      18.776   6.011  32.955  1.00  0.00     0.094 A 
HETATM    7  C6  UNK     1      17.974  10.422  33.503  1.00  0.00     0.013 A 
HETATM    8  C7  UNK     1      15.641  10.547  35.026  1.00  0.00     0.014 A 
HETATM    9  C8  UNK     1      16.159  11.706  34.447  1.00  0.00    -0.061 A 
HETATM   10  C9  UNK     1      19.125   7.611  34.753  1.00  0.00     0.065 A 
HETATM   11  C10 UNK     1      17.326  11.643  33.686  1.00  0.00     0.007 A 
HETATM   12  C11 UNK     1      15.703   8.106  35.477  1.00  0.00     0.049 C 
HETATM   13  C15 UNK     1      15.466  13.012  34.644  1.00  0.00     0.048 C 
ENDROOT
BRANCH   6  14
HETATM   14  N1  UNK     1      18.920   4.868  32.162  1.00  0.00    -0.316 N 
HETATM   15  C14 UNK     1      18.342   3.629  32.401  1.00  0.00     0.262 C 
HETATM   16  O4  UNK     1      17.609   3.290  33.329  1.00  0.00    -0.267 OA
HETATM   17  H8  UNK     1      19.493   5.003  31.334  1.00  0.00     0.169 HD
BRANCH  15  18
HETATM   18  C13 UNK     1      18.701   2.650  31.368  1.00  0.00     0.108 A 
HETATM   19  C17 UNK     1      19.050   1.433  31.802  1.00  0.00     0.037 A 
HETATM   20  C16 UNK     1      19.424   0.396  30.853  1.00  0.00    -0.001 A 
HETATM   21  C18 UNK     1      19.410   0.690  29.493  1.00  0.00     0.089 A 
HETATM   22  C20 UNK     1      19.794  -0.888  31.261  1.00  0.00     0.014 A 
HETATM   23  C21 UNK     1      19.757  -0.258  28.533  1.00  0.00     0.038 A 
HETATM   24  O1  UNK     1      19.042   1.973  29.043  1.00  0.00    -0.274 OA
HETATM   25  C23 UNK     1      20.126  -1.536  28.949  1.00  0.00     0.003 A 
HETATM   26  C22 UNK     1      20.145  -1.851  30.309  1.00  0.00     0.001 A 
HETATM   27  C19 UNK     1      18.680   2.986  29.926  1.00  0.00     0.304 A 
HETATM   28  O5  UNK     1      18.361   4.100  29.525  1.00  0.00    -0.259 OA
ENDBRANCH  15  18
ENDBRANCH   6  14
BRANCH   5  29
HETATM   29  C12 UNK     1      16.990   7.207  31.750  1.00  0.00     0.296 C 
HETATM   30  O3  UNK     1      17.145   7.926  30.746  1.00  0.00    -0.259 OA
BRANCH  29  31
HETATM   31  O2  UNK     1      15.872   6.438  31.955  1.00  0.00    -0.322 OA
HETATM   32  C24 UNK     1      14.611   7.114  32.016  1.00  0.00     0.213 C 
ENDBRANCH  29  31
ENDBRANCH   5  29
TORSDOF 4
ENDMDL
