MODEL 1
REMARK VINA RESULT:      -8.9      0.000      0.000
REMARK  7 active torsions:
REMARK  status: ('A' for Active; 'I' for Inactive)
REMARK    1  A    between atoms: C12_20  and  O3_4 
REMARK    2  A    between atoms: C19_27  and  O3_4 
REMARK    3  A    between atoms: C22_30  and  O6_7 
REMARK    4  A    between atoms: C23_31  and  O6_7 
REMARK    5  A    between atoms: C1_9  and  C10_18 
REMARK    6  A    between atoms: C12_20  and  C6_14 
REMARK    7  A    between atoms: C19_27  and  C22_30 
ROOT
HETATM    1  O1  UNK     1      26.716  -9.571  36.247  1.00  0.00    -0.293 OA
HETATM    2  N1  UNK     1      29.590  -6.142  37.807  1.00  0.00    -0.362 N 
HETATM    3  C1  UNK     1      28.840  -7.736  35.581  1.00  0.00     0.104 C 
HETATM    4  C2  UNK     1      28.249  -7.911  36.976  1.00  0.00     0.024 C 
HETATM    5  C3  UNK     1      28.657  -7.141  38.008  1.00  0.00     0.020 C 
HETATM    6  C4  UNK     1      28.145  -7.305  39.415  1.00  0.00     0.058 C 
HETATM    7  C5  UNK     1      27.540  -8.683  39.651  1.00  0.00     0.014 C 
HETATM    8  C6  UNK     1      29.743  -6.506  35.473  1.00  0.00     0.052 C 
HETATM    9  C7  UNK     1      26.538  -9.027  38.565  1.00  0.00     0.084 C 
HETATM   10  C8  UNK     1      27.154  -8.908  37.188  1.00  0.00     0.158 C 
HETATM   11  C9  UNK     1      30.096  -5.790  36.565  1.00  0.00     0.018 C 
HETATM   12  C13 UNK     1      31.016  -4.599  36.571  1.00  0.00     0.069 C 
HETATM   13  H8  UNK     1      29.868  -5.585  38.606  1.00  0.00     0.165 HD
ENDROOT
BRANCH   3  14
HETATM   14  C10 UNK     1      29.595  -8.973  35.177  1.00  0.00     0.029 A 
HETATM   15  C11 UNK     1      29.302  -9.582  33.854  1.00  0.00     0.194 A 
HETATM   16  C15 UNK     1      30.069 -10.793  33.509  1.00  0.00     0.050 A 
HETATM   17  O4  UNK     1      28.472  -9.109  33.090  1.00  0.00    -0.287 OA
HETATM   18  C16 UNK     1      31.003 -11.288  34.420  1.00  0.00     0.089 A 
HETATM   19  C17 UNK     1      29.866 -11.441  32.287  1.00  0.00     0.042 A 
HETATM   20  O2  UNK     1      31.243 -10.692  35.633  1.00  0.00    -0.321 OA
HETATM   21  C18 UNK     1      31.739 -12.433  34.114  1.00  0.00     0.040 A 
HETATM   22  C14 UNK     1      30.521  -9.566  35.941  1.00  0.00     0.154 A 
HETATM   23  C21 UNK     1      31.539 -13.081  32.894  1.00  0.00     0.026 A 
HETATM   24  C20 UNK     1      30.604 -12.585  31.984  1.00  0.00     0.035 A 
HETATM   25 Cl1  UNK     1      30.361 -13.390  30.481  1.00  0.00    -0.084 Cl
ENDBRANCH   3  14
BRANCH   8  26
HETATM   26  C12 UNK     1      30.163  -6.118  34.116  1.00  0.00     0.292 C 
HETATM   27  O5  UNK     1      31.325  -6.111  33.752  1.00  0.00    -0.259 OA
BRANCH  26  28
HETATM   28  O3  UNK     1      29.058  -5.793  33.403  1.00  0.00    -0.316 OA
BRANCH  28  29
HETATM   29  C19 UNK     1      29.313  -5.256  32.101  1.00  0.00     0.205 C 
BRANCH  29  30
HETATM   30  C22 UNK     1      28.718  -6.183  31.059  1.00  0.00     0.202 C 
BRANCH  30  31
HETATM   31  O6  UNK     1      29.773  -6.850  30.375  1.00  0.00    -0.349 OA
BRANCH  31  32
HETATM   32  C23 UNK     1      29.431  -7.956  29.642  1.00  0.00     0.068 A 
HETATM   33  C24 UNK     1      30.370  -8.539  28.798  1.00  0.00     0.037 A 
HETATM   34  C26 UNK     1      30.022  -9.665  28.051  1.00  0.00     0.003 A 
HETATM   35  C28 UNK     1      28.738 -10.200  28.153  1.00  0.00     0.000 A 
HETATM   36  C27 UNK     1      27.802  -9.609  29.002  1.00  0.00     0.003 A 
HETATM   37  C25 UNK     1      28.150  -8.484  29.749  1.00  0.00     0.037 A 
ENDBRANCH  31  32
ENDBRANCH  30  31
ENDBRANCH  29  30
ENDBRANCH  28  29
ENDBRANCH  26  28
ENDBRANCH   8  26
TORSDOF 7
ENDMDL
MODEL 2
REMARK VINA RESULT:      -8.9      2.586      4.641
REMARK  7 active torsions:
REMARK  status: ('A' for Active; 'I' for Inactive)
REMARK    1  A    between atoms: C12_20  and  O3_4 
REMARK    2  A    between atoms: C19_27  and  O3_4 
REMARK    3  A    between atoms: C22_30  and  O6_7 
REMARK    4  A    between atoms: C23_31  and  O6_7 
REMARK    5  A    between atoms: C1_9  and  C10_18 
REMARK    6  A    between atoms: C12_20  and  C6_14 
REMARK    7  A    between atoms: C19_27  and  C22_30 
ROOT
HETATM    1  O1  UNK     1      30.421  -3.750  37.324  1.00  0.00    -0.293 OA
HETATM    2  N1  UNK     1      29.838  -8.363  38.232  1.00  0.00    -0.362 N 
HETATM    3  C1  UNK     1      31.263  -6.439  36.707  1.00  0.00     0.104 C 
HETATM    4  C2  UNK     1      30.126  -6.081  37.659  1.00  0.00     0.024 C 
HETATM    5  C3  UNK     1      29.463  -7.038  38.344  1.00  0.00     0.020 C 
HETATM    6  C4  UNK     1      28.301  -6.746  39.257  1.00  0.00     0.058 C 
HETATM    7  C5  UNK     1      27.651  -5.403  38.950  1.00  0.00     0.014 C 
HETATM    8  C6  UNK     1      31.664  -7.913  36.794  1.00  0.00     0.052 C 
HETATM    9  C7  UNK     1      28.693  -4.303  38.875  1.00  0.00     0.084 C 
HETATM   10  C8  UNK     1      29.784  -4.642  37.883  1.00  0.00     0.158 C 
HETATM   11  C9  UNK     1      30.939  -8.802  37.513  1.00  0.00     0.018 C 
HETATM   12  C13 UNK     1      31.220 -10.276  37.621  1.00  0.00     0.069 C 
HETATM   13  H8  UNK     1      29.316  -9.050  38.764  1.00  0.00     0.165 HD
ENDROOT
BRANCH   3  14
HETATM   14  C10 UNK     1      30.890  -6.084  35.294  1.00  0.00     0.029 A 
HETATM   15  C11 UNK     1      29.628  -6.633  34.734  1.00  0.00     0.194 A 
HETATM   16  C15 UNK     1      29.311  -6.255  33.345  1.00  0.00     0.050 A 
HETATM   17  O4  UNK     1      28.889  -7.360  35.385  1.00  0.00    -0.287 OA
HETATM   18  C16 UNK     1      30.190  -5.423  32.650  1.00  0.00     0.089 A 
HETATM   19  C17 UNK     1      28.147  -6.721  32.728  1.00  0.00     0.042 A 
HETATM   20  O2  UNK     1      31.346  -4.937  33.207  1.00  0.00    -0.321 OA
HETATM   21  C18 UNK     1      29.910  -5.053  31.334  1.00  0.00     0.040 A 
HETATM   22  C14 UNK     1      31.629  -5.298  34.501  1.00  0.00     0.154 A 
HETATM   23  C21 UNK     1      28.747  -5.516  30.716  1.00  0.00     0.026 A 
HETATM   24  C20 UNK     1      27.869  -6.348  31.412  1.00  0.00     0.035 A 
HETATM   25 Cl1  UNK     1      26.437  -6.917  30.643  1.00  0.00    -0.084 Cl
ENDBRANCH   3  14
BRANCH   8  26
HETATM   26  C12 UNK     1      32.902  -8.298  36.098  1.00  0.00     0.292 C 
HETATM   27  O5  UNK     1      34.006  -7.908  36.431  1.00  0.00    -0.259 OA
BRANCH  26  28
HETATM   28  O3  UNK     1      32.577  -9.124  35.074  1.00  0.00    -0.316 OA
BRANCH  28  29
HETATM   29  C19 UNK     1      33.443  -9.050  33.936  1.00  0.00     0.205 C 
BRANCH  29  30
HETATM   30  C22 UNK     1      32.707  -8.371  32.798  1.00  0.00     0.202 C 
BRANCH  30  31
HETATM   31  O6  UNK     1      31.461  -9.028  32.595  1.00  0.00    -0.349 OA
BRANCH  31  32
HETATM   32  C23 UNK     1      30.895  -8.908  31.353  1.00  0.00     0.068 A 
HETATM   33  C24 UNK     1      29.701  -9.566  31.074  1.00  0.00     0.037 A 
HETATM   34  C26 UNK     1      29.125  -9.444  29.809  1.00  0.00     0.003 A 
HETATM   35  C28 UNK     1      29.744  -8.664  28.832  1.00  0.00     0.000 A 
HETATM   36  C27 UNK     1      30.941  -8.007  29.121  1.00  0.00     0.003 A 
HETATM   37  C25 UNK     1      31.517  -8.129  30.385  1.00  0.00     0.037 A 
ENDBRANCH  31  32
ENDBRANCH  30  31
ENDBRANCH  29  30
ENDBRANCH  28  29
ENDBRANCH  26  28
ENDBRANCH   8  26
TORSDOF 7
ENDMDL
MODEL 3
REMARK VINA RESULT:      -8.8      3.092      5.941
REMARK  7 active torsions:
REMARK  status: ('A' for Active; 'I' for Inactive)
REMARK    1  A    between atoms: C12_20  and  O3_4 
REMARK    2  A    between atoms: C19_27  and  O3_4 
REMARK    3  A    between atoms: C22_30  and  O6_7 
REMARK    4  A    between atoms: C23_31  and  O6_7 
REMARK    5  A    between atoms: C1_9  and  C10_18 
REMARK    6  A    between atoms: C12_20  and  C6_14 
REMARK    7  A    between atoms: C19_27  and  C22_30 
ROOT
HETATM    1  O1  UNK     1      32.291  -9.234  34.720  1.00  0.00    -0.293 OA
HETATM    2  N1  UNK     1      28.853  -9.951  31.540  1.00  0.00    -0.362 N 
HETATM    3  C1  UNK     1      30.016  -8.103  33.353  1.00  0.00     0.104 C 
HETATM    4  C2  UNK     1      30.489  -9.546  33.206  1.00  0.00     0.024 C 
HETATM    5  C3  UNK     1      29.886 -10.393  32.344  1.00  0.00     0.020 C 
HETATM    6  C4  UNK     1      30.279 -11.839  32.195  1.00  0.00     0.058 C 
HETATM    7  C5  UNK     1      31.035 -12.359  33.411  1.00  0.00     0.014 C 
HETATM    8  C6  UNK     1      28.972  -7.714  32.305  1.00  0.00     0.052 C 
HETATM    9  C7  UNK     1      32.174 -11.425  33.778  1.00  0.00     0.084 C 
HETATM   10  C8  UNK     1      31.681 -10.009  33.982  1.00  0.00     0.158 C 
HETATM   11  C9  UNK     1      28.425  -8.634  31.477  1.00  0.00     0.018 C 
HETATM   12  C13 UNK     1      27.359  -8.364  30.450  1.00  0.00     0.069 C 
HETATM   13  H8  UNK     1      28.428 -10.618  30.905  1.00  0.00     0.165 HD
ENDROOT
BRANCH   3  14
HETATM   14  C10 UNK     1      29.474  -7.873  34.737  1.00  0.00     0.029 A 
HETATM   15  C11 UNK     1      29.893  -6.650  35.468  1.00  0.00     0.194 A 
HETATM   16  C15 UNK     1      29.333  -6.474  36.821  1.00  0.00     0.050 A 
HETATM   17  O4  UNK     1      30.659  -5.830  34.980  1.00  0.00    -0.287 OA
HETATM   18  C16 UNK     1      28.463  -7.440  37.327  1.00  0.00     0.089 A 
HETATM   19  C17 UNK     1      29.667  -5.356  37.590  1.00  0.00     0.042 A 
HETATM   20  O2  UNK     1      28.101  -8.557  36.616  1.00  0.00    -0.321 OA
HETATM   21  C18 UNK     1      27.922  -7.295  38.605  1.00  0.00     0.040 A 
HETATM   22  C14 UNK     1      28.630  -8.708  35.358  1.00  0.00     0.154 A 
HETATM   23  C21 UNK     1      28.254  -6.178  39.375  1.00  0.00     0.026 A 
HETATM   24  C20 UNK     1      29.123  -5.212  38.867  1.00  0.00     0.035 A 
HETATM   25 Cl1  UNK     1      29.529  -3.838  39.823  1.00  0.00    -0.084 Cl
ENDBRANCH   3  14
BRANCH   8  26
HETATM   26  C12 UNK     1      28.636  -6.284  32.213  1.00  0.00     0.292 C 
HETATM   27  O5  UNK     1      27.537  -5.836  32.488  1.00  0.00    -0.259 OA
BRANCH  26  28
HETATM   28  O3  UNK     1      29.733  -5.614  31.788  1.00  0.00    -0.316 OA
BRANCH  28  29
HETATM   29  C19 UNK     1      29.680  -5.163  30.430  1.00  0.00     0.205 C 
BRANCH  29  30
HETATM   30  C22 UNK     1      30.915  -5.651  29.698  1.00  0.00     0.202 C 
BRANCH  30  31
HETATM   31  O6  UNK     1      30.707  -6.996  29.283  1.00  0.00    -0.349 OA
BRANCH  31  32
HETATM   32  C23 UNK     1      31.604  -7.927  29.737  1.00  0.00     0.068 A 
HETATM   33  C24 UNK     1      31.563  -9.224  29.235  1.00  0.00     0.037 A 
HETATM   34  C26 UNK     1      32.475 -10.173  29.698  1.00  0.00     0.003 A 
HETATM   35  C28 UNK     1      33.423  -9.819  30.658  1.00  0.00     0.000 A 
HETATM   36  C27 UNK     1      33.458  -8.516  31.156  1.00  0.00     0.003 A 
HETATM   37  C25 UNK     1      32.546  -7.568  30.694  1.00  0.00     0.037 A 
ENDBRANCH  31  32
ENDBRANCH  30  31
ENDBRANCH  29  30
ENDBRANCH  28  29
ENDBRANCH  26  28
ENDBRANCH   8  26
TORSDOF 7
ENDMDL
MODEL 4
REMARK VINA RESULT:      -8.7      2.754      7.229
REMARK  7 active torsions:
REMARK  status: ('A' for Active; 'I' for Inactive)
REMARK    1  A    between atoms: C12_20  and  O3_4 
REMARK    2  A    between atoms: C19_27  and  O3_4 
REMARK    3  A    between atoms: C22_30  and  O6_7 
REMARK    4  A    between atoms: C23_31  and  O6_7 
REMARK    5  A    between atoms: C1_9  and  C10_18 
REMARK    6  A    between atoms: C12_20  and  C6_14 
REMARK    7  A    between atoms: C19_27  and  C22_30 
ROOT
HETATM    1  O1  UNK     1      32.201  -7.248  34.103  1.00  0.00    -0.293 OA
HETATM    2  N1  UNK     1      29.920  -5.307  37.774  1.00  0.00    -0.362 N 
HETATM    3  C1  UNK     1      29.858  -7.330  35.784  1.00  0.00     0.104 C 
HETATM    4  C2  UNK     1      30.957  -6.276  35.875  1.00  0.00     0.024 C 
HETATM    5  C3  UNK     1      30.927  -5.319  36.828  1.00  0.00     0.020 C 
HETATM    6  C4  UNK     1      31.957  -4.226  36.934  1.00  0.00     0.058 C 
HETATM    7  C5  UNK     1      32.704  -4.010  35.623  1.00  0.00     0.014 C 
HETATM    8  C6  UNK     1      28.897  -7.286  36.972  1.00  0.00     0.052 C 
HETATM    9  C7  UNK     1      33.228  -5.326  35.077  1.00  0.00     0.084 C 
HETATM   10  C8  UNK     1      32.117  -6.343  34.934  1.00  0.00     0.158 C 
HETATM   11  C9  UNK     1      28.946  -6.287  37.885  1.00  0.00     0.018 C 
HETATM   12  C13 UNK     1      28.017  -6.126  39.057  1.00  0.00     0.069 C 
HETATM   13  H8  UNK     1      29.935  -4.574  38.473  1.00  0.00     0.165 HD
ENDROOT
BRANCH   3  14
HETATM   14  C10 UNK     1      29.098  -7.178  34.494  1.00  0.00     0.029 A 
HETATM   15  C11 UNK     1      29.208  -8.253  33.475  1.00  0.00     0.194 A 
HETATM   16  C15 UNK     1      28.444  -8.053  32.230  1.00  0.00     0.050 A 
HETATM   17  O4  UNK     1      29.894  -9.251  33.653  1.00  0.00    -0.287 OA
HETATM   18  C16 UNK     1      27.679  -6.896  32.081  1.00  0.00     0.089 A 
HETATM   19  C17 UNK     1      28.483  -9.007  31.209  1.00  0.00     0.042 A 
HETATM   20  O2  UNK     1      27.605  -5.927  33.050  1.00  0.00    -0.321 OA
HETATM   21  C18 UNK     1      26.949  -6.686  30.911  1.00  0.00     0.040 A 
HETATM   22  C14 UNK     1      28.321  -6.126  34.204  1.00  0.00     0.154 A 
HETATM   23  C21 UNK     1      26.985  -7.638  29.891  1.00  0.00     0.026 A 
HETATM   24  C20 UNK     1      27.750  -8.795  30.041  1.00  0.00     0.035 A 
HETATM   25 Cl1  UNK     1      27.792  -9.964  28.778  1.00  0.00    -0.084 Cl
ENDBRANCH   3  14
BRANCH   8  26
HETATM   26  C12 UNK     1      27.955  -8.410  37.097  1.00  0.00     0.292 C 
HETATM   27  O5  UNK     1      28.306  -9.558  37.300  1.00  0.00    -0.259 OA
BRANCH  26  28
HETATM   28  O3  UNK     1      26.696  -7.932  36.947  1.00  0.00    -0.316 OA
BRANCH  28  29
HETATM   29  C19 UNK     1      25.659  -8.787  37.441  1.00  0.00     0.205 C 
BRANCH  29  30
HETATM   30  C22 UNK     1      25.222  -8.295  38.807  1.00  0.00     0.202 C 
BRANCH  30  31
HETATM   31  O6  UNK     1      24.476  -7.093  38.651  1.00  0.00    -0.349 OA
BRANCH  31  32
HETATM   32  C23 UNK     1      23.128  -7.168  38.881  1.00  0.00     0.068 A 
HETATM   33  C24 UNK     1      22.306  -6.109  38.510  1.00  0.00     0.037 A 
HETATM   34  C26 UNK     1      20.933  -6.186  38.745  1.00  0.00     0.003 A 
HETATM   35  C28 UNK     1      20.390  -7.321  39.348  1.00  0.00     0.000 A 
HETATM   36  C27 UNK     1      21.222  -8.379  39.716  1.00  0.00     0.003 A 
HETATM   37  C25 UNK     1      22.594  -8.302  39.482  1.00  0.00     0.037 A 
ENDBRANCH  31  32
ENDBRANCH  30  31
ENDBRANCH  29  30
ENDBRANCH  28  29
ENDBRANCH  26  28
ENDBRANCH   8  26
TORSDOF 7
ENDMDL
MODEL 5
REMARK VINA RESULT:      -8.4      3.063      5.789
REMARK  7 active torsions:
REMARK  status: ('A' for Active; 'I' for Inactive)
REMARK    1  A    between atoms: C12_20  and  O3_4 
REMARK    2  A    between atoms: C19_27  and  O3_4 
REMARK    3  A    between atoms: C22_30  and  O6_7 
REMARK    4  A    between atoms: C23_31  and  O6_7 
REMARK    5  A    between atoms: C1_9  and  C10_18 
REMARK    6  A    between atoms: C12_20  and  C6_14 
REMARK    7  A    between atoms: C19_27  and  C22_30 
ROOT
HETATM    1  O1  UNK     1      28.006  -8.497  32.604  1.00  0.00    -0.293 OA
HETATM    2  N1  UNK     1      32.228  -6.560  31.672  1.00  0.00    -0.362 N 
HETATM    3  C1  UNK     1      30.770  -8.278  33.398  1.00  0.00     0.104 C 
HETATM    4  C2  UNK     1      30.130  -7.497  32.255  1.00  0.00     0.024 C 
HETATM    5  C3  UNK     1      30.865  -6.674  31.476  1.00  0.00     0.020 C 
HETATM    6  C4  UNK     1      30.277  -5.842  30.367  1.00  0.00     0.058 C 
HETATM    7  C5  UNK     1      28.776  -5.637  30.535  1.00  0.00     0.014 C 
HETATM    8  C6  UNK     1      32.296  -8.171  33.406  1.00  0.00     0.052 C 
HETATM    9  C7  UNK     1      28.074  -6.961  30.778  1.00  0.00     0.084 C 
HETATM   10  C8  UNK     1      28.679  -7.698  31.953  1.00  0.00     0.158 C 
HETATM   11  C9  UNK     1      32.949  -7.319  32.582  1.00  0.00     0.018 C 
HETATM   12  C13 UNK     1      34.437  -7.104  32.546  1.00  0.00     0.069 C 
HETATM   13  H8  UNK     1      32.743  -5.933  31.066  1.00  0.00     0.165 HD
ENDROOT
BRANCH   3  14
HETATM   14  C10 UNK     1      30.211  -7.820  34.718  1.00  0.00     0.029 A 
HETATM   15  C11 UNK     1      29.642  -8.837  35.639  1.00  0.00     0.194 A 
HETATM   16  C15 UNK     1      29.107  -8.334  36.917  1.00  0.00     0.050 A 
HETATM   17  O4  UNK     1      29.617 -10.028  35.358  1.00  0.00    -0.287 OA
HETATM   18  C16 UNK     1      29.162  -6.966  37.185  1.00  0.00     0.089 A 
HETATM   19  C17 UNK     1      28.550  -9.212  37.851  1.00  0.00     0.042 A 
HETATM   20  O2  UNK     1      29.697  -6.059  36.304  1.00  0.00    -0.321 OA
HETATM   21  C18 UNK     1      28.660  -6.467  38.388  1.00  0.00     0.040 A 
HETATM   22  C14 UNK     1      30.192  -6.541  35.118  1.00  0.00     0.154 A 
HETATM   23  C21 UNK     1      28.105  -7.343  39.322  1.00  0.00     0.026 A 
HETATM   24  C20 UNK     1      28.050  -8.711  39.054  1.00  0.00     0.035 A 
HETATM   25 Cl1  UNK     1      27.362  -9.784  40.211  1.00  0.00    -0.084 Cl
ENDBRANCH   3  14
BRANCH   8  26
HETATM   26  C12 UNK     1      33.013  -9.078  34.317  1.00  0.00     0.292 C 
HETATM   27  O5  UNK     1      33.594  -8.700  35.318  1.00  0.00    -0.259 OA
BRANCH  26  28
HETATM   28  O3  UNK     1      32.899 -10.341  33.840  1.00  0.00    -0.316 OA
BRANCH  28  29
HETATM   29  C19 UNK     1      33.975 -10.772  32.999  1.00  0.00     0.205 C 
BRANCH  29  30
HETATM   30  C22 UNK     1      33.409 -11.237  31.671  1.00  0.00     0.202 C 
BRANCH  30  31
HETATM   31  O6  UNK     1      33.561 -10.196  30.713  1.00  0.00    -0.349 OA
BRANCH  31  32
HETATM   32  C23 UNK     1      32.446  -9.851  29.994  1.00  0.00     0.068 A 
HETATM   33  C24 UNK     1      32.546  -8.906  28.980  1.00  0.00     0.037 A 
HETATM   34  C26 UNK     1      31.411  -8.554  28.249  1.00  0.00     0.003 A 
HETATM   35  C28 UNK     1      30.183  -9.151  28.536  1.00  0.00     0.000 A 
HETATM   36  C27 UNK     1      30.092 -10.099  29.556  1.00  0.00     0.003 A 
HETATM   37  C25 UNK     1      31.226 -10.450  30.286  1.00  0.00     0.037 A 
ENDBRANCH  31  32
ENDBRANCH  30  31
ENDBRANCH  29  30
ENDBRANCH  28  29
ENDBRANCH  26  28
ENDBRANCH   8  26
TORSDOF 7
ENDMDL
MODEL 6
REMARK VINA RESULT:      -8.4      3.400      6.650
REMARK  7 active torsions:
REMARK  status: ('A' for Active; 'I' for Inactive)
REMARK    1  A    between atoms: C12_20  and  O3_4 
REMARK    2  A    between atoms: C19_27  and  O3_4 
REMARK    3  A    between atoms: C22_30  and  O6_7 
REMARK    4  A    between atoms: C23_31  and  O6_7 
REMARK    5  A    between atoms: C1_9  and  C10_18 
REMARK    6  A    between atoms: C12_20  and  C6_14 
REMARK    7  A    between atoms: C19_27  and  C22_30 
ROOT
HETATM    1  O1  UNK     1      31.459  -7.765  37.477  1.00  0.00    -0.293 OA
HETATM    2  N1  UNK     1      27.037  -6.497  38.614  1.00  0.00    -0.362 N 
HETATM    3  C1  UNK     1      28.679  -8.537  37.520  1.00  0.00     0.104 C 
HETATM    4  C2  UNK     1      29.208  -7.168  37.937  1.00  0.00     0.024 C 
HETATM    5  C3  UNK     1      28.379  -6.223  38.431  1.00  0.00     0.020 C 
HETATM    6  C4  UNK     1      28.838  -4.840  38.811  1.00  0.00     0.058 C 
HETATM    7  C5  UNK     1      30.151  -4.463  38.137  1.00  0.00     0.014 C 
HETATM    8  C6  UNK     1      27.217  -8.751  37.912  1.00  0.00     0.052 C 
HETATM    9  C7  UNK     1      31.190  -5.552  38.331  1.00  0.00     0.084 C 
HETATM   10  C8  UNK     1      30.676  -6.894  37.857  1.00  0.00     0.158 C 
HETATM   11  C9  UNK     1      26.463  -7.741  38.407  1.00  0.00     0.018 C 
HETATM   12  C13 UNK     1      25.007  -7.835  38.775  1.00  0.00     0.069 C 
HETATM   13  H8  UNK     1      26.451  -5.761  38.989  1.00  0.00     0.165 HD
ENDROOT
BRANCH   3  14
HETATM   14  C10 UNK     1      28.854  -8.732  36.038  1.00  0.00     0.029 A 
HETATM   15  C11 UNK     1      28.243  -7.742  35.116  1.00  0.00     0.194 A 
HETATM   16  C15 UNK     1      28.444  -7.981  33.674  1.00  0.00     0.050 A 
HETATM   17  O4  UNK     1      27.607  -6.779  35.523  1.00  0.00    -0.287 OA
HETATM   18  C16 UNK     1      29.177  -9.096  33.267  1.00  0.00     0.089 A 
HETATM   19  C17 UNK     1      27.908  -7.106  32.725  1.00  0.00     0.042 A 
HETATM   20  O2  UNK     1      29.726  -9.987  34.155  1.00  0.00    -0.321 OA
HETATM   21  C18 UNK     1      29.379  -9.342  31.909  1.00  0.00     0.040 A 
HETATM   22  C14 UNK     1      29.531  -9.752  35.493  1.00  0.00     0.154 A 
HETATM   23  C21 UNK     1      28.845  -8.469  30.959  1.00  0.00     0.026 A 
HETATM   24  C20 UNK     1      28.112  -7.355  31.368  1.00  0.00     0.035 A 
HETATM   25 Cl1  UNK     1      27.455  -6.283  30.191  1.00  0.00    -0.084 Cl
ENDBRANCH   3  14
BRANCH   8  26
HETATM   26  C12 UNK     1      26.692 -10.119  37.771  1.00  0.00     0.292 C 
HETATM   27  O5  UNK     1      26.891 -11.000  38.587  1.00  0.00    -0.259 OA
BRANCH  26  28
HETATM   28  O3  UNK     1      25.987 -10.189  36.616  1.00  0.00    -0.316 OA
BRANCH  28  29
HETATM   29  C19 UNK     1      25.416 -11.470  36.331  1.00  0.00     0.205 C 
BRANCH  29  30
HETATM   30  C22 UNK     1      23.967 -11.286  35.921  1.00  0.00     0.202 C 
BRANCH  30  31
HETATM   31  O6  UNK     1      23.535  -9.989  36.318  1.00  0.00    -0.349 OA
BRANCH  31  32
HETATM   32  C23 UNK     1      22.182  -9.794  36.421  1.00  0.00     0.068 A 
HETATM   33  C24 UNK     1      21.408 -10.704  37.133  1.00  0.00     0.037 A 
HETATM   34  C26 UNK     1      20.030 -10.506  37.237  1.00  0.00     0.003 A 
HETATM   35  C28 UNK     1      19.437  -9.399  36.629  1.00  0.00     0.000 A 
HETATM   36  C27 UNK     1      20.222  -8.491  35.916  1.00  0.00     0.003 A 
HETATM   37  C25 UNK     1      21.598  -8.690  35.813  1.00  0.00     0.037 A 
ENDBRANCH  31  32
ENDBRANCH  30  31
ENDBRANCH  29  30
ENDBRANCH  28  29
ENDBRANCH  26  28
ENDBRANCH   8  26
TORSDOF 7
ENDMDL
MODEL 7
REMARK VINA RESULT:      -8.4      2.499      6.594
REMARK  7 active torsions:
REMARK  status: ('A' for Active; 'I' for Inactive)
REMARK    1  A    between atoms: C12_20  and  O3_4 
REMARK    2  A    between atoms: C19_27  and  O3_4 
REMARK    3  A    between atoms: C22_30  and  O6_7 
REMARK    4  A    between atoms: C23_31  and  O6_7 
REMARK    5  A    between atoms: C1_9  and  C10_18 
REMARK    6  A    between atoms: C12_20  and  C6_14 
REMARK    7  A    between atoms: C19_27  and  C22_30 
ROOT
HETATM    1  O1  UNK     1      34.038  -7.234  32.329  1.00  0.00    -0.293 OA
HETATM    2  N1  UNK     1      33.044  -6.835  36.944  1.00  0.00    -0.362 N 
HETATM    3  C1  UNK     1      32.464  -8.221  34.536  1.00  0.00     0.104 C 
HETATM    4  C2  UNK     1      33.422  -7.036  34.613  1.00  0.00     0.024 C 
HETATM    5  C3  UNK     1      33.646  -6.395  35.781  1.00  0.00     0.020 C 
HETATM    6  C4  UNK     1      34.541  -5.191  35.904  1.00  0.00     0.058 C 
HETATM    7  C5  UNK     1      34.750  -4.489  34.568  1.00  0.00     0.014 C 
HETATM    8  C6  UNK     1      31.989  -8.687  35.913  1.00  0.00     0.052 C 
HETATM    9  C7  UNK     1      35.163  -5.481  33.496  1.00  0.00     0.084 C 
HETATM   10  C8  UNK     1      34.172  -6.620  33.388  1.00  0.00     0.158 C 
HETATM   11  C9  UNK     1      32.267  -7.980  37.034  1.00  0.00     0.018 C 
HETATM   12  C13 UNK     1      31.806  -8.325  38.423  1.00  0.00     0.069 C 
HETATM   13  H8  UNK     1      33.239  -6.328  37.799  1.00  0.00     0.165 HD
ENDROOT
BRANCH   3  14
HETATM   14  C10 UNK     1      31.284  -7.880  33.667  1.00  0.00     0.029 A 
HETATM   15  C11 UNK     1      30.933  -8.801  32.556  1.00  0.00     0.194 A 
HETATM   16  C15 UNK     1      29.769  -8.420  31.735  1.00  0.00     0.050 A 
HETATM   17  O4  UNK     1      31.569  -9.822  32.330  1.00  0.00    -0.287 OA
HETATM   18  C16 UNK     1      29.080  -7.245  32.038  1.00  0.00     0.089 A 
HETATM   19  C17 UNK     1      29.358  -9.221  30.666  1.00  0.00     0.042 A 
HETATM   20  O2  UNK     1      29.440  -6.422  33.076  1.00  0.00    -0.321 OA
HETATM   21  C18 UNK     1      27.977  -6.864  31.274  1.00  0.00     0.040 A 
HETATM   22  C14 UNK     1      30.525  -6.789  33.831  1.00  0.00     0.154 A 
HETATM   23  C21 UNK     1      27.564  -7.663  30.206  1.00  0.00     0.026 A 
HETATM   24  C20 UNK     1      28.254  -8.838  29.904  1.00  0.00     0.035 A 
HETATM   25 Cl1  UNK     1      27.740  -9.817  28.584  1.00  0.00    -0.084 Cl
ENDBRANCH   3  14
BRANCH   8  26
HETATM   26  C12 UNK     1      31.260  -9.965  35.958  1.00  0.00     0.292 C 
HETATM   27  O5  UNK     1      31.743 -11.023  35.599  1.00  0.00    -0.259 OA
BRANCH  26  28
HETATM   28  O3  UNK     1      30.020  -9.733  36.452  1.00  0.00    -0.316 OA
BRANCH  28  29
HETATM   29  C19 UNK     1      28.976  -9.690  35.473  1.00  0.00     0.205 C 
BRANCH  29  30
HETATM   30  C22 UNK     1      27.733  -9.091  36.103  1.00  0.00     0.202 C 
BRANCH  30  31
HETATM   31  O6  UNK     1      27.763  -7.678  35.935  1.00  0.00    -0.349 OA
BRANCH  31  32
HETATM   32  C23 UNK     1      28.249  -6.942  36.983  1.00  0.00     0.068 A 
HETATM   33  C24 UNK     1      27.757  -7.162  38.265  1.00  0.00     0.037 A 
HETATM   34  C26 UNK     1      28.251  -6.411  39.332  1.00  0.00     0.003 A 
HETATM   35  C28 UNK     1      29.235  -5.447  39.111  1.00  0.00     0.000 A 
HETATM   36  C27 UNK     1      29.723  -5.234  37.821  1.00  0.00     0.003 A 
HETATM   37  C25 UNK     1      29.229  -5.983  36.755  1.00  0.00     0.037 A 
ENDBRANCH  31  32
ENDBRANCH  30  31
ENDBRANCH  29  30
ENDBRANCH  28  29
ENDBRANCH  26  28
ENDBRANCH   8  26
TORSDOF 7
ENDMDL
MODEL 8
REMARK VINA RESULT:      -8.3      3.549      6.053
REMARK  7 active torsions:
REMARK  status: ('A' for Active; 'I' for Inactive)
REMARK    1  A    between atoms: C12_20  and  O3_4 
REMARK    2  A    between atoms: C19_27  and  O3_4 
REMARK    3  A    between atoms: C22_30  and  O6_7 
REMARK    4  A    between atoms: C23_31  and  O6_7 
REMARK    5  A    between atoms: C1_9  and  C10_18 
REMARK    6  A    between atoms: C12_20  and  C6_14 
REMARK    7  A    between atoms: C19_27  and  C22_30 
ROOT
HETATM    1  O1  UNK     1      31.146  -9.767  34.065  1.00  0.00    -0.293 OA
HETATM    2  N1  UNK     1      31.151  -5.042  34.408  1.00  0.00    -0.362 N 
HETATM    3  C1  UNK     1      31.729  -7.485  35.731  1.00  0.00     0.104 C 
HETATM    4  C2  UNK     1      31.095  -7.411  34.345  1.00  0.00     0.024 C 
HETATM    5  C3  UNK     1      30.819  -6.221  33.769  1.00  0.00     0.020 C 
HETATM    6  C4  UNK     1      30.149  -6.089  32.426  1.00  0.00     0.058 C 
HETATM    7  C5  UNK     1      29.387  -7.350  32.037  1.00  0.00     0.014 C 
HETATM    8  C6  UNK     1      32.175  -6.118  36.251  1.00  0.00     0.052 C 
HETATM    9  C7  UNK     1      30.263  -8.580  32.192  1.00  0.00     0.084 C 
HETATM   10  C8  UNK     1      30.836  -8.675  33.589  1.00  0.00     0.158 C 
HETATM   11  C9  UNK     1      31.855  -4.975  35.600  1.00  0.00     0.018 C 
HETATM   12  C13 UNK     1      32.201  -3.583  36.054  1.00  0.00     0.069 C 
HETATM   13  H8  UNK     1      30.929  -4.171  33.940  1.00  0.00     0.165 HD
ENDROOT
BRANCH   3  14
HETATM   14  C10 UNK     1      30.777  -8.127  36.704  1.00  0.00     0.029 A 
HETATM   15  C11 UNK     1      29.389  -7.605  36.787  1.00  0.00     0.194 A 
HETATM   16  C15 UNK     1      28.499  -8.269  37.758  1.00  0.00     0.050 A 
HETATM   17  O4  UNK     1      29.001  -6.676  36.093  1.00  0.00    -0.287 OA
HETATM   18  C16 UNK     1      28.996  -9.323  38.524  1.00  0.00     0.089 A 
HETATM   19  C17 UNK     1      27.175  -7.850  37.911  1.00  0.00     0.042 A 
HETATM   20  O2  UNK     1      30.288  -9.775  38.414  1.00  0.00    -0.321 OA
HETATM   21  C18 UNK     1      28.172  -9.966  39.448  1.00  0.00     0.040 A 
HETATM   22  C14 UNK     1      31.105  -9.148  37.507  1.00  0.00     0.154 A 
HETATM   23  C21 UNK     1      26.848  -9.550  39.603  1.00  0.00     0.026 A 
HETATM   24  C20 UNK     1      26.352  -8.495  38.836  1.00  0.00     0.035 A 
HETATM   25 Cl1  UNK     1      24.719  -7.986  39.033  1.00  0.00    -0.084 Cl
ENDBRANCH   3  14
BRANCH   8  26
HETATM   26  C12 UNK     1      33.009  -6.117  37.464  1.00  0.00     0.292 C 
HETATM   27  O5  UNK     1      32.627  -5.691  38.539  1.00  0.00    -0.259 OA
BRANCH  26  28
HETATM   28  O3  UNK     1      34.213  -6.656  37.154  1.00  0.00    -0.316 OA
BRANCH  28  29
HETATM   29  C19 UNK     1      35.160  -5.741  36.592  1.00  0.00     0.205 C 
BRANCH  29  30
HETATM   30  C22 UNK     1      35.765  -6.359  35.346  1.00  0.00     0.202 C 
BRANCH  30  31
HETATM   31  O6  UNK     1      35.235  -7.668  35.174  1.00  0.00    -0.349 OA
BRANCH  31  32
HETATM   32  C23 UNK     1      34.779  -7.990  33.923  1.00  0.00     0.068 A 
HETATM   33  C24 UNK     1      34.429  -6.977  33.036  1.00  0.00     0.037 A 
HETATM   34  C26 UNK     1      33.963  -7.305  31.762  1.00  0.00     0.003 A 
HETATM   35  C28 UNK     1      33.852  -8.643  31.382  1.00  0.00     0.000 A 
HETATM   36  C27 UNK     1      34.206  -9.652  32.278  1.00  0.00     0.003 A 
HETATM   37  C25 UNK     1      34.671  -9.325  33.551  1.00  0.00     0.037 A 
ENDBRANCH  31  32
ENDBRANCH  30  31
ENDBRANCH  29  30
ENDBRANCH  28  29
ENDBRANCH  26  28
ENDBRANCH   8  26
TORSDOF 7
ENDMDL
MODEL 9
REMARK VINA RESULT:      -8.3      3.283      5.606
REMARK  7 active torsions:
REMARK  status: ('A' for Active; 'I' for Inactive)
REMARK    1  A    between atoms: C12_20  and  O3_4 
REMARK    2  A    between atoms: C19_27  and  O3_4 
REMARK    3  A    between atoms: C22_30  and  O6_7 
REMARK    4  A    between atoms: C23_31  and  O6_7 
REMARK    5  A    between atoms: C1_9  and  C10_18 
REMARK    6  A    between atoms: C12_20  and  C6_14 
REMARK    7  A    between atoms: C19_27  and  C22_30 
ROOT
HETATM    1  O1  UNK     1      32.609  -8.814  36.987  1.00  0.00    -0.293 OA
HETATM    2  N1  UNK     1      30.920  -5.114  34.557  1.00  0.00    -0.362 N 
HETATM    3  C1  UNK     1      31.873  -7.783  34.395  1.00  0.00     0.104 C 
HETATM    4  C2  UNK     1      31.853  -6.975  35.690  1.00  0.00     0.024 C 
HETATM    5  C3  UNK     1      31.410  -5.699  35.708  1.00  0.00     0.020 C 
HETATM    6  C4  UNK     1      31.415  -4.841  36.946  1.00  0.00     0.058 C 
HETATM    7  C5  UNK     1      32.393  -5.352  37.997  1.00  0.00     0.014 C 
HETATM    8  C6  UNK     1      31.170  -7.066  33.241  1.00  0.00     0.052 C 
HETATM    9  C7  UNK     1      32.186  -6.834  38.252  1.00  0.00     0.084 C 
HETATM   10  C8  UNK     1      32.269  -7.630  36.968  1.00  0.00     0.158 C 
HETATM   11  C9  UNK     1      30.754  -5.783  33.354  1.00  0.00     0.018 C 
HETATM   12  C13 UNK     1      30.100  -4.976  32.265  1.00  0.00     0.069 C 
HETATM   13  H8  UNK     1      30.596  -4.156  34.613  1.00  0.00     0.165 HD
ENDROOT
BRANCH   3  14
HETATM   14  C10 UNK     1      33.289  -8.117  34.014  1.00  0.00     0.029 A 
HETATM   15  C11 UNK     1      33.632  -9.535  33.733  1.00  0.00     0.194 A 
HETATM   16  C15 UNK     1      35.034  -9.808  33.365  1.00  0.00     0.050 A 
HETATM   17  O4  UNK     1      32.802 -10.431  33.802  1.00  0.00    -0.287 OA
HETATM   18  C16 UNK     1      35.938  -8.747  33.302  1.00  0.00     0.089 A 
HETATM   19  C17 UNK     1      35.456 -11.110  33.083  1.00  0.00     0.042 A 
HETATM   20  O2  UNK     1      35.578  -7.450  33.569  1.00  0.00    -0.321 OA
HETATM   21  C18 UNK     1      37.269  -8.982  32.957  1.00  0.00     0.040 A 
HETATM   22  C14 UNK     1      34.270  -7.211  33.911  1.00  0.00     0.154 A 
HETATM   23  C21 UNK     1      37.692 -10.281  32.673  1.00  0.00     0.026 A 
HETATM   24  C20 UNK     1      36.787 -11.342  32.736  1.00  0.00     0.035 A 
HETATM   25 Cl1  UNK     1      37.317 -12.943  32.387  1.00  0.00    -0.084 Cl
ENDBRANCH   3  14
BRANCH   8  26
HETATM   26  C12 UNK     1      30.927  -7.861  32.027  1.00  0.00     0.292 C 
HETATM   27  O5  UNK     1      31.754  -8.005  31.144  1.00  0.00    -0.259 OA
BRANCH  26  28
HETATM   28  O3  UNK     1      29.672  -8.368  32.091  1.00  0.00    -0.316 OA
BRANCH  28  29
HETATM   29  C19 UNK     1      29.598  -9.774  32.349  1.00  0.00     0.205 C 
BRANCH  29  30
HETATM   30  C22 UNK     1      28.969  -9.995  33.711  1.00  0.00     0.202 C 
BRANCH  30  31
HETATM   31  O6  UNK     1      28.256  -8.822  34.088  1.00  0.00    -0.349 OA
BRANCH  31  32
HETATM   32  C23 UNK     1      28.379  -8.418  35.391  1.00  0.00     0.068 A 
HETATM   33  C24 UNK     1      28.868  -9.305  36.344  1.00  0.00     0.037 A 
HETATM   34  C26 UNK     1      28.993  -8.893  37.672  1.00  0.00     0.003 A 
HETATM   35  C28 UNK     1      28.630  -7.597  38.037  1.00  0.00     0.000 A 
HETATM   36  C27 UNK     1      28.140  -6.713  37.075  1.00  0.00     0.003 A 
HETATM   37  C25 UNK     1      28.015  -7.125  35.749  1.00  0.00     0.037 A 
ENDBRANCH  31  32
ENDBRANCH  30  31
ENDBRANCH  29  30
ENDBRANCH  28  29
ENDBRANCH  26  28
ENDBRANCH   8  26
TORSDOF 7
ENDMDL
MODEL 10
REMARK VINA RESULT:      -8.3      3.619      5.182
REMARK  7 active torsions:
REMARK  status: ('A' for Active; 'I' for Inactive)
REMARK    1  A    between atoms: C12_20  and  O3_4 
REMARK    2  A    between atoms: C19_27  and  O3_4 
REMARK    3  A    between atoms: C22_30  and  O6_7 
REMARK    4  A    between atoms: C23_31  and  O6_7 
REMARK    5  A    between atoms: C1_9  and  C10_18 
REMARK    6  A    between atoms: C12_20  and  C6_14 
REMARK    7  A    between atoms: C19_27  and  C22_30 
ROOT
HETATM    1  O1  UNK     1      31.588  -4.761  35.387  1.00  0.00    -0.293 OA
HETATM    2  N1  UNK     1      35.540  -7.349  35.751  1.00  0.00    -0.362 N 
HETATM    3  C1  UNK     1      33.582  -6.302  33.983  1.00  0.00     0.104 C 
HETATM    4  C2  UNK     1      33.516  -6.141  35.498  1.00  0.00     0.024 C 
HETATM    5  C3  UNK     1      34.462  -6.680  36.298  1.00  0.00     0.020 C 
HETATM    6  C4  UNK     1      34.419  -6.596  37.801  1.00  0.00     0.058 C 
HETATM    7  C5  UNK     1      33.017  -6.310  38.322  1.00  0.00     0.014 C 
HETATM    8  C6  UNK     1      34.895  -6.931  33.512  1.00  0.00     0.052 C 
HETATM    9  C7  UNK     1      32.405  -5.123  37.601  1.00  0.00     0.084 C 
HETATM   10  C8  UNK     1      32.421  -5.321  36.102  1.00  0.00     0.158 C 
HETATM   11  C9  UNK     1      35.789  -7.441  34.390  1.00  0.00     0.018 C 
HETATM   12  C13 UNK     1      37.080  -8.123  34.027  1.00  0.00     0.069 C 
HETATM   13  H8  UNK     1      36.229  -7.736  36.385  1.00  0.00     0.165 HD
ENDROOT
BRANCH   3  14
HETATM   14  C10 UNK     1      32.413  -7.112  33.494  1.00  0.00     0.029 A 
HETATM   15  C11 UNK     1      31.364  -6.431  32.692  1.00  0.00     0.194 A 
HETATM   16  C15 UNK     1      30.240  -7.271  32.239  1.00  0.00     0.050 A 
HETATM   17  O4  UNK     1      31.425  -5.240  32.418  1.00  0.00    -0.287 OA
HETATM   18  C16 UNK     1      30.223  -8.624  32.580  1.00  0.00     0.089 A 
HETATM   19  C17 UNK     1      29.203  -6.724  31.478  1.00  0.00     0.042 A 
HETATM   20  O2  UNK     1      31.214  -9.213  33.325  1.00  0.00    -0.321 OA
HETATM   21  C18 UNK     1      29.168  -9.437  32.164  1.00  0.00     0.040 A 
HETATM   22  C14 UNK     1      32.254  -8.419  33.739  1.00  0.00     0.154 A 
HETATM   23  C21 UNK     1      28.132  -8.893  31.403  1.00  0.00     0.026 A 
HETATM   24  C20 UNK     1      28.151  -7.540  31.062  1.00  0.00     0.035 A 
HETATM   25 Cl1  UNK     1      26.868  -6.875  30.125  1.00  0.00    -0.084 Cl
ENDBRANCH   3  14
BRANCH   8  26
HETATM   26  C12 UNK     1      35.152  -6.904  32.063  1.00  0.00     0.292 C 
HETATM   27  O5  UNK     1      35.767  -6.011  31.509  1.00  0.00    -0.259 OA
BRANCH  26  28
HETATM   28  O3  UNK     1      34.598  -8.009  31.510  1.00  0.00    -0.316 OA
BRANCH  28  29
HETATM   29  C19 UNK     1      35.103  -8.359  30.217  1.00  0.00     0.205 C 
BRANCH  29  30
HETATM   30  C22 UNK     1      34.081  -7.972  29.165  1.00  0.00     0.202 C 
BRANCH  30  31
HETATM   31  O6  UNK     1      32.798  -7.887  29.775  1.00  0.00    -0.349 OA
BRANCH  31  32
HETATM   32  C23 UNK     1      31.866  -8.812  29.385  1.00  0.00     0.068 A 
HETATM   33  C24 UNK     1      30.814  -8.425  28.562  1.00  0.00     0.037 A 
HETATM   34  C26 UNK     1      29.865  -9.367  28.166  1.00  0.00     0.003 A 
HETATM   35  C28 UNK     1      29.974 -10.690  28.593  1.00  0.00     0.000 A 
HETATM   36  C27 UNK     1      31.033 -11.070  29.419  1.00  0.00     0.003 A 
HETATM   37  C25 UNK     1      31.981 -10.129  29.815  1.00  0.00     0.037 A 
ENDBRANCH  31  32
ENDBRANCH  30  31
ENDBRANCH  29  30
ENDBRANCH  28  29
ENDBRANCH  26  28
ENDBRANCH   8  26
TORSDOF 7
ENDMDL
