MODEL 1
REMARK VINA RESULT:      -7.4      0.000      0.000
REMARK  4 active torsions:
REMARK  status: ('A' for Active; 'I' for Inactive)
REMARK    1  A    between atoms: C1_4  and  N1_3 
REMARK       I    between atoms: C6_9  and  N1_3 
REMARK    2  A    between atoms: C6_9  and  C7_10 
REMARK    3  A    between atoms: C7_10  and  C8_11 
REMARK    4  A    between atoms: C10_13  and  C9_12 
ROOT
HETATM    1  C7  UNK     1      18.290   4.561  33.041  1.00  0.00     0.043 C 
HETATM    2  C9  UNK     1      17.737   5.375  33.965  1.00  0.00     0.031 C 
ENDROOT
BRANCH   1   3
HETATM    3  C6  UNK     1      18.081   3.082  33.252  1.00  0.00     0.252 C 
HETATM    4  O1  UNK     1      17.756   2.336  32.330  1.00  0.00    -0.268 OA
HETATM    5  N1  UNK     1      18.279   2.658  34.559  1.00  0.00    -0.352 N 
HETATM    6  H10 UNK     1      18.503   3.325  35.288  1.00  0.00     0.163 HD
BRANCH   5   7
HETATM    7  C1  UNK     1      18.118   1.281  34.954  1.00  0.00     0.084 C 
HETATM    8  C2  UNK     1      16.678   0.972  35.344  1.00  0.00     0.025 C 
HETATM    9  C4  UNK     1      16.558   1.457  36.786  1.00  0.00     0.002 C 
HETATM   10  C5  UNK     1      17.971   1.410  37.368  1.00  0.00     0.002 C 
HETATM   11  C3  UNK     1      18.888   0.962  36.231  1.00  0.00     0.025 C 
ENDBRANCH   5   7
ENDBRANCH   1   3
BRANCH   1  12
HETATM   12  C8  UNK     1      19.035   5.083  31.880  1.00  0.00    -0.021 A 
HETATM   13  C11 UNK     1      20.373   5.410  32.027  1.00  0.00     0.012 A 
HETATM   14  C13 UNK     1      21.078   5.903  30.929  1.00  0.00     0.001 A 
HETATM   15  C17 UNK     1      20.434   6.064  29.701  1.00  0.00     0.000 A 
HETATM   16  C14 UNK     1      19.087   5.730  29.572  1.00  0.00     0.001 A 
HETATM   17  C12 UNK     1      18.381   5.237  30.670  1.00  0.00     0.012 A 
ENDBRANCH   1  12
BRANCH   2  18
HETATM   18  C10 UNK     1      17.783   6.845  33.950  1.00  0.00    -0.013 A 
HETATM   19  C15 UNK     1      16.805   7.600  33.317  1.00  0.00     0.044 A 
HETATM   20 Cl1  UNK     1      15.464   6.878  32.498  1.00  0.00    -0.083 Cl
HETATM   21  C18 UNK     1      16.893   8.992  33.332  1.00  0.00     0.024 A 
HETATM   22  C20 UNK     1      17.957   9.617  33.981  1.00  0.00     0.002 A 
HETATM   23  C19 UNK     1      18.935   8.849  34.615  1.00  0.00     0.001 A 
HETATM   24  C16 UNK     1      18.847   7.458  34.600  1.00  0.00     0.013 A 
ENDBRANCH   2  18
TORSDOF 4
ENDMDL
MODEL 2
REMARK VINA RESULT:      -7.2     18.812     21.161
REMARK  4 active torsions:
REMARK  status: ('A' for Active; 'I' for Inactive)
REMARK    1  A    between atoms: C1_4  and  N1_3 
REMARK       I    between atoms: C6_9  and  N1_3 
REMARK    2  A    between atoms: C6_9  and  C7_10 
REMARK    3  A    between atoms: C7_10  and  C8_11 
REMARK    4  A    between atoms: C10_13  and  C9_12 
ROOT
HETATM    1  C7  UNK     1      20.517  -3.991  15.668  1.00  0.00     0.043 C 
HETATM    2  C9  UNK     1      20.185  -5.299  15.696  1.00  0.00     0.031 C 
ENDROOT
BRANCH   1   3
HETATM    3  C6  UNK     1      21.370  -3.500  16.811  1.00  0.00     0.252 C 
HETATM    4  O1  UNK     1      21.101  -2.466  17.421  1.00  0.00    -0.268 OA
HETATM    5  N1  UNK     1      22.464  -4.304  17.094  1.00  0.00    -0.352 N 
HETATM    6  H10 UNK     1      22.662  -5.121  16.528  1.00  0.00     0.163 HD
BRANCH   5   7
HETATM    7  C1  UNK     1      23.399  -3.992  18.147  1.00  0.00     0.084 C 
HETATM    8  C2  UNK     1      24.343  -2.866  17.746  1.00  0.00     0.025 C 
HETATM    9  C4  UNK     1      25.425  -3.551  16.915  1.00  0.00     0.002 C 
HETATM   10  C5  UNK     1      25.458  -5.007  17.381  1.00  0.00     0.002 C 
HETATM   11  C3  UNK     1      24.351  -5.149  18.423  1.00  0.00     0.025 C 
ENDBRANCH   5   7
ENDBRANCH   1   3
BRANCH   1  12
HETATM   12  C8  UNK     1      20.090  -3.096  14.575  1.00  0.00    -0.021 A 
HETATM   13  C11 UNK     1      20.926  -2.913  13.486  1.00  0.00     0.012 A 
HETATM   14  C13 UNK     1      20.523  -2.068  12.452  1.00  0.00     0.001 A 
HETATM   15  C17 UNK     1      19.291  -1.417  12.524  1.00  0.00     0.000 A 
HETATM   16  C14 UNK     1      18.462  -1.613  13.628  1.00  0.00     0.001 A 
HETATM   17  C12 UNK     1      18.866  -2.458  14.662  1.00  0.00     0.012 A 
ENDBRANCH   1  12
BRANCH   2  18
HETATM   18  C10 UNK     1      19.391  -6.004  14.679  1.00  0.00    -0.013 A 
HETATM   19  C15 UNK     1      18.008  -6.090  14.760  1.00  0.00     0.044 A 
HETATM   20 Cl1  UNK     1      17.112  -5.380  16.057  1.00  0.00    -0.083 Cl
HETATM   21  C18 UNK     1      17.301  -6.771  13.769  1.00  0.00     0.024 A 
HETATM   22  C20 UNK     1      17.983  -7.359  12.704  1.00  0.00     0.002 A 
HETATM   23  C19 UNK     1      19.373  -7.267  12.631  1.00  0.00     0.001 A 
HETATM   24  C16 UNK     1      20.080  -6.587  13.622  1.00  0.00     0.013 A 
ENDBRANCH   2  18
TORSDOF 4
ENDMDL
MODEL 3
REMARK VINA RESULT:      -7.1      7.646     12.326
REMARK  4 active torsions:
REMARK  status: ('A' for Active; 'I' for Inactive)
REMARK    1  A    between atoms: C1_4  and  N1_3 
REMARK       I    between atoms: C6_9  and  N1_3 
REMARK    2  A    between atoms: C6_9  and  C7_10 
REMARK    3  A    between atoms: C7_10  and  C8_11 
REMARK    4  A    between atoms: C10_13  and  C9_12 
ROOT
HETATM    1  C7  UNK     1      20.185  -4.577  36.995  1.00  0.00     0.043 C 
HETATM    2  C9  UNK     1      20.990  -4.865  38.039  1.00  0.00     0.031 C 
ENDROOT
BRANCH   1   3
HETATM    3  C6  UNK     1      20.264  -3.166  36.467  1.00  0.00     0.252 C 
HETATM    4  O1  UNK     1      21.275  -2.739  35.911  1.00  0.00    -0.268 OA
HETATM    5  N1  UNK     1      19.117  -2.413  36.674  1.00  0.00    -0.352 N 
HETATM    6  H10 UNK     1      18.330  -2.803  37.179  1.00  0.00     0.163 HD
BRANCH   5   7
HETATM    7  C1  UNK     1      19.008  -1.040  36.246  1.00  0.00     0.084 C 
HETATM    8  C2  UNK     1      18.132  -0.225  37.188  1.00  0.00     0.025 C 
HETATM    9  C4  UNK     1      16.704  -0.532  36.746  1.00  0.00     0.002 C 
HETATM   10  C5  UNK     1      16.794  -0.935  35.274  1.00  0.00     0.002 C 
HETATM   11  C3  UNK     1      18.278  -0.916  34.914  1.00  0.00     0.025 C 
ENDBRANCH   5   7
ENDBRANCH   1   3
BRANCH   1  12
HETATM   12  C8  UNK     1      19.295  -5.585  36.388  1.00  0.00    -0.021 A 
HETATM   13  C11 UNK     1      17.971  -5.647  36.788  1.00  0.00     0.012 A 
HETATM   14  C13 UNK     1      17.130  -6.600  36.214  1.00  0.00     0.001 A 
HETATM   15  C17 UNK     1      17.626  -7.478  35.249  1.00  0.00     0.000 A 
HETATM   16  C14 UNK     1      18.962  -7.401  34.858  1.00  0.00     0.001 A 
HETATM   17  C12 UNK     1      19.804  -6.448  35.433  1.00  0.00     0.012 A 
ENDBRANCH   1  12
BRANCH   2  18
HETATM   18  C10 UNK     1      21.107  -6.175  38.696  1.00  0.00    -0.013 A 
HETATM   19  C15 UNK     1      22.329  -6.669  39.130  1.00  0.00     0.044 A 
HETATM   20 Cl1  UNK     1      23.805  -5.790  38.930  1.00  0.00    -0.083 Cl
HETATM   21  C18 UNK     1      22.387  -7.918  39.748  1.00  0.00     0.024 A 
HETATM   22  C20 UNK     1      21.221  -8.662  39.929  1.00  0.00     0.002 A 
HETATM   23  C19 UNK     1      19.997  -8.155  39.491  1.00  0.00     0.001 A 
HETATM   24  C16 UNK     1      19.939  -6.908  38.872  1.00  0.00     0.013 A 
ENDBRANCH   2  18
TORSDOF 4
ENDMDL
MODEL 4
REMARK VINA RESULT:      -7.1      1.194      1.923
REMARK  4 active torsions:
REMARK  status: ('A' for Active; 'I' for Inactive)
REMARK    1  A    between atoms: C1_4  and  N1_3 
REMARK       I    between atoms: C6_9  and  N1_3 
REMARK    2  A    between atoms: C6_9  and  C7_10 
REMARK    3  A    between atoms: C7_10  and  C8_11 
REMARK    4  A    between atoms: C10_13  and  C9_12 
ROOT
HETATM    1  C7  UNK     1      18.138   4.556  33.301  1.00  0.00     0.043 C 
HETATM    2  C9  UNK     1      17.336   5.352  34.038  1.00  0.00     0.031 C 
ENDROOT
BRANCH   1   3
HETATM    3  C6  UNK     1      18.211   3.111  33.728  1.00  0.00     0.252 C 
HETATM    4  O1  UNK     1      18.067   2.191  32.925  1.00  0.00    -0.268 OA
HETATM    5  N1  UNK     1      18.444   2.928  35.084  1.00  0.00    -0.352 N 
HETATM    6  H10 UNK     1      18.510   3.724  35.707  1.00  0.00     0.163 HD
BRANCH   5   7
HETATM    7  C1  UNK     1      18.538   1.618  35.679  1.00  0.00     0.084 C 
HETATM    8  C2  UNK     1      17.475   0.673  35.133  1.00  0.00     0.025 C 
HETATM    9  C4  UNK     1      16.218   1.006  35.932  1.00  0.00     0.002 C 
HETATM   10  C5  UNK     1      16.703   1.593  37.259  1.00  0.00     0.002 C 
HETATM   11  C3  UNK     1      18.227   1.648  37.171  1.00  0.00     0.025 C 
ENDBRANCH   5   7
ENDBRANCH   1   3
BRANCH   1  12
HETATM   12  C8  UNK     1      18.884   5.060  32.131  1.00  0.00    -0.021 A 
HETATM   13  C11 UNK     1      18.306   4.981  30.876  1.00  0.00     0.012 A 
HETATM   14  C13 UNK     1      19.011   5.458  29.770  1.00  0.00     0.001 A 
HETATM   15  C17 UNK     1      20.283   6.005  29.938  1.00  0.00     0.000 A 
HETATM   16  C14 UNK     1      20.850   6.076  31.210  1.00  0.00     0.001 A 
HETATM   17  C12 UNK     1      20.145   5.599  32.315  1.00  0.00     0.012 A 
ENDBRANCH   1  12
BRANCH   2  18
HETATM   18  C10 UNK     1      17.084   6.780  33.793  1.00  0.00    -0.013 A 
HETATM   19  C15 UNK     1      17.908   7.768  34.314  1.00  0.00     0.044 A 
HETATM   20 Cl1  UNK     1      19.288   7.402  35.291  1.00  0.00    -0.083 Cl
HETATM   21  C18 UNK     1      17.627   9.108  34.052  1.00  0.00     0.024 A 
HETATM   22  C20 UNK     1      16.524   9.450  33.270  1.00  0.00     0.002 A 
HETATM   23  C19 UNK     1      15.702   8.450  32.749  1.00  0.00     0.001 A 
HETATM   24  C16 UNK     1      15.983   7.110  33.012  1.00  0.00     0.013 A 
ENDBRANCH   2  18
TORSDOF 4
ENDMDL
MODEL 5
REMARK VINA RESULT:      -7.1     15.697     17.572
REMARK  4 active torsions:
REMARK  status: ('A' for Active; 'I' for Inactive)
REMARK    1  A    between atoms: C1_4  and  N1_3 
REMARK       I    between atoms: C6_9  and  N1_3 
REMARK    2  A    between atoms: C6_9  and  C7_10 
REMARK    3  A    between atoms: C7_10  and  C8_11 
REMARK    4  A    between atoms: C10_13  and  C9_12 
ROOT
HETATM    1  C7  UNK     1      30.601  -5.850  33.609  1.00  0.00     0.043 C 
HETATM    2  C9  UNK     1      29.702  -6.323  34.498  1.00  0.00     0.031 C 
ENDROOT
BRANCH   1   3
HETATM    3  C6  UNK     1      30.075  -5.559  32.226  1.00  0.00     0.252 C 
HETATM    4  O1  UNK     1      30.038  -4.414  31.776  1.00  0.00    -0.268 OA
HETATM    5  N1  UNK     1      29.641  -6.679  31.532  1.00  0.00    -0.352 N 
HETATM    6  H10 UNK     1      29.653  -7.592  31.970  1.00  0.00     0.163 HD
BRANCH   5   7
HETATM    7  C1  UNK     1      29.098  -6.596  30.198  1.00  0.00     0.084 C 
HETATM    8  C2  UNK     1      27.608  -6.281  30.216  1.00  0.00     0.025 C 
HETATM    9  C4  UNK     1      26.933  -7.626  30.466  1.00  0.00     0.002 C 
HETATM   10  C5  UNK     1      27.906  -8.690  29.954  1.00  0.00     0.002 C 
HETATM   11  C3  UNK     1      29.149  -7.940  29.480  1.00  0.00     0.025 C 
ENDBRANCH   5   7
ENDBRANCH   1   3
BRANCH   1  12
HETATM   12  C8  UNK     1      32.012  -5.610  33.972  1.00  0.00    -0.021 A 
HETATM   13  C11 UNK     1      32.355  -4.428  34.605  1.00  0.00     0.012 A 
HETATM   14  C13 UNK     1      33.688  -4.202  34.949  1.00  0.00     0.001 A 
HETATM   15  C17 UNK     1      34.657  -5.160  34.652  1.00  0.00     0.000 A 
HETATM   16  C14 UNK     1      34.293  -6.345  34.012  1.00  0.00     0.001 A 
HETATM   17  C12 UNK     1      32.960  -6.571  33.669  1.00  0.00     0.012 A 
ENDBRANCH   1  12
BRANCH   2  18
HETATM   18  C10 UNK     1      29.976  -6.647  35.905  1.00  0.00    -0.013 A 
HETATM   19  C15 UNK     1      30.453  -7.893  36.289  1.00  0.00     0.044 A 
HETATM   20 Cl1  UNK     1      30.761  -9.157  35.150  1.00  0.00    -0.083 Cl
HETATM   21  C18 UNK     1      30.698  -8.151  37.638  1.00  0.00     0.024 A 
HETATM   22  C20 UNK     1      30.464  -7.160  38.592  1.00  0.00     0.002 A 
HETATM   23  C19 UNK     1      29.985  -5.911  38.195  1.00  0.00     0.001 A 
HETATM   24  C16 UNK     1      29.740  -5.653  36.847  1.00  0.00     0.013 A 
ENDBRANCH   2  18
TORSDOF 4
ENDMDL
MODEL 6
REMARK VINA RESULT:      -7.1     15.738     17.894
REMARK  4 active torsions:
REMARK  status: ('A' for Active; 'I' for Inactive)
REMARK    1  A    between atoms: C1_4  and  N1_3 
REMARK       I    between atoms: C6_9  and  N1_3 
REMARK    2  A    between atoms: C6_9  and  C7_10 
REMARK    3  A    between atoms: C7_10  and  C8_11 
REMARK    4  A    between atoms: C10_13  and  C9_12 
ROOT
HETATM    1  C7  UNK     1      30.878  -6.074  33.828  1.00  0.00     0.043 C 
HETATM    2  C9  UNK     1      30.199  -6.880  34.670  1.00  0.00     0.031 C 
ENDROOT
BRANCH   1   3
HETATM    3  C6  UNK     1      30.141  -5.645  32.583  1.00  0.00     0.252 C 
HETATM    4  O1  UNK     1      30.259  -4.511  32.120  1.00  0.00    -0.268 OA
HETATM    5  N1  UNK     1      29.333  -6.628  32.030  1.00  0.00    -0.352 N 
HETATM    6  H10 UNK     1      29.240  -7.531  32.481  1.00  0.00     0.163 HD
BRANCH   5   7
HETATM    7  C1  UNK     1      28.545  -6.401  30.844  1.00  0.00     0.084 C 
HETATM    8  C2  UNK     1      27.185  -7.082  30.932  1.00  0.00     0.025 C 
HETATM    9  C4  UNK     1      27.457  -8.532  30.540  1.00  0.00     0.002 C 
HETATM   10  C5  UNK     1      28.707  -8.507  29.660  1.00  0.00     0.002 C 
HETATM   11  C3  UNK     1      29.169  -7.052  29.615  1.00  0.00     0.025 C 
ENDBRANCH   5   7
ENDBRANCH   1   3
BRANCH   1  12
HETATM   12  C8  UNK     1      32.252  -5.618  34.114  1.00  0.00    -0.021 A 
HETATM   13  C11 UNK     1      33.322  -6.394  33.702  1.00  0.00     0.012 A 
HETATM   14  C13 UNK     1      34.620  -5.963  33.973  1.00  0.00     0.001 A 
HETATM   15  C17 UNK     1      34.829  -4.763  34.652  1.00  0.00     0.000 A 
HETATM   16  C14 UNK     1      33.740  -3.994  35.060  1.00  0.00     0.001 A 
HETATM   17  C12 UNK     1      32.441  -4.425  34.790  1.00  0.00     0.012 A 
ENDBRANCH   1  12
BRANCH   2  18
HETATM   18  C10 UNK     1      30.699  -7.397  35.952  1.00  0.00    -0.013 A 
HETATM   19  C15 UNK     1      30.561  -6.680  37.133  1.00  0.00     0.044 A 
HETATM   20 Cl1  UNK     1      29.798  -5.129  37.190  1.00  0.00    -0.083 Cl
HETATM   21  C18 UNK     1      31.052  -7.214  38.324  1.00  0.00     0.024 A 
HETATM   22  C20 UNK     1      31.675  -8.462  38.325  1.00  0.00     0.002 A 
HETATM   23  C19 UNK     1      31.807  -9.176  37.134  1.00  0.00     0.001 A 
HETATM   24  C16 UNK     1      31.317  -8.641  35.943  1.00  0.00     0.013 A 
ENDBRANCH   2  18
TORSDOF 4
ENDMDL
MODEL 7
REMARK VINA RESULT:      -6.9     15.701     17.607
REMARK  4 active torsions:
REMARK  status: ('A' for Active; 'I' for Inactive)
REMARK    1  A    between atoms: C1_4  and  N1_3 
REMARK       I    between atoms: C6_9  and  N1_3 
REMARK    2  A    between atoms: C6_9  and  C7_10 
REMARK    3  A    between atoms: C7_10  and  C8_11 
REMARK    4  A    between atoms: C10_13  and  C9_12 
ROOT
HETATM    1  C7  UNK     1      29.824  -6.742  35.342  1.00  0.00     0.043 C 
HETATM    2  C9  UNK     1      28.838  -7.628  35.598  1.00  0.00     0.031 C 
ENDROOT
BRANCH   1   3
HETATM    3  C6  UNK     1      30.032  -6.383  33.892  1.00  0.00     0.252 C 
HETATM    4  O1  UNK     1      30.773  -5.461  33.554  1.00  0.00    -0.268 OA
HETATM    5  N1  UNK     1      29.317  -7.169  33.000  1.00  0.00    -0.352 N 
HETATM    6  H10 UNK     1      28.685  -7.886  33.338  1.00  0.00     0.163 HD
BRANCH   5   7
HETATM    7  C1  UNK     1      29.382  -6.970  31.573  1.00  0.00     0.084 C 
HETATM    8  C2  UNK     1      28.287  -6.029  31.086  1.00  0.00     0.025 C 
HETATM    9  C4  UNK     1      27.049  -6.913  30.960  1.00  0.00     0.002 C 
HETATM   10  C5  UNK     1      27.565  -8.336  30.739  1.00  0.00     0.002 C 
HETATM   11  C3  UNK     1      29.089  -8.254  30.807  1.00  0.00     0.025 C 
ENDBRANCH   5   7
ENDBRANCH   1   3
BRANCH   1  12
HETATM   12  C8  UNK     1      30.637  -6.141  36.417  1.00  0.00    -0.021 A 
HETATM   13  C11 UNK     1      31.899  -6.649  36.673  1.00  0.00     0.012 A 
HETATM   14  C13 UNK     1      32.669  -6.081  37.689  1.00  0.00     0.001 A 
HETATM   15  C17 UNK     1      32.163  -5.015  38.434  1.00  0.00     0.000 A 
HETATM   16  C14 UNK     1      30.889  -4.516  38.162  1.00  0.00     0.001 A 
HETATM   17  C12 UNK     1      30.120  -5.085  37.146  1.00  0.00     0.012 A 
ENDBRANCH   1  12
BRANCH   2  18
HETATM   18  C10 UNK     1      28.434  -8.101  36.930  1.00  0.00    -0.013 A 
HETATM   19  C15 UNK     1      29.125  -9.108  37.589  1.00  0.00     0.044 A 
HETATM   20 Cl1  UNK     1      30.508  -9.885  36.899  1.00  0.00    -0.083 Cl
HETATM   21  C18 UNK     1      28.702  -9.522  38.851  1.00  0.00     0.024 A 
HETATM   22  C20 UNK     1      27.591  -8.923  39.446  1.00  0.00     0.002 A 
HETATM   23  C19 UNK     1      26.903  -7.911  38.776  1.00  0.00     0.001 A 
HETATM   24  C16 UNK     1      27.326  -7.498  37.513  1.00  0.00     0.013 A 
ENDBRANCH   2  18
TORSDOF 4
ENDMDL
MODEL 8
REMARK VINA RESULT:      -6.9     18.311     21.076
REMARK  4 active torsions:
REMARK  status: ('A' for Active; 'I' for Inactive)
REMARK    1  A    between atoms: C1_4  and  N1_3 
REMARK       I    between atoms: C6_9  and  N1_3 
REMARK    2  A    between atoms: C6_9  and  C7_10 
REMARK    3  A    between atoms: C7_10  and  C8_11 
REMARK    4  A    between atoms: C10_13  and  C9_12 
ROOT
HETATM    1  C7  UNK     1      21.015  -4.324  15.277  1.00  0.00     0.043 C 
HETATM    2  C9  UNK     1      20.549  -5.566  15.525  1.00  0.00     0.031 C 
ENDROOT
BRANCH   1   3
HETATM    3  C6  UNK     1      22.397  -4.019  15.798  1.00  0.00     0.252 C 
HETATM    4  O1  UNK     1      23.023  -3.026  15.429  1.00  0.00    -0.268 OA
HETATM    5  N1  UNK     1      22.884  -4.949  16.705  1.00  0.00    -0.352 N 
HETATM    6  H10 UNK     1      22.342  -5.773  16.938  1.00  0.00     0.163 HD
BRANCH   5   7
HETATM    7  C1  UNK     1      24.190  -4.830  17.305  1.00  0.00     0.084 C 
HETATM    8  C2  UNK     1      24.229  -5.447  18.697  1.00  0.00     0.025 C 
HETATM    9  C4  UNK     1      23.652  -4.368  19.610  1.00  0.00     0.002 C 
HETATM   10  C5  UNK     1      23.906  -3.035  18.904  1.00  0.00     0.002 C 
HETATM   11  C3  UNK     1      24.564  -3.376  17.569  1.00  0.00     0.025 C 
ENDBRANCH   5   7
ENDBRANCH   1   3
BRANCH   1  12
HETATM   12  C8  UNK     1      20.230  -3.327  14.523  1.00  0.00    -0.021 A 
HETATM   13  C11 UNK     1      20.418  -3.214  13.156  1.00  0.00     0.012 A 
HETATM   14  C13 UNK     1      19.676  -2.272  12.442  1.00  0.00     0.001 A 
HETATM   15  C17 UNK     1      18.759  -1.458  13.107  1.00  0.00     0.000 A 
HETATM   16  C14 UNK     1      18.583  -1.586  14.485  1.00  0.00     0.001 A 
HETATM   17  C12 UNK     1      19.325  -2.527  15.198  1.00  0.00     0.012 A 
ENDBRANCH   1  12
BRANCH   2  18
HETATM   18  C10 UNK     1      19.249  -6.097  15.090  1.00  0.00    -0.013 A 
HETATM   19  C15 UNK     1      19.073  -6.661  13.834  1.00  0.00     0.044 A 
HETATM   20 Cl1  UNK     1      20.360  -6.781  12.685  1.00  0.00    -0.083 Cl
HETATM   21  C18 UNK     1      17.819  -7.152  13.469  1.00  0.00     0.024 A 
HETATM   22  C20 UNK     1      16.752  -7.075  14.364  1.00  0.00     0.002 A 
HETATM   23  C19 UNK     1      16.939  -6.507  15.624  1.00  0.00     0.001 A 
HETATM   24  C16 UNK     1      18.192  -6.017  15.989  1.00  0.00     0.013 A 
ENDBRANCH   2  18
TORSDOF 4
ENDMDL
MODEL 9
REMARK VINA RESULT:      -6.9     15.795     17.692
REMARK  4 active torsions:
REMARK  status: ('A' for Active; 'I' for Inactive)
REMARK    1  A    between atoms: C1_4  and  N1_3 
REMARK       I    between atoms: C6_9  and  N1_3 
REMARK    2  A    between atoms: C6_9  and  C7_10 
REMARK    3  A    between atoms: C7_10  and  C8_11 
REMARK    4  A    between atoms: C10_13  and  C9_12 
ROOT
HETATM    1  C7  UNK     1      31.402  -6.320  34.386  1.00  0.00     0.043 C 
HETATM    2  C9  UNK     1      30.227  -6.165  35.031  1.00  0.00     0.031 C 
ENDROOT
BRANCH   1   3
HETATM    3  C6  UNK     1      31.313  -6.650  32.917  1.00  0.00     0.252 C 
HETATM    4  O1  UNK     1      32.299  -7.005  32.273  1.00  0.00    -0.268 OA
HETATM    5  N1  UNK     1      30.043  -6.511  32.376  1.00  0.00    -0.352 N 
HETATM    6  H10 UNK     1      29.276  -6.172  32.945  1.00  0.00     0.163 HD
BRANCH   5   7
HETATM    7  C1  UNK     1      29.764  -6.775  30.986  1.00  0.00     0.084 C 
HETATM    8  C2  UNK     1      28.550  -5.995  30.498  1.00  0.00     0.025 C 
HETATM    9  C4  UNK     1      27.353  -6.827  30.951  1.00  0.00     0.002 C 
HETATM   10  C5  UNK     1      27.859  -8.265  31.074  1.00  0.00     0.002 C 
HETATM   11  C3  UNK     1      29.351  -8.223  30.754  1.00  0.00     0.025 C 
ENDBRANCH   5   7
ENDBRANCH   1   3
BRANCH   1  12
HETATM   12  C8  UNK     1      32.700  -6.155  35.070  1.00  0.00    -0.021 A 
HETATM   13  C11 UNK     1      33.184  -7.185  35.858  1.00  0.00     0.012 A 
HETATM   14  C13 UNK     1      34.411  -7.030  36.503  1.00  0.00     0.001 A 
HETATM   15  C17 UNK     1      35.134  -5.847  36.351  1.00  0.00     0.000 A 
HETATM   16  C14 UNK     1      34.631  -4.820  35.554  1.00  0.00     0.001 A 
HETATM   17  C12 UNK     1      33.404  -4.975  34.908  1.00  0.00     0.012 A 
ENDBRANCH   1  12
BRANCH   2  18
HETATM   18  C10 UNK     1      30.066  -5.812  36.449  1.00  0.00    -0.013 A 
HETATM   19  C15 UNK     1      29.647  -6.741  37.391  1.00  0.00     0.044 A 
HETATM   20 Cl1  UNK     1      29.279  -8.379  36.974  1.00  0.00    -0.083 Cl
HETATM   21  C18 UNK     1      29.510  -6.357  38.725  1.00  0.00     0.024 A 
HETATM   22  C20 UNK     1      29.795  -5.046  39.106  1.00  0.00     0.002 A 
HETATM   23  C19 UNK     1      30.217  -4.119  38.152  1.00  0.00     0.001 A 
HETATM   24  C16 UNK     1      30.353  -4.503  36.819  1.00  0.00     0.013 A 
ENDBRANCH   2  18
TORSDOF 4
ENDMDL
MODEL 10
REMARK VINA RESULT:      -6.9     15.584     17.558
REMARK  4 active torsions:
REMARK  status: ('A' for Active; 'I' for Inactive)
REMARK    1  A    between atoms: C1_4  and  N1_3 
REMARK       I    between atoms: C6_9  and  N1_3 
REMARK    2  A    between atoms: C6_9  and  C7_10 
REMARK    3  A    between atoms: C7_10  and  C8_11 
REMARK    4  A    between atoms: C10_13  and  C9_12 
ROOT
HETATM    1  C7  UNK     1      29.993  -6.688  34.795  1.00  0.00     0.043 C 
HETATM    2  C9  UNK     1      28.770  -6.685  35.367  1.00  0.00     0.031 C 
ENDROOT
BRANCH   1   3
HETATM    3  C6  UNK     1      30.042  -6.311  33.336  1.00  0.00     0.252 C 
HETATM    4  O1  UNK     1      30.653  -5.318  32.944  1.00  0.00    -0.268 OA
HETATM    5  N1  UNK     1      29.343  -7.169  32.500  1.00  0.00    -0.352 N 
HETATM    6  H10 UNK     1      28.820  -7.948  32.883  1.00  0.00     0.163 HD
BRANCH   5   7
HETATM    7  C1  UNK     1      29.269  -6.967  31.074  1.00  0.00     0.084 C 
HETATM    8  C2  UNK     1      28.079  -6.097  30.689  1.00  0.00     0.025 C 
HETATM    9  C4  UNK     1      26.893  -7.057  30.669  1.00  0.00     0.002 C 
HETATM   10  C5  UNK     1      27.476  -8.445  30.395  1.00  0.00     0.002 C 
HETATM   11  C3  UNK     1      28.991  -8.267  30.329  1.00  0.00     0.025 C 
ENDBRANCH   5   7
ENDBRANCH   1   3
BRANCH   1  12
HETATM   12  C8  UNK     1      31.214  -7.018  35.556  1.00  0.00    -0.021 A 
HETATM   13  C11 UNK     1      31.961  -5.994  36.112  1.00  0.00     0.012 A 
HETATM   14  C13 UNK     1      33.115  -6.306  36.831  1.00  0.00     0.001 A 
HETATM   15  C17 UNK     1      33.504  -7.637  36.982  1.00  0.00     0.000 A 
HETATM   16  C14 UNK     1      32.739  -8.656  36.415  1.00  0.00     0.001 A 
HETATM   17  C12 UNK     1      31.586  -8.344  35.695  1.00  0.00     0.012 A 
ENDBRANCH   1  12
BRANCH   2  18
HETATM   18  C10 UNK     1      28.481  -6.987  36.776  1.00  0.00    -0.013 A 
HETATM   19  C15 UNK     1      28.068  -8.248  37.185  1.00  0.00     0.044 A 
HETATM   20 Cl1  UNK     1      27.860  -9.557  36.075  1.00  0.00    -0.083 Cl
HETATM   21  C18 UNK     1      27.807  -8.483  38.534  1.00  0.00     0.024 A 
HETATM   22  C20 UNK     1      27.962  -7.456  39.465  1.00  0.00     0.002 A 
HETATM   23  C19 UNK     1      28.378  -6.192  39.044  1.00  0.00     0.001 A 
HETATM   24  C16 UNK     1      28.639  -5.957  37.696  1.00  0.00     0.013 A 
ENDBRANCH   2  18
TORSDOF 4
ENDMDL
