MODEL 1
REMARK VINA RESULT:      -9.2      0.000      0.000
REMARK  5 active torsions:
REMARK  status: ('A' for Active; 'I' for Inactive)
REMARK    1  A    between atoms: C11_18  and  O1_2 
REMARK       I    between atoms: C12_19  and  N1_7 
REMARK    2  A    between atoms: C9_16  and  N1_7 
REMARK    3  A    between atoms: C1_8  and  C7_14 
REMARK    4  A    between atoms: C11_18  and  C8_15 
REMARK    5  A    between atoms: C12_19  and  C13_20 
ROOT
HETATM    1  S1  UNK     1      15.449   6.549  32.374  1.00  0.00    -0.075 SA
HETATM    2  C1  UNK     1      14.936  10.571  33.054  1.00  0.00    -0.010 C 
HETATM    3  C2  UNK     1      15.964  10.659  34.204  1.00  0.00     0.009 C 
HETATM    4  C3  UNK     1      14.443   9.119  32.861  1.00  0.00     0.051 C 
HETATM    5  C4  UNK     1      17.210   9.806  33.919  1.00  0.00     0.041 C 
HETATM    6  C5  UNK     1      16.848   8.447  33.406  1.00  0.00    -0.026 A 
HETATM    7  C6  UNK     1      15.592   8.159  32.908  1.00  0.00    -0.008 A 
HETATM    8  C8  UNK     1      17.709   7.311  33.334  1.00  0.00     0.080 A 
HETATM    9  C9  UNK     1      17.075   6.212  32.793  1.00  0.00     0.094 A 
ENDROOT
BRANCH   9  10
HETATM   10  N1  UNK     1      17.521   4.942  32.545  1.00  0.00    -0.316 N 
HETATM   11  C12 UNK     1      18.200   4.501  31.402  1.00  0.00     0.262 C 
HETATM   12  O3  UNK     1      18.528   5.147  30.415  1.00  0.00    -0.267 OA
HETATM   13  H13 UNK     1      17.307   4.268  33.276  1.00  0.00     0.169 HD
BRANCH  11  14
HETATM   14  C13 UNK     1      18.533   3.062  31.464  1.00  0.00     0.108 A 
HETATM   15  C14 UNK     1      18.987   2.511  30.332  1.00  0.00     0.037 A 
HETATM   16  C16 UNK     1      19.341   1.101  30.293  1.00  0.00    -0.001 A 
HETATM   17  C18 UNK     1      19.199   0.339  31.448  1.00  0.00     0.089 A 
HETATM   18  C19 UNK     1      19.820   0.485  29.133  1.00  0.00     0.014 A 
HETATM   19  O4  UNK     1      18.720   0.924  32.636  1.00  0.00    -0.274 OA
HETATM   20  C20 UNK     1      19.520  -1.016  31.477  1.00  0.00     0.038 A 
HETATM   21  C17 UNK     1      18.374   2.271  32.704  1.00  0.00     0.304 A 
HETATM   22  O5  UNK     1      17.956   2.772  33.743  1.00  0.00    -0.259 OA
HETATM   23  C22 UNK     1      19.996  -1.623  30.317  1.00  0.00     0.003 A 
HETATM   24  C21 UNK     1      20.145  -0.875  29.148  1.00  0.00     0.001 A 
ENDBRANCH  11  14
ENDBRANCH   9  10
BRANCH   8  25
HETATM   25  C11 UNK     1      19.086   7.276  33.760  1.00  0.00     0.296 C 
HETATM   26  O2  UNK     1      19.445   7.337  34.945  1.00  0.00    -0.259 OA
BRANCH  25  27
HETATM   27  O1  UNK     1      19.987   7.167  32.724  1.00  0.00    -0.322 OA
HETATM   28  C15 UNK     1      21.077   6.256  32.909  1.00  0.00     0.213 C 
ENDBRANCH  25  27
ENDBRANCH   8  25
BRANCH   2  29
HETATM   29  C7  UNK     1      13.755  11.507  33.309  1.00  0.00     0.000 C 
HETATM   30  C10 UNK     1      13.335  11.480  34.766  1.00  0.00     0.005 C 
ENDBRANCH   2  29
TORSDOF 5
ENDMDL
MODEL 2
REMARK VINA RESULT:      -9.0      1.225      1.953
REMARK  5 active torsions:
REMARK  status: ('A' for Active; 'I' for Inactive)
REMARK    1  A    between atoms: C11_18  and  O1_2 
REMARK       I    between atoms: C12_19  and  N1_7 
REMARK    2  A    between atoms: C9_16  and  N1_7 
REMARK    3  A    between atoms: C1_8  and  C7_14 
REMARK    4  A    between atoms: C11_18  and  C8_15 
REMARK    5  A    between atoms: C12_19  and  C13_20 
ROOT
HETATM    1  S1  UNK     1      16.007   6.338  31.896  1.00  0.00    -0.075 SA
HETATM    2  C1  UNK     1      15.613  10.132  33.430  1.00  0.00    -0.010 C 
HETATM    3  C2  UNK     1      16.831  10.037  34.376  1.00  0.00     0.009 C 
HETATM    4  C3  UNK     1      15.098   8.726  33.047  1.00  0.00     0.051 C 
HETATM    5  C4  UNK     1      18.008   9.303  33.714  1.00  0.00     0.041 C 
HETATM    6  C5  UNK     1      17.564   8.055  33.017  1.00  0.00    -0.026 A 
HETATM    7  C6  UNK     1      16.239   7.820  32.702  1.00  0.00    -0.008 A 
HETATM    8  C8  UNK     1      18.401   6.987  32.573  1.00  0.00     0.080 A 
HETATM    9  C9  UNK     1      17.684   5.989  31.949  1.00  0.00     0.094 A 
ENDROOT
BRANCH   9  10
HETATM   10  N1  UNK     1      18.081   4.809  31.382  1.00  0.00    -0.316 N 
HETATM   11  C12 UNK     1      18.093   3.548  31.994  1.00  0.00     0.262 C 
HETATM   12  O3  UNK     1      17.758   3.252  33.134  1.00  0.00    -0.267 OA
HETATM   13  H13 UNK     1      18.412   4.888  30.424  1.00  0.00     0.169 HD
BRANCH  11  14
HETATM   14  C13 UNK     1      18.586   2.487  31.091  1.00  0.00     0.108 A 
HETATM   15  C14 UNK     1      18.971   1.346  31.673  1.00  0.00     0.037 A 
HETATM   16  C16 UNK     1      19.471   0.243  30.868  1.00  0.00    -0.001 A 
HETATM   17  C18 UNK     1      19.541   0.396  29.487  1.00  0.00     0.089 A 
HETATM   18  C19 UNK     1      19.883  -0.966  31.434  1.00  0.00     0.014 A 
HETATM   19  O4  UNK     1      19.134   1.599  28.879  1.00  0.00    -0.274 OA
HETATM   20  C20 UNK     1      20.010  -0.622  28.658  1.00  0.00     0.038 A 
HETATM   21  C17 UNK     1      18.652   2.672  29.624  1.00  0.00     0.304 A 
HETATM   22  O5  UNK     1      18.301   3.717  29.086  1.00  0.00    -0.259 OA
HETATM   23  C22 UNK     1      20.420  -1.824  29.231  1.00  0.00     0.003 A 
HETATM   24  C21 UNK     1      20.357  -1.996  30.616  1.00  0.00     0.001 A 
ENDBRANCH  11  14
ENDBRANCH   9  10
BRANCH   8  25
HETATM   25  C11 UNK     1      19.832   6.924  32.735  1.00  0.00     0.296 C 
HETATM   26  O2  UNK     1      20.443   7.430  33.688  1.00  0.00    -0.259 OA
BRANCH  25  27
HETATM   27  O1  UNK     1      20.478   6.244  31.725  1.00  0.00    -0.322 OA
HETATM   28  C15 UNK     1      21.843   5.881  31.961  1.00  0.00     0.213 C 
ENDBRANCH  25  27
ENDBRANCH   8  25
BRANCH   2  29
HETATM   29  C7  UNK     1      14.495  10.955  34.067  1.00  0.00     0.000 C 
HETATM   30  C10 UNK     1      14.395  10.691  35.557  1.00  0.00     0.005 C 
ENDBRANCH   2  29
TORSDOF 5
ENDMDL
MODEL 3
REMARK VINA RESULT:      -9.0      5.666      8.814
REMARK  5 active torsions:
REMARK  status: ('A' for Active; 'I' for Inactive)
REMARK    1  A    between atoms: C11_18  and  O1_2 
REMARK       I    between atoms: C12_19  and  N1_7 
REMARK    2  A    between atoms: C9_16  and  N1_7 
REMARK    3  A    between atoms: C1_8  and  C7_14 
REMARK    4  A    between atoms: C11_18  and  C8_15 
REMARK    5  A    between atoms: C12_19  and  C13_20 
ROOT
HETATM    1  S1  UNK     1      19.172  -1.262  32.431  1.00  0.00    -0.075 SA
HETATM    2  C1  UNK     1      18.860   2.505  30.814  1.00  0.00    -0.010 C 
HETATM    3  C2  UNK     1      17.849   3.031  31.857  1.00  0.00     0.009 C 
HETATM    4  C3  UNK     1      18.843   0.960  30.756  1.00  0.00     0.051 C 
HETATM    5  C4  UNK     1      18.184   2.534  33.272  1.00  0.00     0.041 C 
HETATM    6  C5  UNK     1      18.508   1.074  33.287  1.00  0.00    -0.026 A 
HETATM    7  C6  UNK     1      18.827   0.379  32.136  1.00  0.00    -0.008 A 
HETATM    8  C8  UNK     1      18.558   0.227  34.435  1.00  0.00     0.080 A 
HETATM    9  C9  UNK     1      18.906  -1.067  34.112  1.00  0.00     0.094 A 
ENDROOT
BRANCH   9  10
HETATM   10  N1  UNK     1      19.070  -2.181  34.890  1.00  0.00    -0.316 N 
HETATM   11  C12 UNK     1      20.284  -2.771  35.264  1.00  0.00     0.262 C 
HETATM   12  O3  UNK     1      21.422  -2.418  34.978  1.00  0.00    -0.267 OA
HETATM   13  H13 UNK     1      18.203  -2.613  35.201  1.00  0.00     0.169 HD
BRANCH  11  14
HETATM   14  C13 UNK     1      20.093  -3.968  36.111  1.00  0.00     0.108 A 
HETATM   15  C14 UNK     1      19.770  -5.099  35.472  1.00  0.00     0.037 A 
HETATM   16  C16 UNK     1      19.562  -6.329  36.219  1.00  0.00    -0.001 A 
HETATM   17  C18 UNK     1      19.702  -6.309  37.603  1.00  0.00     0.089 A 
HETATM   18  C19 UNK     1      19.224  -7.532  35.593  1.00  0.00     0.014 A 
HETATM   19  O4  UNK     1      20.042  -5.115  38.270  1.00  0.00    -0.274 OA
HETATM   20  C20 UNK     1      19.515  -7.452  38.377  1.00  0.00     0.038 A 
HETATM   21  C17 UNK     1      20.248  -3.923  37.582  1.00  0.00     0.304 A 
HETATM   22  O5  UNK     1      20.543  -2.888  38.171  1.00  0.00    -0.259 OA
HETATM   23  C22 UNK     1      19.178  -8.647  37.746  1.00  0.00     0.003 A 
HETATM   24  C21 UNK     1      19.033  -8.688  36.357  1.00  0.00     0.001 A 
ENDBRANCH  11  14
ENDBRANCH   9  10
BRANCH   8  25
HETATM   25  C11 UNK     1      18.290   0.639  35.791  1.00  0.00     0.296 C 
HETATM   26  O2  UNK     1      18.946   1.502  36.393  1.00  0.00    -0.259 OA
BRANCH  25  27
HETATM   27  O1  UNK     1      17.228  -0.016  36.373  1.00  0.00    -0.322 OA
HETATM   28  C15 UNK     1      15.920   0.491  36.084  1.00  0.00     0.213 C 
ENDBRANCH  25  27
ENDBRANCH   8  25
BRANCH   2  29
HETATM   29  C7  UNK     1      18.572   3.094  29.434  1.00  0.00     0.000 C 
HETATM   30  C10 UNK     1      17.892   2.082  28.532  1.00  0.00     0.005 C 
ENDBRANCH   2  29
TORSDOF 5
ENDMDL
MODEL 4
REMARK VINA RESULT:      -8.8     15.840     20.729
REMARK  5 active torsions:
REMARK  status: ('A' for Active; 'I' for Inactive)
REMARK    1  A    between atoms: C11_18  and  O1_2 
REMARK       I    between atoms: C12_19  and  N1_7 
REMARK    2  A    between atoms: C9_16  and  N1_7 
REMARK    3  A    between atoms: C1_8  and  C7_14 
REMARK    4  A    between atoms: C11_18  and  C8_15 
REMARK    5  A    between atoms: C12_19  and  C13_20 
ROOT
HETATM    1  S1  UNK     1      19.188  -1.813  12.172  1.00  0.00    -0.075 SA
HETATM    2  C1  UNK     1      19.330  -5.056   9.650  1.00  0.00    -0.010 C 
HETATM    3  C2  UNK     1      20.531  -5.733  10.346  1.00  0.00     0.009 C 
HETATM    4  C3  UNK     1      19.282  -3.545   9.971  1.00  0.00     0.051 C 
HETATM    5  C4  UNK     1      20.443  -5.612  11.875  1.00  0.00     0.041 C 
HETATM    6  C5  UNK     1      20.077  -4.226  12.303  1.00  0.00    -0.026 A 
HETATM    7  C6  UNK     1      19.529  -3.307  11.429  1.00  0.00    -0.008 A 
HETATM    8  C8  UNK     1      20.207  -3.680  13.616  1.00  0.00     0.080 A 
HETATM    9  C9  UNK     1      19.762  -2.378  13.684  1.00  0.00     0.094 A 
ENDROOT
BRANCH   9  10
HETATM   10  N1  UNK     1      19.705  -1.495  14.729  1.00  0.00    -0.316 N 
HETATM   11  C12 UNK     1      18.785  -1.506  15.786  1.00  0.00     0.262 C 
HETATM   12  O3  UNK     1      17.867  -2.291  15.988  1.00  0.00    -0.267 OA
HETATM   13  H13 UNK     1      20.404  -0.756  14.698  1.00  0.00     0.169 HD
BRANCH  11  14
HETATM   14  C13 UNK     1      19.012  -0.402  16.742  1.00  0.00     0.108 A 
HETATM   15  C14 UNK     1      18.993  -0.730  18.040  1.00  0.00     0.037 A 
HETATM   16  C16 UNK     1      19.206   0.287  19.057  1.00  0.00    -0.001 A 
HETATM   17  C18 UNK     1      19.428   1.601  18.659  1.00  0.00     0.089 A 
HETATM   18  C19 UNK     1      19.195  -0.012  20.422  1.00  0.00     0.014 A 
HETATM   19  O4  UNK     1      19.446   1.941  17.292  1.00  0.00    -0.274 OA
HETATM   20  C20 UNK     1      19.638   2.623  19.583  1.00  0.00     0.038 A 
HETATM   21  C17 UNK     1      19.247   0.989  16.296  1.00  0.00     0.304 A 
HETATM   22  O5  UNK     1      19.263   1.294  15.108  1.00  0.00    -0.259 OA
HETATM   23  C22 UNK     1      19.625   2.317  20.942  1.00  0.00     0.003 A 
HETATM   24  C21 UNK     1      19.404   1.003  21.361  1.00  0.00     0.001 A 
ENDBRANCH  11  14
ENDBRANCH   9  10
BRANCH   8  25
HETATM   25  C11 UNK     1      20.732  -4.378  14.763  1.00  0.00     0.296 C 
HETATM   26  O2  UNK     1      20.174  -5.348  15.297  1.00  0.00    -0.259 OA
BRANCH  25  27
HETATM   27  O1  UNK     1      21.926  -3.871  15.227  1.00  0.00    -0.322 OA
HETATM   28  C15 UNK     1      22.055  -3.717  16.645  1.00  0.00     0.213 C 
ENDBRANCH  25  27
ENDBRANCH   8  25
BRANCH   2  29
HETATM   29  C7  UNK     1      19.382  -5.280   8.139  1.00  0.00     0.000 C 
HETATM   30  C10 UNK     1      18.181  -4.661   7.448  1.00  0.00     0.005 C 
ENDBRANCH   2  29
TORSDOF 5
ENDMDL
MODEL 5
REMARK VINA RESULT:      -8.5     16.162     21.501
REMARK  5 active torsions:
REMARK  status: ('A' for Active; 'I' for Inactive)
REMARK    1  A    between atoms: C11_18  and  O1_2 
REMARK       I    between atoms: C12_19  and  N1_7 
REMARK    2  A    between atoms: C9_16  and  N1_7 
REMARK    3  A    between atoms: C1_8  and  C7_14 
REMARK    4  A    between atoms: C11_18  and  C8_15 
REMARK    5  A    between atoms: C12_19  and  C13_20 
ROOT
HETATM    1  S1  UNK     1      20.705  -5.221  15.070  1.00  0.00    -0.075 SA
HETATM    2  C1  UNK     1      21.409  -8.083  12.204  1.00  0.00    -0.010 C 
HETATM    3  C2  UNK     1      20.333  -7.575  11.220  1.00  0.00     0.009 C 
HETATM    4  C3  UNK     1      21.119  -7.596  13.642  1.00  0.00     0.051 C 
HETATM    5  C4  UNK     1      20.294  -6.039  11.164  1.00  0.00     0.041 C 
HETATM    6  C5  UNK     1      20.333  -5.433  12.531  1.00  0.00    -0.026 A 
HETATM    7  C6  UNK     1      20.733  -6.150  13.643  1.00  0.00    -0.008 A 
HETATM    8  C8  UNK     1      20.006  -4.086  12.872  1.00  0.00     0.080 A 
HETATM    9  C9  UNK     1      20.164  -3.836  14.219  1.00  0.00     0.094 A 
ENDROOT
BRANCH   9  10
HETATM   10  N1  UNK     1      19.966  -2.702  14.958  1.00  0.00    -0.316 N 
HETATM   11  C12 UNK     1      18.797  -2.338  15.638  1.00  0.00     0.262 C 
HETATM   12  O3  UNK     1      17.737  -2.947  15.710  1.00  0.00    -0.267 OA
HETATM   13  H13 UNK     1      20.762  -2.069  14.984  1.00  0.00     0.169 HD
BRANCH  11  14
HETATM   14  C13 UNK     1      18.931  -1.042  16.337  1.00  0.00     0.108 A 
HETATM   15  C14 UNK     1      18.719  -1.058  17.658  1.00  0.00     0.037 A 
HETATM   16  C16 UNK     1      18.828   0.168  18.434  1.00  0.00    -0.001 A 
HETATM   17  C18 UNK     1      19.153   1.351  17.780  1.00  0.00     0.089 A 
HETATM   18  C19 UNK     1      18.616   0.197  19.815  1.00  0.00     0.014 A 
HETATM   19  O4  UNK     1      19.374   1.363  16.389  1.00  0.00    -0.274 OA
HETATM   20  C20 UNK     1      19.272   2.559  18.464  1.00  0.00     0.038 A 
HETATM   21  C17 UNK     1      19.278   0.205  15.620  1.00  0.00     0.304 A 
HETATM   22  O5  UNK     1      19.471   0.225  14.409  1.00  0.00    -0.259 OA
HETATM   23  C22 UNK     1      19.059   2.580  19.840  1.00  0.00     0.003 A 
HETATM   24  C21 UNK     1      18.731   1.402  20.514  1.00  0.00     0.001 A 
ENDBRANCH  11  14
ENDBRANCH   9  10
BRANCH   8  25
HETATM   25  C11 UNK     1      19.565  -3.072  11.946  1.00  0.00     0.296 C 
HETATM   26  O2  UNK     1      18.558  -3.182  11.230  1.00  0.00    -0.259 OA
BRANCH  25  27
HETATM   27  O1  UNK     1      20.366  -1.952  11.922  1.00  0.00    -0.322 OA
HETATM   28  C15 UNK     1      21.103  -1.711  10.717  1.00  0.00     0.213 C 
ENDBRANCH  25  27
ENDBRANCH   8  25
BRANCH   2  29
HETATM   29  C7  UNK     1      21.504  -9.607  12.165  1.00  0.00     0.000 C 
HETATM   30  C10 UNK     1      22.575 -10.068  11.195  1.00  0.00     0.005 C 
ENDBRANCH   2  29
TORSDOF 5
ENDMDL
MODEL 6
REMARK VINA RESULT:      -8.3     14.774     18.481
REMARK  5 active torsions:
REMARK  status: ('A' for Active; 'I' for Inactive)
REMARK    1  A    between atoms: C11_18  and  O1_2 
REMARK       I    between atoms: C12_19  and  N1_7 
REMARK    2  A    between atoms: C9_16  and  N1_7 
REMARK    3  A    between atoms: C1_8  and  C7_14 
REMARK    4  A    between atoms: C11_18  and  C8_15 
REMARK    5  A    between atoms: C12_19  and  C13_20 
ROOT
HETATM    1  S1  UNK     1      29.141  -6.274  38.670  1.00  0.00    -0.075 SA
HETATM    2  C1  UNK     1      32.878  -6.998  37.118  1.00  0.00    -0.010 C 
HETATM    3  C2  UNK     1      32.596  -8.467  36.732  1.00  0.00     0.009 C 
HETATM    4  C3  UNK     1      31.894  -6.512  38.206  1.00  0.00     0.051 C 
HETATM    5  C4  UNK     1      31.182  -8.642  36.156  1.00  0.00     0.041 C 
HETATM    6  C5  UNK     1      30.156  -7.924  36.975  1.00  0.00    -0.026 A 
HETATM    7  C6  UNK     1      30.496  -6.943  37.886  1.00  0.00    -0.008 A 
HETATM    8  C8  UNK     1      28.742  -8.117  36.923  1.00  0.00     0.080 A 
HETATM    9  C9  UNK     1      28.071  -7.284  37.793  1.00  0.00     0.094 A 
ENDROOT
BRANCH   9  10
HETATM   10  N1  UNK     1      26.737  -7.139  38.059  1.00  0.00    -0.316 N 
HETATM   11  C12 UNK     1      25.965  -7.924  38.927  1.00  0.00     0.262 C 
HETATM   12  O3  UNK     1      26.319  -8.876  39.610  1.00  0.00    -0.267 OA
HETATM   13  H13 UNK     1      26.282  -6.388  37.547  1.00  0.00     0.169 HD
BRANCH  11  14
HETATM   14  C13 UNK     1      24.553  -7.489  38.974  1.00  0.00     0.108 A 
HETATM   15  C14 UNK     1      23.638  -8.461  39.068  1.00  0.00     0.037 A 
HETATM   16  C16 UNK     1      22.222  -8.133  39.122  1.00  0.00    -0.001 A 
HETATM   17  C18 UNK     1      21.838  -6.797  39.072  1.00  0.00     0.089 A 
HETATM   18  C19 UNK     1      21.233  -9.116  39.221  1.00  0.00     0.014 A 
HETATM   19  O4  UNK     1      22.805  -5.778  38.973  1.00  0.00    -0.274 OA
HETATM   20  C20 UNK     1      20.499  -6.416  39.119  1.00  0.00     0.038 A 
HETATM   21  C17 UNK     1      24.167  -6.061  38.921  1.00  0.00     0.304 A 
HETATM   22  O5  UNK     1      25.003  -5.168  38.833  1.00  0.00    -0.259 OA
HETATM   23  C22 UNK     1      19.519  -7.401  39.217  1.00  0.00     0.003 A 
HETATM   24  C21 UNK     1      19.885  -8.748  39.267  1.00  0.00     0.001 A 
ENDBRANCH  11  14
ENDBRANCH   9  10
BRANCH   8  25
HETATM   25  C11 UNK     1      28.057  -9.056  36.070  1.00  0.00     0.296 C 
HETATM   26  O2  UNK     1      27.984  -8.945  34.837  1.00  0.00    -0.259 OA
BRANCH  25  27
HETATM   27  O1  UNK     1      27.479 -10.107  36.749  1.00  0.00    -0.322 OA
HETATM   28  C15 UNK     1      26.125 -10.428  36.409  1.00  0.00     0.213 C 
ENDBRANCH  25  27
ENDBRANCH   8  25
BRANCH   2  29
HETATM   29  C7  UNK     1      34.322  -6.828  37.588  1.00  0.00     0.000 C 
HETATM   30  C10 UNK     1      35.123  -5.984  36.615  1.00  0.00     0.005 C 
ENDBRANCH   2  29
TORSDOF 5
ENDMDL
MODEL 7
REMARK VINA RESULT:      -8.3      1.353      2.128
REMARK  5 active torsions:
REMARK  status: ('A' for Active; 'I' for Inactive)
REMARK    1  A    between atoms: C11_18  and  O1_2 
REMARK       I    between atoms: C12_19  and  N1_7 
REMARK    2  A    between atoms: C9_16  and  N1_7 
REMARK    3  A    between atoms: C1_8  and  C7_14 
REMARK    4  A    between atoms: C11_18  and  C8_15 
REMARK    5  A    between atoms: C12_19  and  C13_20 
ROOT
HETATM    1  S1  UNK     1      15.218   7.027  32.648  1.00  0.00    -0.075 SA
HETATM    2  C1  UNK     1      14.841  11.076  33.249  1.00  0.00    -0.010 C 
HETATM    3  C2  UNK     1      15.866  11.151  34.403  1.00  0.00     0.009 C 
HETATM    4  C3  UNK     1      14.299   9.639  33.081  1.00  0.00     0.051 C 
HETATM    5  C4  UNK     1      17.083  10.250  34.140  1.00  0.00     0.041 C 
HETATM    6  C5  UNK     1      16.677   8.895  33.652  1.00  0.00    -0.026 A 
HETATM    7  C6  UNK     1      15.414   8.641  33.153  1.00  0.00    -0.008 A 
HETATM    8  C8  UNK     1      17.498   7.728  33.606  1.00  0.00     0.080 A 
HETATM    9  C9  UNK     1      16.829   6.642  33.083  1.00  0.00     0.094 A 
ENDROOT
BRANCH   9  10
HETATM   10  N1  UNK     1      17.232   5.353  32.862  1.00  0.00    -0.316 N 
HETATM   11  C12 UNK     1      17.961   4.880  31.763  1.00  0.00     0.262 C 
HETATM   12  O3  UNK     1      18.379   5.509  30.799  1.00  0.00    -0.267 OA
HETATM   13  H13 UNK     1      16.943   4.690  33.577  1.00  0.00     0.169 HD
BRANCH  11  14
HETATM   14  C13 UNK     1      18.224   3.428  31.844  1.00  0.00     0.108 A 
HETATM   15  C14 UNK     1      18.128   2.876  33.059  1.00  0.00     0.037 A 
HETATM   16  C16 UNK     1      18.368   1.453  33.240  1.00  0.00    -0.001 A 
HETATM   17  C18 UNK     1      18.700   0.680  32.132  1.00  0.00     0.089 A 
HETATM   18  C19 UNK     1      18.278   0.835  34.490  1.00  0.00     0.014 A 
HETATM   19  O4  UNK     1      18.800   1.266  30.855  1.00  0.00    -0.274 OA
HETATM   20  C20 UNK     1      18.943  -0.688  32.237  1.00  0.00     0.038 A 
HETATM   21  C17 UNK     1      18.575   2.625  30.651  1.00  0.00     0.304 A 
HETATM   22  O5  UNK     1      18.666   3.127  29.536  1.00  0.00    -0.259 OA
HETATM   23  C22 UNK     1      18.852  -1.296  33.487  1.00  0.00     0.003 A 
HETATM   24  C21 UNK     1      18.520  -0.537  34.612  1.00  0.00     0.001 A 
ENDBRANCH  11  14
ENDBRANCH   9  10
BRANCH   8  25
HETATM   25  C11 UNK     1      18.871   7.654  34.040  1.00  0.00     0.296 C 
HETATM   26  O2  UNK     1      19.224   7.696  35.228  1.00  0.00    -0.259 OA
BRANCH  25  27
HETATM   27  O1  UNK     1      19.776   7.530  33.009  1.00  0.00    -0.322 OA
HETATM   28  C15 UNK     1      20.772   6.509  33.142  1.00  0.00     0.213 C 
ENDBRANCH  25  27
ENDBRANCH   8  25
BRANCH   2  29
HETATM   29  C7  UNK     1      13.693  12.057  33.480  1.00  0.00     0.000 C 
HETATM   30  C10 UNK     1      12.418  11.581  32.811  1.00  0.00     0.005 C 
ENDBRANCH   2  29
TORSDOF 5
ENDMDL
MODEL 8
REMARK VINA RESULT:      -8.3     23.526     25.244
REMARK  5 active torsions:
REMARK  status: ('A' for Active; 'I' for Inactive)
REMARK    1  A    between atoms: C11_18  and  O1_2 
REMARK       I    between atoms: C12_19  and  N1_7 
REMARK    2  A    between atoms: C9_16  and  N1_7 
REMARK    3  A    between atoms: C1_8  and  C7_14 
REMARK    4  A    between atoms: C11_18  and  C8_15 
REMARK    5  A    between atoms: C12_19  and  C13_20 
ROOT
HETATM    1  S1  UNK     1      11.079   9.459   9.782  1.00  0.00    -0.075 SA
HETATM    2  C1  UNK     1       7.628   7.227   9.724  1.00  0.00    -0.010 C 
HETATM    3  C2  UNK     1       7.804   6.719   8.276  1.00  0.00     0.009 C 
HETATM    4  C3  UNK     1       8.447   8.515   9.964  1.00  0.00     0.051 C 
HETATM    5  C4  UNK     1       9.270   6.371   7.970  1.00  0.00     0.041 C 
HETATM    6  C5  UNK     1      10.206   7.431   8.459  1.00  0.00    -0.026 A 
HETATM    7  C6  UNK     1       9.821   8.384   9.382  1.00  0.00    -0.008 A 
HETATM    8  C8  UNK     1      11.573   7.594   8.084  1.00  0.00     0.080 A 
HETATM    9  C9  UNK     1      12.167   8.658   8.728  1.00  0.00     0.094 A 
ENDROOT
BRANCH   9  10
HETATM   10  N1  UNK     1      13.439   9.159   8.665  1.00  0.00    -0.316 N 
HETATM   11  C12 UNK     1      14.485   8.904   9.562  1.00  0.00     0.262 C 
HETATM   12  O3  UNK     1      14.475   8.197  10.562  1.00  0.00    -0.267 OA
HETATM   13  H13 UNK     1      13.608   9.791   7.886  1.00  0.00     0.169 HD
BRANCH  11  14
HETATM   14  C13 UNK     1      15.729   9.612   9.193  1.00  0.00     0.108 A 
HETATM   15  C14 UNK     1      15.584  10.712   8.446  1.00  0.00     0.037 A 
HETATM   16  C16 UNK     1      16.750  11.477   8.032  1.00  0.00    -0.001 A 
HETATM   17  C18 UNK     1      18.012  11.045   8.425  1.00  0.00     0.089 A 
HETATM   18  C19 UNK     1      16.644  12.632   7.253  1.00  0.00     0.014 A 
HETATM   19  O4  UNK     1      18.159   9.886   9.211  1.00  0.00    -0.274 OA
HETATM   20  C20 UNK     1      19.169  11.732   8.062  1.00  0.00     0.038 A 
HETATM   21  C17 UNK     1      17.062   9.134   9.623  1.00  0.00     0.304 A 
HETATM   22  O5  UNK     1      17.199   8.125  10.307  1.00  0.00    -0.259 OA
HETATM   23  C22 UNK     1      19.056  12.882   7.284  1.00  0.00     0.003 A 
HETATM   24  C21 UNK     1      17.796  13.331   6.880  1.00  0.00     0.001 A 
ENDBRANCH  11  14
ENDBRANCH   9  10
BRANCH   8  25
HETATM   25  C11 UNK     1      12.290   6.760   7.150  1.00  0.00     0.296 C 
HETATM   26  O2  UNK     1      11.974   6.630   5.958  1.00  0.00    -0.259 OA
BRANCH  25  27
HETATM   27  O1  UNK     1      13.373   6.110   7.699  1.00  0.00    -0.322 OA
HETATM   28  C15 UNK     1      13.092   4.994   8.551  1.00  0.00     0.213 C 
ENDBRANCH  25  27
ENDBRANCH   8  25
BRANCH   2  29
HETATM   29  C7  UNK     1       6.152   7.465  10.040  1.00  0.00     0.000 C 
HETATM   30  C10 UNK     1       5.573   6.329  10.862  1.00  0.00     0.005 C 
ENDBRANCH   2  29
TORSDOF 5
ENDMDL
MODEL 9
REMARK VINA RESULT:      -8.0      2.039      9.002
REMARK  5 active torsions:
REMARK  status: ('A' for Active; 'I' for Inactive)
REMARK    1  A    between atoms: C11_18  and  O1_2 
REMARK       I    between atoms: C12_19  and  N1_7 
REMARK    2  A    between atoms: C9_16  and  N1_7 
REMARK    3  A    between atoms: C1_8  and  C7_14 
REMARK    4  A    between atoms: C11_18  and  C8_15 
REMARK    5  A    between atoms: C12_19  and  C13_20 
ROOT
HETATM    1  S1  UNK     1      18.018   3.223  33.434  1.00  0.00    -0.075 SA
HETATM    2  C1  UNK     1      19.571  -0.083  31.548  1.00  0.00    -0.010 C 
HETATM    3  C2  UNK     1      19.174   0.359  30.122  1.00  0.00     0.009 C 
HETATM    4  C3  UNK     1      18.710   0.635  32.611  1.00  0.00     0.051 C 
HETATM    5  C4  UNK     1      19.387   1.867  29.915  1.00  0.00     0.041 C 
HETATM    6  C5  UNK     1      18.863   2.666  31.067  1.00  0.00    -0.026 A 
HETATM    7  C6  UNK     1      18.582   2.092  32.292  1.00  0.00    -0.008 A 
HETATM    8  C8  UNK     1      18.612   4.071  31.081  1.00  0.00     0.080 A 
HETATM    9  C9  UNK     1      18.149   4.505  32.305  1.00  0.00     0.094 A 
ENDROOT
BRANCH   9  10
HETATM   10  N1  UNK     1      17.792   5.749  32.748  1.00  0.00    -0.316 N 
HETATM   11  C12 UNK     1      18.519   6.567  33.623  1.00  0.00     0.262 C 
HETATM   12  O3  UNK     1      19.598   6.342  34.156  1.00  0.00    -0.267 OA
HETATM   13  H13 UNK     1      16.894   6.081  32.404  1.00  0.00     0.169 HD
BRANCH  11  14
HETATM   14  C13 UNK     1      17.838   7.851  33.892  1.00  0.00     0.108 A 
HETATM   15  C14 UNK     1      18.589   8.954  33.784  1.00  0.00     0.037 A 
HETATM   16  C16 UNK     1      18.009  10.264  34.030  1.00  0.00    -0.001 A 
HETATM   17  C18 UNK     1      16.665  10.351  34.378  1.00  0.00     0.089 A 
HETATM   18  C19 UNK     1      18.756  11.441  33.928  1.00  0.00     0.014 A 
HETATM   19  O4  UNK     1      15.878   9.187  34.489  1.00  0.00    -0.274 OA
HETATM   20  C20 UNK     1      16.048  11.575  34.626  1.00  0.00     0.038 A 
HETATM   21  C17 UNK     1      16.406   7.920  34.260  1.00  0.00     0.304 A 
HETATM   22  O5  UNK     1      15.714   6.912  34.361  1.00  0.00    -0.259 OA
HETATM   23  C22 UNK     1      16.799  12.743  34.523  1.00  0.00     0.003 A 
HETATM   24  C21 UNK     1      18.151  12.677  34.176  1.00  0.00     0.001 A 
ENDBRANCH  11  14
ENDBRANCH   9  10
BRANCH   8  25
HETATM   25  C11 UNK     1      18.812   4.968  29.970  1.00  0.00     0.296 C 
HETATM   26  O2  UNK     1      18.356   4.772  28.833  1.00  0.00    -0.259 OA
BRANCH  25  27
HETATM   27  O1  UNK     1      19.563   6.080  30.279  1.00  0.00    -0.322 OA
HETATM   28  C15 UNK     1      20.910   5.851  30.708  1.00  0.00     0.213 C 
ENDBRANCH  25  27
ENDBRANCH   8  25
BRANCH   2  29
HETATM   29  C7  UNK     1      19.452  -1.599  31.698  1.00  0.00     0.000 C 
HETATM   30  C10 UNK     1      20.354  -2.323  30.717  1.00  0.00     0.005 C 
ENDBRANCH   2  29
TORSDOF 5
ENDMDL
MODEL 10
REMARK VINA RESULT:      -8.0      6.584      9.972
REMARK  5 active torsions:
REMARK  status: ('A' for Active; 'I' for Inactive)
REMARK    1  A    between atoms: C11_18  and  O1_2 
REMARK       I    between atoms: C12_19  and  N1_7 
REMARK    2  A    between atoms: C9_16  and  N1_7 
REMARK    3  A    between atoms: C1_8  and  C7_14 
REMARK    4  A    between atoms: C11_18  and  C8_15 
REMARK    5  A    between atoms: C12_19  and  C13_20 
ROOT
HETATM    1  S1  UNK     1      20.099  -2.384  32.737  1.00  0.00    -0.075 SA
HETATM    2  C1  UNK     1      19.416   1.201  30.846  1.00  0.00    -0.010 C 
HETATM    3  C2  UNK     1      18.128   1.538  31.628  1.00  0.00     0.009 C 
HETATM    4  C3  UNK     1      19.709  -0.316  30.888  1.00  0.00     0.051 C 
HETATM    5  C4  UNK     1      18.246   1.154  33.111  1.00  0.00     0.041 C 
HETATM    6  C5  UNK     1      18.834  -0.210  33.287  1.00  0.00    -0.026 A 
HETATM    7  C6  UNK     1      19.516  -0.854  32.271  1.00  0.00    -0.008 A 
HETATM    8  C8  UNK     1      18.804  -1.001  34.475  1.00  0.00     0.080 A 
HETATM    9  C9  UNK     1      19.454  -2.206  34.314  1.00  0.00     0.094 A 
ENDROOT
BRANCH   9  10
HETATM   10  N1  UNK     1      19.661  -3.244  35.181  1.00  0.00    -0.316 N 
HETATM   11  C12 UNK     1      20.355  -3.195  36.397  1.00  0.00     0.262 C 
HETATM   12  O3  UNK     1      20.904  -2.234  36.922  1.00  0.00    -0.267 OA
HETATM   13  H13 UNK     1      19.275  -4.135  34.876  1.00  0.00     0.169 HD
BRANCH  11  14
HETATM   14  C13 UNK     1      20.389  -4.505  37.081  1.00  0.00     0.108 A 
HETATM   15  C14 UNK     1      21.532  -4.818  37.703  1.00  0.00     0.037 A 
HETATM   16  C16 UNK     1      21.663  -6.086  38.404  1.00  0.00    -0.001 A 
HETATM   17  C18 UNK     1      20.584  -6.963  38.415  1.00  0.00     0.089 A 
HETATM   18  C19 UNK     1      22.837  -6.453  39.067  1.00  0.00     0.014 A 
HETATM   19  O4  UNK     1      19.383  -6.629  37.759  1.00  0.00    -0.274 OA
HETATM   20  C20 UNK     1      20.643  -8.193  39.068  1.00  0.00     0.038 A 
HETATM   21  C17 UNK     1      19.228  -5.423  37.081  1.00  0.00     0.304 A 
HETATM   22  O5  UNK     1      18.180  -5.140  36.510  1.00  0.00    -0.259 OA
HETATM   23  C22 UNK     1      21.817  -8.552  39.726  1.00  0.00     0.003 A 
HETATM   24  C21 UNK     1      22.912  -7.684  39.725  1.00  0.00     0.001 A 
ENDBRANCH  11  14
ENDBRANCH   9  10
BRANCH   8  25
HETATM   25  C11 UNK     1      18.184  -0.618  35.719  1.00  0.00     0.296 C 
HETATM   26  O2  UNK     1      17.208  -1.203  36.213  1.00  0.00    -0.259 OA
BRANCH  25  27
HETATM   27  O1  UNK     1      18.773   0.469  36.325  1.00  0.00    -0.322 OA
HETATM   28  C15 UNK     1      17.895   1.446  36.895  1.00  0.00     0.213 C 
ENDBRANCH  25  27
ENDBRANCH   8  25
BRANCH   2  29
HETATM   29  C7  UNK     1      19.316   1.687  29.401  1.00  0.00     0.000 C 
HETATM   30  C10 UNK     1      17.874   1.922  28.996  1.00  0.00     0.005 C 
ENDBRANCH   2  29
TORSDOF 5
ENDMDL
