MODEL 1
REMARK VINA RESULT:      -8.4      0.000      0.000
REMARK  4 active torsions:
REMARK  status: ('A' for Active; 'I' for Inactive)
REMARK    1  A    between atoms: C5_10  and  O2_2 
REMARK    2  A    between atoms: C9_14  and  O3_3 
REMARK    3  A    between atoms: C13_18  and  O5_5 
REMARK    4  A    between atoms: C3_8  and  C4_9 
ROOT
HETATM    1  O1  UNK     1      13.159   7.518   8.451  1.00  0.00    -0.306 OA
HETATM    2  O4  UNK     1      15.149   4.192   9.710  1.00  0.00    -0.284 OA
HETATM    3  C1  UNK     1      15.122   6.540   9.492  1.00  0.00     0.051 A 
HETATM    4  C2  UNK     1      14.392   7.636   9.038  1.00  0.00     0.093 A 
HETATM    5  C3  UNK     1      12.612   6.251   8.314  1.00  0.00     0.123 A 
HETATM    6  C5  UNK     1      13.215   5.113   8.701  1.00  0.00     0.152 A 
HETATM    7  C6  UNK     1      14.552   5.193   9.337  1.00  0.00     0.220 A 
HETATM    8  C7  UNK     1      14.912   8.924   9.171  1.00  0.00     0.075 A 
HETATM    9  C8  UNK     1      16.375   6.722  10.082  1.00  0.00     0.021 A 
HETATM   10  C9  UNK     1      16.163   9.110   9.760  1.00  0.00     0.070 A 
HETATM   11  C11 UNK     1      16.892   8.011  10.215  1.00  0.00     0.038 A 
ENDROOT
BRANCH   5  12
HETATM   12  C4  UNK     1      11.287   6.265   7.668  1.00  0.00     0.003 A 
HETATM   13  C10 UNK     1      10.130   6.191   8.443  1.00  0.00     0.051 A 
HETATM   14  C13 UNK     1       8.877   6.204   7.830  1.00  0.00     0.069 A 
HETATM   15  C15 UNK     1       8.781   6.291   6.442  1.00  0.00     0.037 A 
HETATM   16  C14 UNK     1       9.937   6.365   5.665  1.00  0.00     0.004 A 
HETATM   17  C12 UNK     1      11.190   6.353   6.278  1.00  0.00     0.014 A 
BRANCH  14  18
HETATM   18  O5  UNK     1       7.748   6.131   8.588  1.00  0.00    -0.356 OA
HETATM   19  C17 UNK     1       7.483   4.890   9.239  1.00  0.00     0.210 C 
ENDBRANCH  14  18
ENDBRANCH   5  12
BRANCH   6  20
HETATM   20  O2  UNK     1      12.656   3.867   8.520  1.00  0.00    -0.355 OA
HETATM   21  H8  UNK     1      12.915   3.511   7.656  1.00  0.00     0.218 HD
ENDBRANCH   6  20
BRANCH  10  22
HETATM   22  O3  UNK     1      16.672  10.365   9.892  1.00  0.00    -0.356 OA
HETATM   23  C16 UNK     1      17.520  10.835   8.846  1.00  0.00     0.210 C 
ENDBRANCH  10  22
TORSDOF 4
ENDMDL
MODEL 2
REMARK VINA RESULT:      -8.4     24.925     27.084
REMARK  4 active torsions:
REMARK  status: ('A' for Active; 'I' for Inactive)
REMARK    1  A    between atoms: C5_10  and  O2_2 
REMARK    2  A    between atoms: C9_14  and  O3_3 
REMARK    3  A    between atoms: C13_18  and  O5_5 
REMARK    4  A    between atoms: C3_8  and  C4_9 
ROOT
HETATM    1  O1  UNK     1      18.711  -0.634  33.617  1.00  0.00    -0.306 OA
HETATM    2  O4  UNK     1      20.743  -3.513  35.663  1.00  0.00    -0.284 OA
HETATM    3  C1  UNK     1      19.141  -1.784  35.711  1.00  0.00     0.051 A 
HETATM    4  C2  UNK     1      18.482  -0.817  34.956  1.00  0.00     0.093 A 
HETATM    5  C3  UNK     1      19.631  -1.457  32.987  1.00  0.00     0.123 A 
HETATM    6  C5  UNK     1      20.340  -2.420  33.601  1.00  0.00     0.152 A 
HETATM    7  C6  UNK     1      20.128  -2.651  35.050  1.00  0.00     0.220 A 
HETATM    8  C7  UNK     1      17.542   0.020  35.561  1.00  0.00     0.075 A 
HETATM    9  C8  UNK     1      18.867  -1.923  37.074  1.00  0.00     0.021 A 
HETATM   10  C9  UNK     1      17.266  -0.116  36.922  1.00  0.00     0.070 A 
HETATM   11  C11 UNK     1      17.926  -1.086  37.676  1.00  0.00     0.038 A 
ENDROOT
BRANCH   5  12
HETATM   12  C4  UNK     1      19.783  -1.155  31.552  1.00  0.00     0.003 A 
HETATM   13  C10 UNK     1      19.447   0.109  31.064  1.00  0.00     0.051 A 
HETATM   14  C13 UNK     1      19.591   0.393  29.706  1.00  0.00     0.069 A 
HETATM   15  C15 UNK     1      20.070  -0.586  28.836  1.00  0.00     0.037 A 
HETATM   16  C14 UNK     1      20.405  -1.849  29.322  1.00  0.00     0.004 A 
HETATM   17  C12 UNK     1      20.262  -2.133  30.680  1.00  0.00     0.014 A 
BRANCH  14  18
HETATM   18  O5  UNK     1      19.263   1.626  29.231  1.00  0.00    -0.356 OA
HETATM   19  C17 UNK     1      17.958   1.782  28.676  1.00  0.00     0.210 C 
ENDBRANCH  14  18
ENDBRANCH   5  12
BRANCH   6  20
HETATM   20  O2  UNK     1      21.272  -3.200  32.949  1.00  0.00    -0.355 OA
HETATM   21  H8  UNK     1      21.687  -2.691  32.235  1.00  0.00     0.218 HD
ENDBRANCH   6  20
BRANCH  10  22
HETATM   22  O3  UNK     1      16.350   0.697  37.514  1.00  0.00    -0.356 OA
HETATM   23  C16 UNK     1      15.182   1.017  36.760  1.00  0.00     0.210 C 
ENDBRANCH  10  22
TORSDOF 4
ENDMDL
MODEL 3
REMARK VINA RESULT:      -8.2      1.161      1.249
REMARK  4 active torsions:
REMARK  status: ('A' for Active; 'I' for Inactive)
REMARK    1  A    between atoms: C5_10  and  O2_2 
REMARK    2  A    between atoms: C9_14  and  O3_3 
REMARK    3  A    between atoms: C13_18  and  O5_5 
REMARK    4  A    between atoms: C3_8  and  C4_9 
ROOT
HETATM    1  O1  UNK     1      13.014   8.142   8.148  1.00  0.00    -0.306 OA
HETATM    2  O4  UNK     1      14.821   5.497  10.667  1.00  0.00    -0.284 OA
HETATM    3  C1  UNK     1      14.887   7.595   9.591  1.00  0.00     0.051 A 
HETATM    4  C2  UNK     1      14.220   8.452   8.721  1.00  0.00     0.093 A 
HETATM    5  C3  UNK     1      12.430   6.923   8.459  1.00  0.00     0.123 A 
HETATM    6  C5  UNK     1      12.973   6.003   9.276  1.00  0.00     0.152 A 
HETATM    7  C6  UNK     1      14.279   6.295   9.914  1.00  0.00     0.220 A 
HETATM    8  C7  UNK     1      14.777   9.691   8.397  1.00  0.00     0.075 A 
HETATM    9  C8  UNK     1      16.116   7.966  10.145  1.00  0.00     0.021 A 
HETATM   10  C9  UNK     1      16.004  10.065   8.948  1.00  0.00     0.070 A 
HETATM   11  C11 UNK     1      16.670   9.204   9.820  1.00  0.00     0.038 A 
ENDROOT
BRANCH   5  12
HETATM   12  C4  UNK     1      11.140   6.714   7.777  1.00  0.00     0.003 A 
HETATM   13  C10 UNK     1       9.945   6.882   8.476  1.00  0.00     0.051 A 
HETATM   14  C13 UNK     1       8.725   6.684   7.829  1.00  0.00     0.069 A 
HETATM   15  C15 UNK     1       8.700   6.317   6.484  1.00  0.00     0.037 A 
HETATM   16  C14 UNK     1       9.895   6.149   5.784  1.00  0.00     0.004 A 
HETATM   17  C12 UNK     1      11.115   6.348   6.431  1.00  0.00     0.014 A 
BRANCH  14  18
HETATM   18  O5  UNK     1       7.558   6.848   8.511  1.00  0.00    -0.356 OA
HETATM   19  C17 UNK     1       7.582   7.723   9.638  1.00  0.00     0.210 C 
ENDBRANCH  14  18
ENDBRANCH   5  12
BRANCH   6  20
HETATM   20  O2  UNK     1      12.380   4.787   9.538  1.00  0.00    -0.355 OA
HETATM   21  H8  UNK     1      11.739   4.575   8.841  1.00  0.00     0.218 HD
ENDBRANCH   6  20
BRANCH  10  22
HETATM   22  O3  UNK     1      16.549  11.271   8.635  1.00  0.00    -0.356 OA
HETATM   23  C16 UNK     1      15.924  12.015   7.591  1.00  0.00     0.210 C 
ENDBRANCH  10  22
TORSDOF 4
ENDMDL
MODEL 4
REMARK VINA RESULT:      -7.9     24.669     26.830
REMARK  4 active torsions:
REMARK  status: ('A' for Active; 'I' for Inactive)
REMARK    1  A    between atoms: C5_10  and  O2_2 
REMARK    2  A    between atoms: C9_14  and  O3_3 
REMARK    3  A    between atoms: C13_18  and  O5_5 
REMARK    4  A    between atoms: C3_8  and  C4_9 
ROOT
HETATM    1  O1  UNK     1      19.031  -0.438  32.918  1.00  0.00    -0.306 OA
HETATM    2  O4  UNK     1      21.307  -3.599  31.723  1.00  0.00    -0.284 OA
HETATM    3  C1  UNK     1      20.245  -1.573  31.149  1.00  0.00     0.051 A 
HETATM    4  C2  UNK     1      19.463  -0.522  31.620  1.00  0.00     0.093 A 
HETATM    5  C3  UNK     1      19.399  -1.440  33.803  1.00  0.00     0.123 A 
HETATM    6  C5  UNK     1      20.142  -2.512  33.475  1.00  0.00     0.152 A 
HETATM    7  C6  UNK     1      20.628  -2.647  32.080  1.00  0.00     0.220 A 
HETATM    8  C7  UNK     1      19.085   0.508  30.757  1.00  0.00     0.075 A 
HETATM    9  C8  UNK     1      20.656  -1.605  29.814  1.00  0.00     0.021 A 
HETATM   10  C9  UNK     1      19.494   0.480  29.423  1.00  0.00     0.070 A 
HETATM   11  C11 UNK     1      20.277  -0.574  28.953  1.00  0.00     0.038 A 
ENDROOT
BRANCH   5  12
HETATM   12  C4  UNK     1      18.869  -1.230  35.161  1.00  0.00     0.003 A 
HETATM   13  C10 UNK     1      17.934  -0.223  35.399  1.00  0.00     0.051 A 
HETATM   14  C13 UNK     1      17.433  -0.025  36.686  1.00  0.00     0.069 A 
HETATM   15  C15 UNK     1      17.867  -0.834  37.735  1.00  0.00     0.037 A 
HETATM   16  C14 UNK     1      18.802  -1.841  37.499  1.00  0.00     0.004 A 
HETATM   17  C12 UNK     1      19.303  -2.040  36.212  1.00  0.00     0.014 A 
BRANCH  14  18
HETATM   18  O5  UNK     1      16.520   0.958  36.917  1.00  0.00    -0.356 OA
HETATM   19  C17 UNK     1      15.200   0.750  36.417  1.00  0.00     0.210 C 
ENDBRANCH  14  18
ENDBRANCH   5  12
BRANCH   6  20
HETATM   20  O2  UNK     1      20.462  -3.508  34.372  1.00  0.00    -0.355 OA
HETATM   21  H8  UNK     1      21.358  -3.366  34.716  1.00  0.00     0.218 HD
ENDBRANCH   6  20
BRANCH  10  22
HETATM   22  O3  UNK     1      19.128   1.482  28.579  1.00  0.00    -0.356 OA
HETATM   23  C16 UNK     1      17.975   2.243  28.936  1.00  0.00     0.210 C 
ENDBRANCH  10  22
TORSDOF 4
ENDMDL
MODEL 5
REMARK VINA RESULT:      -7.8     22.973     25.002
REMARK  4 active torsions:
REMARK  status: ('A' for Active; 'I' for Inactive)
REMARK    1  A    between atoms: C5_10  and  O2_2 
REMARK    2  A    between atoms: C9_14  and  O3_3 
REMARK    3  A    between atoms: C13_18  and  O5_5 
REMARK    4  A    between atoms: C3_8  and  C4_9 
ROOT
HETATM    1  O1  UNK     1      16.802   7.429  32.285  1.00  0.00    -0.306 OA
HETATM    2  O4  UNK     1      19.553   9.460  34.501  1.00  0.00    -0.284 OA
HETATM    3  C1  UNK     1      17.362   9.368  33.632  1.00  0.00     0.051 A 
HETATM    4  C2  UNK     1      16.470   8.626  32.862  1.00  0.00     0.093 A 
HETATM    5  C3  UNK     1      18.080   6.930  32.487  1.00  0.00     0.123 A 
HETATM    6  C5  UNK     1      19.037   7.549  33.200  1.00  0.00     0.152 A 
HETATM    7  C6  UNK     1      18.724   8.850  33.839  1.00  0.00     0.220 A 
HETATM    8  C7  UNK     1      15.173   9.097  32.649  1.00  0.00     0.075 A 
HETATM    9  C8  UNK     1      16.967  10.584  34.196  1.00  0.00     0.021 A 
HETATM   10  C9  UNK     1      14.775  10.311  33.210  1.00  0.00     0.070 A 
HETATM   11  C11 UNK     1      15.670  11.052  33.982  1.00  0.00     0.038 A 
ENDROOT
BRANCH   5  12
HETATM   12  C4  UNK     1      18.305   5.639  31.812  1.00  0.00     0.003 A 
HETATM   13  C10 UNK     1      17.967   4.447  32.453  1.00  0.00     0.051 A 
HETATM   14  C13 UNK     1      18.182   3.226  31.813  1.00  0.00     0.069 A 
HETATM   15  C15 UNK     1      18.735   3.197  30.533  1.00  0.00     0.037 A 
HETATM   16  C14 UNK     1      19.074   4.388  29.892  1.00  0.00     0.004 A 
HETATM   17  C12 UNK     1      18.859   5.609  30.532  1.00  0.00     0.014 A 
BRANCH  14  18
HETATM   18  O5  UNK     1      17.852   2.063  32.439  1.00  0.00    -0.356 OA
HETATM   19  C17 UNK     1      18.115   1.981  33.838  1.00  0.00     0.210 C 
ENDBRANCH  14  18
ENDBRANCH   5  12
BRANCH   6  20
HETATM   20  O2  UNK     1      20.308   7.041  33.354  1.00  0.00    -0.355 OA
HETATM   21  H8  UNK     1      20.285   6.265  33.937  1.00  0.00     0.218 HD
ENDBRANCH   6  20
BRANCH  10  22
HETATM   22  O3  UNK     1      13.512  10.773  33.005  1.00  0.00    -0.356 OA
HETATM   23  C16 UNK     1      13.379  12.102  32.505  1.00  0.00     0.210 C 
ENDBRANCH  10  22
TORSDOF 4
ENDMDL
MODEL 6
REMARK VINA RESULT:      -7.8     23.228     25.241
REMARK  4 active torsions:
REMARK  status: ('A' for Active; 'I' for Inactive)
REMARK    1  A    between atoms: C5_10  and  O2_2 
REMARK    2  A    between atoms: C9_14  and  O3_3 
REMARK    3  A    between atoms: C13_18  and  O5_5 
REMARK    4  A    between atoms: C3_8  and  C4_9 
ROOT
HETATM    1  O1  UNK     1      18.063   3.129  33.216  1.00  0.00    -0.306 OA
HETATM    2  O4  UNK     1      19.290   1.413  29.730  1.00  0.00    -0.284 OA
HETATM    3  C1  UNK     1      18.697   1.130  31.995  1.00  0.00     0.051 A 
HETATM    4  C2  UNK     1      18.280   1.778  33.155  1.00  0.00     0.093 A 
HETATM    5  C3  UNK     1      18.258   3.882  32.068  1.00  0.00     0.123 A 
HETATM    6  C5  UNK     1      18.667   3.382  30.888  1.00  0.00     0.152 A 
HETATM    7  C6  UNK     1      18.918   1.925  30.777  1.00  0.00     0.220 A 
HETATM    8  C7  UNK     1      18.065   1.046  34.324  1.00  0.00     0.075 A 
HETATM    9  C8  UNK     1      18.902  -0.252  31.993  1.00  0.00     0.021 A 
HETATM   10  C9  UNK     1      18.269  -0.335  34.326  1.00  0.00     0.070 A 
HETATM   11  C11 UNK     1      18.686  -0.982  33.162  1.00  0.00     0.038 A 
ENDROOT
BRANCH   5  12
HETATM   12  C4  UNK     1      17.992   5.317  32.271  1.00  0.00     0.003 A 
HETATM   13  C10 UNK     1      16.790   5.874  31.833  1.00  0.00     0.051 A 
HETATM   14  C13 UNK     1      16.540   7.233  32.025  1.00  0.00     0.069 A 
HETATM   15  C15 UNK     1      17.492   8.035  32.654  1.00  0.00     0.037 A 
HETATM   16  C14 UNK     1      18.693   7.480  33.092  1.00  0.00     0.004 A 
HETATM   17  C12 UNK     1      18.944   6.120  32.900  1.00  0.00     0.014 A 
BRANCH  14  18
HETATM   18  O5  UNK     1      15.367   7.776  31.598  1.00  0.00    -0.356 OA
HETATM   19  C17 UNK     1      14.163   7.197  32.097  1.00  0.00     0.210 C 
ENDBRANCH  14  18
ENDBRANCH   5  12
BRANCH   6  20
HETATM   20  O2  UNK     1      18.882   4.165  29.774  1.00  0.00    -0.355 OA
HETATM   21  H8  UNK     1      18.555   5.064  29.934  1.00  0.00     0.218 HD
ENDBRANCH   6  20
BRANCH  10  22
HETATM   22  O3  UNK     1      18.060  -1.051  35.463  1.00  0.00    -0.356 OA
HETATM   23  C16 UNK     1      17.861  -0.314  36.668  1.00  0.00     0.210 C 
ENDBRANCH  10  22
TORSDOF 4
ENDMDL
MODEL 7
REMARK VINA RESULT:      -7.8     11.519     13.919
REMARK  4 active torsions:
REMARK  status: ('A' for Active; 'I' for Inactive)
REMARK    1  A    between atoms: C5_10  and  O2_2 
REMARK    2  A    between atoms: C9_14  and  O3_3 
REMARK    3  A    between atoms: C13_18  and  O5_5 
REMARK    4  A    between atoms: C3_8  and  C4_9 
ROOT
HETATM    1  O1  UNK     1      19.019  -0.925  17.637  1.00  0.00    -0.306 OA
HETATM    2  O4  UNK     1      19.373   2.303  15.176  1.00  0.00    -0.284 OA
HETATM    3  C1  UNK     1      19.146   1.484  17.376  1.00  0.00     0.051 A 
HETATM    4  C2  UNK     1      19.025   0.341  18.161  1.00  0.00     0.093 A 
HETATM    5  C3  UNK     1      19.148  -1.072  16.264  1.00  0.00     0.123 A 
HETATM    6  C5  UNK     1      19.263  -0.053  15.395  1.00  0.00     0.152 A 
HETATM    7  C6  UNK     1      19.271   1.335  15.917  1.00  0.00     0.220 A 
HETATM    8  C7  UNK     1      18.904   0.456  19.547  1.00  0.00     0.075 A 
HETATM    9  C8  UNK     1      19.146   2.751  17.967  1.00  0.00     0.021 A 
HETATM   10  C9  UNK     1      18.903   1.719  20.141  1.00  0.00     0.070 A 
HETATM   11  C11 UNK     1      19.025   2.863  19.352  1.00  0.00     0.038 A 
ENDROOT
BRANCH   5  12
HETATM   12  C4  UNK     1      19.125  -2.482  15.833  1.00  0.00     0.003 A 
HETATM   13  C10 UNK     1      20.315  -3.202  15.732  1.00  0.00     0.051 A 
HETATM   14  C13 UNK     1      20.291  -4.535  15.324  1.00  0.00     0.069 A 
HETATM   15  C15 UNK     1      19.077  -5.149  15.016  1.00  0.00     0.037 A 
HETATM   16  C14 UNK     1      17.887  -4.430  15.116  1.00  0.00     0.004 A 
HETATM   17  C12 UNK     1      17.910  -3.096  15.525  1.00  0.00     0.014 A 
BRANCH  14  18
HETATM   18  O5  UNK     1      21.453  -5.238  15.225  1.00  0.00    -0.356 OA
HETATM   19  C17 UNK     1      22.398  -5.081  16.282  1.00  0.00     0.210 C 
ENDBRANCH  14  18
ENDBRANCH   5  12
BRANCH   6  20
HETATM   20  O2  UNK     1      19.358  -0.233  14.032  1.00  0.00    -0.355 OA
HETATM   21  H8  UNK     1      18.531   0.041  13.604  1.00  0.00     0.218 HD
ENDBRANCH   6  20
BRANCH  10  22
HETATM   22  O3  UNK     1      18.785   1.834  21.491  1.00  0.00    -0.356 OA
HETATM   23  C16 UNK     1      19.948   2.240  22.212  1.00  0.00     0.210 C 
ENDBRANCH  10  22
TORSDOF 4
ENDMDL
MODEL 8
REMARK VINA RESULT:      -7.7      3.111      8.507
REMARK  4 active torsions:
REMARK  status: ('A' for Active; 'I' for Inactive)
REMARK    1  A    between atoms: C5_10  and  O2_2 
REMARK    2  A    between atoms: C9_14  and  O3_3 
REMARK    3  A    between atoms: C13_18  and  O5_5 
REMARK    4  A    between atoms: C3_8  and  C4_9 
ROOT
HETATM    1  O1  UNK     1       7.803   4.314   8.763  1.00  0.00    -0.306 OA
HETATM    2  O4  UNK     1       6.535   6.805  11.729  1.00  0.00    -0.284 OA
HETATM    3  C1  UNK     1       6.355   4.704  10.672  1.00  0.00     0.051 A 
HETATM    4  C2  UNK     1       6.830   3.903   9.637  1.00  0.00     0.093 A 
HETATM    5  C3  UNK     1       8.345   5.580   8.926  1.00  0.00     0.123 A 
HETATM    6  C5  UNK     1       7.970   6.454   9.877  1.00  0.00     0.152 A 
HETATM    7  C6  UNK     1       6.917   6.053  10.842  1.00  0.00     0.220 A 
HETATM    8  C7  UNK     1       6.312   2.620   9.453  1.00  0.00     0.075 A 
HETATM    9  C8  UNK     1       5.361   4.231  11.532  1.00  0.00     0.021 A 
HETATM   10  C9  UNK     1       5.319   2.144  10.309  1.00  0.00     0.070 A 
HETATM   11  C11 UNK     1       4.845   2.948  11.346  1.00  0.00     0.038 A 
ENDROOT
BRANCH   5  12
HETATM   12  C4  UNK     1       9.377   5.896   7.923  1.00  0.00     0.003 A 
HETATM   13  C10 UNK     1      10.728   5.777   8.249  1.00  0.00     0.051 A 
HETATM   14  C13 UNK     1      11.704   6.077   7.298  1.00  0.00     0.069 A 
HETATM   15  C15 UNK     1      11.330   6.497   6.022  1.00  0.00     0.037 A 
HETATM   16  C14 UNK     1       9.979   6.617   5.696  1.00  0.00     0.004 A 
HETATM   17  C12 UNK     1       9.003   6.316   6.646  1.00  0.00     0.014 A 
BRANCH  14  18
HETATM   18  O5  UNK     1      13.023   5.960   7.617  1.00  0.00    -0.356 OA
HETATM   19  C17 UNK     1      13.358   5.069   8.679  1.00  0.00     0.210 C 
ENDBRANCH  14  18
ENDBRANCH   5  12
BRANCH   6  20
HETATM   20  O2  UNK     1       8.507   7.718   9.991  1.00  0.00    -0.355 OA
HETATM   21  H8  UNK     1       8.662   8.091   9.109  1.00  0.00     0.218 HD
ENDBRANCH   6  20
BRANCH  10  22
HETATM   22  O3  UNK     1       4.812   0.893  10.134  1.00  0.00    -0.356 OA
HETATM   23  C16 UNK     1       4.909   0.331   8.826  1.00  0.00     0.210 C 
ENDBRANCH  10  22
TORSDOF 4
ENDMDL
MODEL 9
REMARK VINA RESULT:      -7.7      2.390      4.859
REMARK  4 active torsions:
REMARK  status: ('A' for Active; 'I' for Inactive)
REMARK    1  A    between atoms: C5_10  and  O2_2 
REMARK    2  A    between atoms: C9_14  and  O3_3 
REMARK    3  A    between atoms: C13_18  and  O5_5 
REMARK    4  A    between atoms: C3_8  and  C4_9 
ROOT
HETATM    1  O1  UNK     1      10.143   5.578   9.641  1.00  0.00    -0.306 OA
HETATM    2  O4  UNK     1      10.345   6.999   5.827  1.00  0.00    -0.284 OA
HETATM    3  C1  UNK     1      11.494   6.176   7.715  1.00  0.00     0.051 A 
HETATM    4  C2  UNK     1      11.357   5.700   9.016  1.00  0.00     0.093 A 
HETATM    5  C3  UNK     1       9.001   5.935   8.939  1.00  0.00     0.123 A 
HETATM    6  C5  UNK     1       8.996   6.415   7.683  1.00  0.00     0.152 A 
HETATM    7  C6  UNK     1      10.287   6.568   6.970  1.00  0.00     0.220 A 
HETATM    8  C7  UNK     1      12.487   5.323   9.744  1.00  0.00     0.075 A 
HETATM    9  C8  UNK     1      12.759   6.279   7.130  1.00  0.00     0.021 A 
HETATM   10  C9  UNK     1      13.752   5.425   9.164  1.00  0.00     0.070 A 
HETATM   11  C11 UNK     1      13.887   5.901   7.860  1.00  0.00     0.038 A 
ENDROOT
BRANCH   5  12
HETATM   12  C4  UNK     1       7.767   5.757   9.724  1.00  0.00     0.003 A 
HETATM   13  C10 UNK     1       7.081   4.543   9.684  1.00  0.00     0.051 A 
HETATM   14  C13 UNK     1       5.913   4.377  10.427  1.00  0.00     0.069 A 
HETATM   15  C15 UNK     1       5.429   5.424  11.211  1.00  0.00     0.037 A 
HETATM   16  C14 UNK     1       6.113   6.638  11.252  1.00  0.00     0.004 A 
HETATM   17  C12 UNK     1       7.283   6.805  10.509  1.00  0.00     0.014 A 
BRANCH  14  18
HETATM   18  O5  UNK     1       5.244   3.191  10.387  1.00  0.00    -0.356 OA
HETATM   19  C17 UNK     1       5.565   2.230  11.391  1.00  0.00     0.210 C 
ENDBRANCH  14  18
ENDBRANCH   5  12
BRANCH   6  20
HETATM   20  O2  UNK     1       7.844   6.791   7.027  1.00  0.00    -0.355 OA
HETATM   21  H8  UNK     1       7.086   6.733   7.630  1.00  0.00     0.218 HD
ENDBRANCH   6  20
BRANCH  10  22
HETATM   22  O3  UNK     1      14.855   5.058   9.870  1.00  0.00    -0.356 OA
HETATM   23  C16 UNK     1      16.020   5.867   9.721  1.00  0.00     0.210 C 
ENDBRANCH  10  22
TORSDOF 4
ENDMDL
MODEL 10
REMARK VINA RESULT:      -7.6     23.816     25.910
REMARK  4 active torsions:
REMARK  status: ('A' for Active; 'I' for Inactive)
REMARK    1  A    between atoms: C5_10  and  O2_2 
REMARK    2  A    between atoms: C9_14  and  O3_3 
REMARK    3  A    between atoms: C13_18  and  O5_5 
REMARK    4  A    between atoms: C3_8  and  C4_9 
ROOT
HETATM    1  O1  UNK     1      17.990   2.909  33.434  1.00  0.00    -0.306 OA
HETATM    2  O4  UNK     1      19.225   1.788  29.716  1.00  0.00    -0.284 OA
HETATM    3  C1  UNK     1      18.705   3.543  31.203  1.00  0.00     0.051 A 
HETATM    4  C2  UNK     1      18.276   3.859  32.490  1.00  0.00     0.093 A 
HETATM    5  C3  UNK     1      18.145   1.573  33.095  1.00  0.00     0.123 A 
HETATM    6  C5  UNK     1      18.542   1.134  31.887  1.00  0.00     0.152 A 
HETATM    7  C6  UNK     1      18.858   2.128  30.833  1.00  0.00     0.220 A 
HETATM    8  C7  UNK     1      18.121   5.195  32.865  1.00  0.00     0.075 A 
HETATM    9  C8  UNK     1      18.981   4.557  30.282  1.00  0.00     0.021 A 
HETATM   10  C9  UNK     1      18.396   6.210  31.947  1.00  0.00     0.070 A 
HETATM   11  C11 UNK     1      18.825   5.891  30.659  1.00  0.00     0.038 A 
ENDROOT
BRANCH   5  12
HETATM   12  C4  UNK     1      17.804   0.657  34.197  1.00  0.00     0.003 A 
HETATM   13  C10 UNK     1      18.803  -0.092  34.819  1.00  0.00     0.051 A 
HETATM   14  C13 UNK     1      18.478  -0.958  35.862  1.00  0.00     0.069 A 
HETATM   15  C15 UNK     1      17.154  -1.077  36.284  1.00  0.00     0.037 A 
HETATM   16  C14 UNK     1      16.155  -0.329  35.664  1.00  0.00     0.004 A 
HETATM   17  C12 UNK     1      16.479   0.538  34.620  1.00  0.00     0.014 A 
BRANCH  14  18
HETATM   18  O5  UNK     1      19.454  -1.689  36.469  1.00  0.00    -0.356 OA
HETATM   19  C17 UNK     1      20.548  -2.111  35.657  1.00  0.00     0.210 C 
ENDBRANCH  14  18
ENDBRANCH   5  12
BRANCH   6  20
HETATM   20  O2  UNK     1      18.655  -0.203  31.573  1.00  0.00    -0.355 OA
HETATM   21  H8  UNK     1      19.583  -0.479  31.634  1.00  0.00     0.218 HD
ENDBRANCH   6  20
BRANCH  10  22
HETATM   22  O3  UNK     1      18.246   7.513  32.310  1.00  0.00    -0.356 OA
HETATM   23  C16 UNK     1      16.921   8.041  32.300  1.00  0.00     0.210 C 
ENDBRANCH  10  22
TORSDOF 4
ENDMDL
