MODEL 1
REMARK VINA RESULT:      -6.9      0.000      0.000
REMARK  4 active torsions:
REMARK  status: ('A' for Active; 'I' for Inactive)
REMARK    1  A    between atoms: C2_6  and  N1_3 
REMARK    2  A    between atoms: C3_7  and  N1_3 
REMARK    3  A    between atoms: C7_11  and  N2_4 
REMARK    4  A    between atoms: C1_5  and  C2_6 
ROOT
HETATM    1  O1  UNK     1      19.171   1.272  28.938  1.00  0.00    -0.273 OA
HETATM    2  O2  UNK     1      18.256   3.351  28.908  1.00  0.00    -0.257 OA
HETATM    3  C3  UNK     1      18.868   1.248  31.754  1.00  0.00     0.074 A 
HETATM    4  C4  UNK     1      19.463   0.092  31.050  1.00  0.00     0.027 A 
HETATM    5  C7  UNK     1      18.469   2.324  31.041  1.00  0.00     0.130 A 
HETATM    6  C8  UNK     1      19.592   0.146  29.663  1.00  0.00     0.092 A 
HETATM    7  C9  UNK     1      19.916  -1.078  31.684  1.00  0.00     0.017 A 
HETATM    8  C10 UNK     1      18.614   2.375  29.560  1.00  0.00     0.317 A 
HETATM    9  C11 UNK     1      20.141  -0.898  28.915  1.00  0.00     0.038 A 
HETATM   10  C12 UNK     1      20.469  -2.133  30.949  1.00  0.00     0.001 A 
HETATM   11  C13 UNK     1      20.582  -2.044  29.565  1.00  0.00     0.003 A 
ENDROOT
BRANCH   3  12
HETATM   12  N1  UNK     1      18.741   1.181  33.119  1.00  0.00    -0.387 N 
HETATM   13  H4  UNK     1      19.586   1.185  33.674  1.00  0.00     0.159 HD
BRANCH  12  14
HETATM   14  C2  UNK     1      17.510   0.844  33.777  1.00  0.00     0.123 C 
BRANCH  14  15
HETATM   15  C1  UNK     1      17.538  -0.576  34.356  1.00  0.00    -0.005 C 
HETATM   16  C5  UNK     1      18.722  -0.789  35.301  1.00  0.00     0.011 C 
HETATM   17  C6  UNK     1      16.224  -0.940  35.051  1.00  0.00     0.011 C 
ENDBRANCH  14  15
ENDBRANCH  12  14
ENDBRANCH   3  12
BRANCH   5  18
HETATM   18  N2  UNK     1      17.907   3.450  31.583  1.00  0.00    -0.392 N 
HETATM   19  H15 UNK     1      17.553   4.165  30.966  1.00  0.00     0.156 HD
HETATM   20  H16 UNK     1      17.398   3.340  32.454  1.00  0.00     0.156 HD
ENDBRANCH   5  18
TORSDOF 4
ENDMDL
MODEL 2
REMARK VINA RESULT:      -6.8      3.142      5.885
REMARK  4 active torsions:
REMARK  status: ('A' for Active; 'I' for Inactive)
REMARK    1  A    between atoms: C2_6  and  N1_3 
REMARK    2  A    between atoms: C3_7  and  N1_3 
REMARK    3  A    between atoms: C7_11  and  N2_4 
REMARK    4  A    between atoms: C1_5  and  C2_6 
ROOT
HETATM    1  O1  UNK     1      18.425   4.046  34.517  1.00  0.00    -0.273 OA
HETATM    2  O2  UNK     1      18.124   2.204  35.811  1.00  0.00    -0.257 OA
HETATM    3  C3  UNK     1      18.336   2.376  32.230  1.00  0.00     0.074 A 
HETATM    4  C4  UNK     1      18.533   3.834  32.091  1.00  0.00     0.027 A 
HETATM    5  C7  UNK     1      18.201   1.840  33.463  1.00  0.00     0.130 A 
HETATM    6  C8  UNK     1      18.569   4.618  33.243  1.00  0.00     0.092 A 
HETATM    7  C9  UNK     1      18.688   4.502  30.865  1.00  0.00     0.017 A 
HETATM    8  C10 UNK     1      18.245   2.685  34.689  1.00  0.00     0.317 A 
HETATM    9  C11 UNK     1      18.749   6.004  33.208  1.00  0.00     0.038 A 
HETATM   10  C12 UNK     1      18.870   5.890  30.812  1.00  0.00     0.001 A 
HETATM   11  C13 UNK     1      18.901   6.640  31.983  1.00  0.00     0.003 A 
ENDROOT
BRANCH   3  12
HETATM   12  N1  UNK     1      18.297   1.615  31.088  1.00  0.00    -0.387 N 
HETATM   13  H4  UNK     1      17.393   1.409  30.688  1.00  0.00     0.159 HD
BRANCH  12  14
HETATM   14  C2  UNK     1      19.432   0.889  30.590  1.00  0.00     0.123 C 
BRANCH  14  15
HETATM   15  C1  UNK     1      19.430   0.803  29.058  1.00  0.00    -0.005 C 
HETATM   16  C5  UNK     1      19.761  -0.605  28.561  1.00  0.00     0.011 C 
HETATM   17  C6  UNK     1      18.110   1.289  28.456  1.00  0.00     0.011 C 
ENDBRANCH  14  15
ENDBRANCH  12  14
ENDBRANCH   3  12
BRANCH   5  18
HETATM   18  N2  UNK     1      18.016   0.506  33.715  1.00  0.00    -0.392 N 
HETATM   19  H15 UNK     1      17.559   0.229  34.570  1.00  0.00     0.156 HD
HETATM   20  H16 UNK     1      17.841  -0.095  32.916  1.00  0.00     0.156 HD
ENDBRANCH   5  18
TORSDOF 4
ENDMDL
MODEL 3
REMARK VINA RESULT:      -6.8      2.995      5.653
REMARK  4 active torsions:
REMARK  status: ('A' for Active; 'I' for Inactive)
REMARK    1  A    between atoms: C2_6  and  N1_3 
REMARK    2  A    between atoms: C3_7  and  N1_3 
REMARK    3  A    between atoms: C7_11  and  N2_4 
REMARK    4  A    between atoms: C1_5  and  C2_6 
ROOT
HETATM    1  O1  UNK     1      20.134  -2.284  34.268  1.00  0.00    -0.273 OA
HETATM    2  O2  UNK     1      21.333  -3.487  32.759  1.00  0.00    -0.257 OA
HETATM    3  C3  UNK     1      19.131  -0.720  32.129  1.00  0.00     0.074 A 
HETATM    4  C4  UNK     1      18.721  -0.444  33.522  1.00  0.00     0.027 A 
HETATM    5  C7  UNK     1      19.996  -1.729  31.881  1.00  0.00     0.130 A 
HETATM    6  C8  UNK     1      19.238  -1.239  34.543  1.00  0.00     0.092 A 
HETATM    7  C9  UNK     1      17.833   0.577  33.902  1.00  0.00     0.017 A 
HETATM    8  C10 UNK     1      20.546  -2.571  32.979  1.00  0.00     0.317 A 
HETATM    9  C11 UNK     1      18.906  -1.052  35.888  1.00  0.00     0.038 A 
HETATM   10  C12 UNK     1      17.490   0.778  35.244  1.00  0.00     0.001 A 
HETATM   11  C13 UNK     1      18.026  -0.036  36.237  1.00  0.00     0.003 A 
ENDROOT
BRANCH   3  12
HETATM   12  N1  UNK     1      18.611   0.066  31.132  1.00  0.00    -0.387 N 
HETATM   13  H4  UNK     1      17.831  -0.296  30.602  1.00  0.00     0.159 HD
BRANCH  12  14
HETATM   14  C2  UNK     1      19.270   1.242  30.636  1.00  0.00     0.123 C 
BRANCH  14  15
HETATM   15  C1  UNK     1      18.271   2.279  30.106  1.00  0.00    -0.005 C 
HETATM   16  C5  UNK     1      18.794   3.709  30.254  1.00  0.00     0.011 C 
HETATM   17  C6  UNK     1      17.868   2.002  28.656  1.00  0.00     0.011 C 
ENDBRANCH  14  15
ENDBRANCH  12  14
ENDBRANCH   3  12
BRANCH   5  18
HETATM   18  N2  UNK     1      20.447  -2.076  30.635  1.00  0.00    -0.392 N 
HETATM   19  H15 UNK     1      19.881  -1.854  29.831  1.00  0.00     0.156 HD
HETATM   20  H16 UNK     1      21.449  -2.044  30.480  1.00  0.00     0.156 HD
ENDBRANCH   5  18
TORSDOF 4
ENDMDL
MODEL 4
REMARK VINA RESULT:      -6.8      2.486      4.254
REMARK  4 active torsions:
REMARK  status: ('A' for Active; 'I' for Inactive)
REMARK    1  A    between atoms: C2_6  and  N1_3 
REMARK    2  A    between atoms: C3_7  and  N1_3 
REMARK    3  A    between atoms: C7_11  and  N2_4 
REMARK    4  A    between atoms: C1_5  and  C2_6 
ROOT
HETATM    1  O1  UNK     1      19.459  -0.761  32.799  1.00  0.00    -0.273 OA
HETATM    2  O2  UNK     1      18.729  -0.072  34.837  1.00  0.00    -0.257 OA
HETATM    3  C3  UNK     1      18.433   1.636  31.691  1.00  0.00     0.074 A 
HETATM    4  C4  UNK     1      19.100   0.634  30.833  1.00  0.00     0.027 A 
HETATM    5  C7  UNK     1      18.313   1.398  33.016  1.00  0.00     0.130 A 
HETATM    6  C8  UNK     1      19.591  -0.531  31.420  1.00  0.00     0.092 A 
HETATM    7  C9  UNK     1      19.279   0.768  29.446  1.00  0.00     0.017 A 
HETATM    8  C10 UNK     1      18.837   0.149  33.634  1.00  0.00     0.317 A 
HETATM    9  C11 UNK     1      20.235  -1.533  30.688  1.00  0.00     0.038 A 
HETATM   10  C12 UNK     1      19.922  -0.225  28.697  1.00  0.00     0.001 A 
HETATM   11  C13 UNK     1      20.400  -1.375  29.318  1.00  0.00     0.003 A 
ENDROOT
BRANCH   3  12
HETATM   12  N1  UNK     1      17.959   2.781  31.102  1.00  0.00    -0.387 N 
HETATM   13  H4  UNK     1      17.005   2.783  30.770  1.00  0.00     0.159 HD
BRANCH  12  14
HETATM   14  C2  UNK     1      18.809   3.867  30.701  1.00  0.00     0.123 C 
BRANCH  14  15
HETATM   15  C1  UNK     1      18.893   4.958  31.777  1.00  0.00    -0.005 C 
HETATM   16  C5  UNK     1      19.750   6.143  31.329  1.00  0.00     0.011 C 
HETATM   17  C6  UNK     1      17.509   5.434  32.222  1.00  0.00     0.011 C 
ENDBRANCH  14  15
ENDBRANCH  12  14
ENDBRANCH   3  12
BRANCH   5  18
HETATM   18  N2  UNK     1      17.716   2.252  33.907  1.00  0.00    -0.392 N 
HETATM   19  H15 UNK     1      16.740   2.475  33.790  1.00  0.00     0.156 HD
HETATM   20  H16 UNK     1      18.040   2.218  34.868  1.00  0.00     0.156 HD
ENDBRANCH   5  18
TORSDOF 4
ENDMDL
MODEL 5
REMARK VINA RESULT:      -6.8      1.964      2.731
REMARK  4 active torsions:
REMARK  status: ('A' for Active; 'I' for Inactive)
REMARK    1  A    between atoms: C2_6  and  N1_3 
REMARK    2  A    between atoms: C3_7  and  N1_3 
REMARK    3  A    between atoms: C7_11  and  N2_4 
REMARK    4  A    between atoms: C1_5  and  C2_6 
ROOT
HETATM    1  O1  UNK     1      18.791   1.579  31.431  1.00  0.00    -0.273 OA
HETATM    2  O2  UNK     1      17.792   2.950  32.941  1.00  0.00    -0.257 OA
HETATM    3  C3  UNK     1      18.693  -0.502  33.351  1.00  0.00     0.074 A 
HETATM    4  C4  UNK     1      19.282  -0.735  32.015  1.00  0.00     0.027 A 
HETATM    5  C7  UNK     1      18.200   0.719  33.653  1.00  0.00     0.130 A 
HETATM    6  C8  UNK     1      19.309   0.317  31.101  1.00  0.00     0.092 A 
HETATM    7  C9  UNK     1      19.828  -1.959  31.590  1.00  0.00     0.017 A 
HETATM    8  C10 UNK     1      18.236   1.838  32.671  1.00  0.00     0.317 A 
HETATM    9  C11 UNK     1      19.846   0.188  29.817  1.00  0.00     0.038 A 
HETATM   10  C12 UNK     1      20.369  -2.105  30.307  1.00  0.00     0.001 A 
HETATM   11  C13 UNK     1      20.378  -1.032  29.421  1.00  0.00     0.003 A 
ENDROOT
BRANCH   3  12
HETATM   12  N1  UNK     1      18.668  -1.547  34.240  1.00  0.00    -0.387 N 
HETATM   13  H4  UNK     1      17.844  -2.133  34.260  1.00  0.00     0.159 HD
BRANCH  12  14
HETATM   14  C2  UNK     1      19.618  -1.693  35.307  1.00  0.00     0.123 C 
BRANCH  14  15
HETATM   15  C1  UNK     1      19.018  -2.426  36.514  1.00  0.00    -0.005 C 
HETATM   16  C5  UNK     1      20.080  -3.177  37.317  1.00  0.00     0.011 C 
HETATM   17  C6  UNK     1      18.223  -1.486  37.422  1.00  0.00     0.011 C 
ENDBRANCH  14  15
ENDBRANCH  12  14
ENDBRANCH   3  12
BRANCH   5  18
HETATM   18  N2  UNK     1      17.632   1.052  34.855  1.00  0.00    -0.392 N 
HETATM   19  H15 UNK     1      17.549   0.345  35.568  1.00  0.00     0.156 HD
HETATM   20  H16 UNK     1      17.791   1.994  35.196  1.00  0.00     0.156 HD
ENDBRANCH   5  18
TORSDOF 4
ENDMDL
MODEL 6
REMARK VINA RESULT:      -6.7      2.592      3.918
REMARK  4 active torsions:
REMARK  status: ('A' for Active; 'I' for Inactive)
REMARK    1  A    between atoms: C2_6  and  N1_3 
REMARK    2  A    between atoms: C3_7  and  N1_3 
REMARK    3  A    between atoms: C7_11  and  N2_4 
REMARK    4  A    between atoms: C1_5  and  C2_6 
ROOT
HETATM    1  O1  UNK     1      20.746  -2.346  31.839  1.00  0.00    -0.273 OA
HETATM    2  O2  UNK     1      20.698  -3.470  33.812  1.00  0.00    -0.257 OA
HETATM    3  C3  UNK     1      18.863  -0.519  32.906  1.00  0.00     0.074 A 
HETATM    4  C4  UNK     1      19.369  -0.360  31.526  1.00  0.00     0.027 A 
HETATM    5  C7  UNK     1      19.306  -1.550  33.659  1.00  0.00     0.130 A 
HETATM    6  C8  UNK     1      20.295  -1.282  31.042  1.00  0.00     0.092 A 
HETATM    7  C9  UNK     1      18.979   0.667  30.650  1.00  0.00     0.017 A 
HETATM    8  C10 UNK     1      20.294  -2.531  33.132  1.00  0.00     0.317 A 
HETATM    9  C11 UNK     1      20.827  -1.211  29.751  1.00  0.00     0.038 A 
HETATM   10  C12 UNK     1      19.502   0.753  29.354  1.00  0.00     0.001 A 
HETATM   11  C13 UNK     1      20.426  -0.186  28.905  1.00  0.00     0.003 A 
ENDROOT
BRANCH   3  12
HETATM   12  N1  UNK     1      17.955   0.398  33.373  1.00  0.00    -0.387 N 
HETATM   13  H4  UNK     1      17.069   0.474  32.894  1.00  0.00     0.159 HD
BRANCH  12  14
HETATM   14  C2  UNK     1      18.291   1.420  34.325  1.00  0.00     0.123 C 
BRANCH  14  15
HETATM   15  C1  UNK     1      17.321   1.438  35.514  1.00  0.00    -0.005 C 
HETATM   16  C5  UNK     1      16.208   0.400  35.364  1.00  0.00     0.011 C 
HETATM   17  C6  UNK     1      18.046   1.260  36.850  1.00  0.00     0.011 C 
ENDBRANCH  14  15
ENDBRANCH  12  14
ENDBRANCH   3  12
BRANCH   5  18
HETATM   18  N2  UNK     1      18.909  -1.797  34.948  1.00  0.00    -0.392 N 
HETATM   19  H15 UNK     1      19.248  -1.200  35.686  1.00  0.00     0.156 HD
HETATM   20  H16 UNK     1      17.972  -2.161  35.081  1.00  0.00     0.156 HD
ENDBRANCH   5  18
TORSDOF 4
ENDMDL
MODEL 7
REMARK VINA RESULT:      -6.7      2.184      4.246
REMARK  4 active torsions:
REMARK  status: ('A' for Active; 'I' for Inactive)
REMARK    1  A    between atoms: C2_6  and  N1_3 
REMARK    2  A    between atoms: C3_7  and  N1_3 
REMARK    3  A    between atoms: C7_11  and  N2_4 
REMARK    4  A    between atoms: C1_5  and  C2_6 
ROOT
HETATM    1  O1  UNK     1      19.302   2.920  29.577  1.00  0.00    -0.273 OA
HETATM    2  O2  UNK     1      19.593   0.701  29.185  1.00  0.00    -0.257 OA
HETATM    3  C3  UNK     1      18.219   2.266  32.111  1.00  0.00     0.074 A 
HETATM    4  C4  UNK     1      18.328   3.675  31.679  1.00  0.00     0.027 A 
HETATM    5  C7  UNK     1      18.639   1.285  31.283  1.00  0.00     0.130 A 
HETATM    6  C8  UNK     1      18.869   3.951  30.425  1.00  0.00     0.092 A 
HETATM    7  C9  UNK     1      17.922   4.777  32.451  1.00  0.00     0.017 A 
HETATM    8  C10 UNK     1      19.212   1.589  29.943  1.00  0.00     0.317 A 
HETATM    9  C11 UNK     1      19.011   5.252  29.934  1.00  0.00     0.038 A 
HETATM   10  C12 UNK     1      18.058   6.087  31.974  1.00  0.00     0.001 A 
HETATM   11  C13 UNK     1      18.602   6.324  30.716  1.00  0.00     0.003 A 
ENDROOT
BRANCH   3  12
HETATM   12  N1  UNK     1      17.690   2.007  33.351  1.00  0.00    -0.387 N 
HETATM   13  H4  UNK     1      16.694   2.124  33.475  1.00  0.00     0.159 HD
BRANCH  12  14
HETATM   14  C2  UNK     1      18.496   1.837  34.528  1.00  0.00     0.123 C 
BRANCH  14  15
HETATM   15  C1  UNK     1      17.834   0.899  35.546  1.00  0.00    -0.005 C 
HETATM   16  C5  UNK     1      17.635   1.573  36.904  1.00  0.00     0.011 C 
HETATM   17  C6  UNK     1      16.510   0.332  35.030  1.00  0.00     0.011 C 
ENDBRANCH  14  15
ENDBRANCH  12  14
ENDBRANCH   3  12
BRANCH   5  18
HETATM   18  N2  UNK     1      18.586  -0.054  31.574  1.00  0.00    -0.392 N 
HETATM   19  H15 UNK     1      19.253  -0.674  31.142  1.00  0.00     0.156 HD
HETATM   20  H16 UNK     1      18.300  -0.312  32.513  1.00  0.00     0.156 HD
ENDBRANCH   5  18
TORSDOF 4
ENDMDL
MODEL 8
REMARK VINA RESULT:      -6.6      6.327      7.600
REMARK  4 active torsions:
REMARK  status: ('A' for Active; 'I' for Inactive)
REMARK    1  A    between atoms: C2_6  and  N1_3 
REMARK    2  A    between atoms: C3_7  and  N1_3 
REMARK    3  A    between atoms: C7_11  and  N2_4 
REMARK    4  A    between atoms: C1_5  and  C2_6 
ROOT
HETATM    1  O1  UNK     1      16.622   6.783  30.976  1.00  0.00    -0.273 OA
HETATM    2  O2  UNK     1      14.649   7.375  31.934  1.00  0.00    -0.257 OA
HETATM    3  C3  UNK     1      17.819   6.863  33.542  1.00  0.00     0.074 A 
HETATM    4  C4  UNK     1      18.619   6.517  32.348  1.00  0.00     0.027 A 
HETATM    5  C7  UNK     1      16.505   7.146  33.401  1.00  0.00     0.130 A 
HETATM    6  C8  UNK     1      17.989   6.489  31.105  1.00  0.00     0.092 A 
HETATM    7  C9  UNK     1      19.990   6.209  32.371  1.00  0.00     0.017 A 
HETATM    8  C10 UNK     1      15.842   7.117  32.068  1.00  0.00     0.317 A 
HETATM    9  C11 UNK     1      18.664   6.172  29.923  1.00  0.00     0.038 A 
HETATM   10  C12 UNK     1      20.681   5.889  31.196  1.00  0.00     0.001 A 
HETATM   11  C13 UNK     1      20.019   5.871  29.973  1.00  0.00     0.003 A 
ENDROOT
BRANCH   3  12
HETATM   12  N1  UNK     1      18.450   6.883  34.761  1.00  0.00    -0.387 N 
HETATM   13  H4  UNK     1      18.356   6.071  35.356  1.00  0.00     0.159 HD
BRANCH  12  14
HETATM   14  C2  UNK     1      19.005   8.075  35.338  1.00  0.00     0.123 C 
BRANCH  14  15
HETATM   15  C1  UNK     1      19.446   9.080  34.265  1.00  0.00    -0.005 C 
HETATM   16  C5  UNK     1      18.439  10.218  34.094  1.00  0.00     0.011 C 
HETATM   17  C6  UNK     1      20.845   9.637  34.539  1.00  0.00     0.011 C 
ENDBRANCH  14  15
ENDBRANCH  12  14
ENDBRANCH   3  12
BRANCH   5  18
HETATM   18  N2  UNK     1      15.667   7.480  34.432  1.00  0.00    -0.392 N 
HETATM   19  H15 UNK     1      15.940   8.216  35.065  1.00  0.00     0.156 HD
HETATM   20  H16 UNK     1      14.670   7.405  34.261  1.00  0.00     0.156 HD
ENDBRANCH   5  18
TORSDOF 4
ENDMDL
MODEL 9
REMARK VINA RESULT:      -6.6     22.782     24.491
REMARK  4 active torsions:
REMARK  status: ('A' for Active; 'I' for Inactive)
REMARK    1  A    between atoms: C2_6  and  N1_3 
REMARK    2  A    between atoms: C3_7  and  N1_3 
REMARK    3  A    between atoms: C7_11  and  N2_4 
REMARK    4  A    between atoms: C1_5  and  C2_6 
ROOT
HETATM    1  O1  UNK     1      16.181   6.088   9.960  1.00  0.00    -0.273 OA
HETATM    2  O2  UNK     1      15.595   3.894   9.936  1.00  0.00    -0.257 OA
HETATM    3  C3  UNK     1      13.586   6.728   9.022  1.00  0.00     0.074 A 
HETATM    4  C4  UNK     1      14.581   7.792   9.271  1.00  0.00     0.027 A 
HETATM    5  C7  UNK     1      13.926   5.439   9.244  1.00  0.00     0.130 A 
HETATM    6  C8  UNK     1      15.846   7.432   9.734  1.00  0.00     0.092 A 
HETATM    7  C9  UNK     1      14.345   9.163   9.074  1.00  0.00     0.017 A 
HETATM    8  C10 UNK     1      15.280   5.063   9.734  1.00  0.00     0.317 A 
HETATM    9  C11 UNK     1      16.849   8.370   9.997  1.00  0.00     0.038 A 
HETATM   10  C12 UNK     1      15.338  10.115   9.332  1.00  0.00     0.001 A 
HETATM   11  C13 UNK     1      16.590   9.719   9.794  1.00  0.00     0.003 A 
ENDROOT
BRANCH   3  12
HETATM   12  N1  UNK     1      12.343   7.095   8.572  1.00  0.00    -0.387 N 
HETATM   13  H4  UNK     1      11.624   7.276   9.260  1.00  0.00     0.159 HD
BRANCH  12  14
HETATM   14  C2  UNK     1      11.941   6.983   7.198  1.00  0.00     0.123 C 
BRANCH  14  15
HETATM   15  C1  UNK     1      10.711   6.079   7.032  1.00  0.00    -0.005 C 
HETATM   16  C5  UNK     1       9.792   6.129   8.253  1.00  0.00     0.011 C 
HETATM   17  C6  UNK     1       9.929   6.402   5.757  1.00  0.00     0.011 C 
ENDBRANCH  14  15
ENDBRANCH  12  14
ENDBRANCH   3  12
BRANCH   5  18
HETATM   18  N2  UNK     1      13.089   4.370   9.048  1.00  0.00    -0.392 N 
HETATM   19  H15 UNK     1      12.099   4.536   8.959  1.00  0.00     0.156 HD
HETATM   20  H16 UNK     1      13.450   3.595   8.503  1.00  0.00     0.156 HD
ENDBRANCH   5  18
TORSDOF 4
ENDMDL
MODEL 10
REMARK VINA RESULT:      -6.5      3.431      6.402
REMARK  4 active torsions:
REMARK  status: ('A' for Active; 'I' for Inactive)
REMARK    1  A    between atoms: C2_6  and  N1_3 
REMARK    2  A    between atoms: C3_7  and  N1_3 
REMARK    3  A    between atoms: C7_11  and  N2_4 
REMARK    4  A    between atoms: C1_5  and  C2_6 
ROOT
HETATM    1  O1  UNK     1      19.298  -1.692  36.449  1.00  0.00    -0.273 OA
HETATM    2  O2  UNK     1      21.189  -2.856  35.972  1.00  0.00    -0.257 OA
HETATM    3  C3  UNK     1      18.902  -1.319  33.669  1.00  0.00     0.074 A 
HETATM    4  C4  UNK     1      17.947  -0.758  34.649  1.00  0.00     0.027 A 
HETATM    5  C7  UNK     1      19.974  -2.013  34.112  1.00  0.00     0.130 A 
HETATM    6  C8  UNK     1      18.180  -0.967  36.007  1.00  0.00     0.092 A 
HETATM    7  C9  UNK     1      16.802  -0.018  34.308  1.00  0.00     0.017 A 
HETATM    8  C10 UNK     1      20.217  -2.228  35.565  1.00  0.00     0.317 A 
HETATM    9  C11 UNK     1      17.332  -0.475  37.003  1.00  0.00     0.038 A 
HETATM   10  C12 UNK     1      15.942   0.482  35.294  1.00  0.00     0.001 A 
HETATM   11  C13 UNK     1      16.207   0.253  36.640  1.00  0.00     0.003 A 
ENDROOT
BRANCH   3  12
HETATM   12  N1  UNK     1      18.659  -1.111  32.334  1.00  0.00    -0.387 N 
HETATM   13  H4  UNK     1      18.255  -1.869  31.803  1.00  0.00     0.159 HD
BRANCH  12  14
HETATM   14  C2  UNK     1      19.182   0.012  31.608  1.00  0.00     0.123 C 
BRANCH  14  15
HETATM   15  C1  UNK     1      20.140  -0.423  30.490  1.00  0.00    -0.005 C 
HETATM   16  C5  UNK     1      20.062  -1.926  30.219  1.00  0.00     0.011 C 
HETATM   17  C6  UNK     1      19.915   0.368  29.200  1.00  0.00     0.011 C 
ENDBRANCH  14  15
ENDBRANCH  12  14
ENDBRANCH   3  12
BRANCH   5  18
HETATM   18  N2  UNK     1      20.924  -2.576  33.300  1.00  0.00    -0.392 N 
HETATM   19  H15 UNK     1      21.599  -3.207  33.703  1.00  0.00     0.156 HD
HETATM   20  H16 UNK     1      20.651  -2.787  32.346  1.00  0.00     0.156 HD
ENDBRANCH   5  18
TORSDOF 4
ENDMDL
