MODEL 1
REMARK VINA RESULT:      -7.6      0.000      0.000
REMARK  2 active torsions:
REMARK  status: ('A' for Active; 'I' for Inactive)
REMARK    1  A    between atoms: C10_14  and  O3_4 
REMARK    2  A    between atoms: C3_7  and  C5_9 
ROOT
HETATM    1  O1  UNK     1      18.817   9.117  33.940  1.00  0.00    -0.274 OA
HETATM    2  O2  UNK     1      20.179   7.371  33.423  1.00  0.00    -0.259 OA
HETATM    3  C1  UNK     1      16.733   7.825  32.515  1.00  0.00    -0.032 A 
HETATM    4  C2  UNK     1      16.506   9.131  33.169  1.00  0.00     0.007 A 
HETATM    5  C3  UNK     1      17.952   7.248  32.605  1.00  0.00     0.057 A 
HETATM    6  C4  UNK     1      17.556   9.730  33.859  1.00  0.00     0.090 A 
HETATM    7  C6  UNK     1      19.072   7.895  33.344  1.00  0.00     0.300 A 
HETATM    8  C7  UNK     1      15.283   9.818  33.142  1.00  0.00     0.051 A 
HETATM    9  C8  UNK     1      15.565   7.209  31.777  1.00  0.00     0.050 C 
HETATM   10  C9  UNK     1      17.425  10.963  34.505  1.00  0.00     0.041 A 
HETATM   11  C10 UNK     1      15.133  11.054  33.783  1.00  0.00     0.066 A 
HETATM   12  C13 UNK     1      16.204  11.626  34.464  1.00  0.00     0.039 A 
ENDROOT
BRANCH   5  13
HETATM   13  C5  UNK     1      18.214   5.957  31.973  1.00  0.00    -0.019 A 
HETATM   14  C11 UNK     1      18.759   5.912  30.693  1.00  0.00     0.014 A 
HETATM   15  C14 UNK     1      19.009   4.678  30.091  1.00  0.00     0.024 A 
HETATM   16  C16 UNK     1      18.714   3.496  30.772  1.00  0.00     0.034 A 
HETATM   17  C15 UNK     1      18.169   3.548  32.055  1.00  0.00     0.024 A 
HETATM   18 Cl1  UNK     1      19.023   1.975  30.029  1.00  0.00    -0.084 Cl
HETATM   19  C12 UNK     1      17.919   4.781  32.657  1.00  0.00     0.014 A 
ENDBRANCH   5  13
BRANCH  11  20
HETATM   20  O3  UNK     1      13.934  11.698  33.741  1.00  0.00    -0.361 OA
HETATM   21  H11 UNK     1      13.506  11.515  32.886  1.00  0.00     0.217 HD
ENDBRANCH  11  20
TORSDOF 2
ENDMDL
MODEL 2
REMARK VINA RESULT:      -7.6      3.886      7.973
REMARK  2 active torsions:
REMARK  status: ('A' for Active; 'I' for Inactive)
REMARK    1  A    between atoms: C10_14  and  O3_4 
REMARK    2  A    between atoms: C3_7  and  C5_9 
ROOT
HETATM    1  O1  UNK     1      18.601   1.364  33.108  1.00  0.00    -0.274 OA
HETATM    2  O2  UNK     1      18.072   3.053  34.536  1.00  0.00    -0.259 OA
HETATM    3  C1  UNK     1      18.777   3.276  31.021  1.00  0.00    -0.032 A 
HETATM    4  C2  UNK     1      19.028   1.843  30.758  1.00  0.00     0.007 A 
HETATM    5  C3  UNK     1      18.462   3.668  32.274  1.00  0.00     0.057 A 
HETATM    6  C4  UNK     1      18.931   0.938  31.811  1.00  0.00     0.090 A 
HETATM    7  C6  UNK     1      18.359   2.695  33.398  1.00  0.00     0.300 A 
HETATM    8  C7  UNK     1      19.363   1.325  29.497  1.00  0.00     0.051 A 
HETATM    9  C8  UNK     1      18.893   4.224  29.849  1.00  0.00     0.050 C 
HETATM   10  C9  UNK     1      19.153  -0.432  31.648  1.00  0.00     0.041 A 
HETATM   11  C10 UNK     1      19.589  -0.045  29.315  1.00  0.00     0.066 A 
HETATM   12  C13 UNK     1      19.484  -0.923  30.390  1.00  0.00     0.039 A 
ENDROOT
BRANCH   5  13
HETATM   13  C5  UNK     1      18.209   5.076  32.574  1.00  0.00    -0.019 A 
HETATM   14  C11 UNK     1      16.943   5.612  32.359  1.00  0.00     0.014 A 
HETATM   15  C14 UNK     1      16.702   6.956  32.645  1.00  0.00     0.024 A 
HETATM   16  C16 UNK     1      17.729   7.758  33.146  1.00  0.00     0.034 A 
HETATM   17  C15 UNK     1      18.996   7.214  33.361  1.00  0.00     0.024 A 
HETATM   18 Cl1  UNK     1      17.432   9.416  33.499  1.00  0.00    -0.084 Cl
HETATM   19  C12 UNK     1      19.236   5.871  33.074  1.00  0.00     0.014 A 
ENDBRANCH   5  13
BRANCH  11  20
HETATM   20  O3  UNK     1      19.914  -0.518  28.080  1.00  0.00    -0.361 OA
HETATM   21  H11 UNK     1      19.108  -0.569  27.537  1.00  0.00     0.217 HD
ENDBRANCH  11  20
TORSDOF 2
ENDMDL
MODEL 3
REMARK VINA RESULT:      -7.3      3.548      7.436
REMARK  2 active torsions:
REMARK  status: ('A' for Active; 'I' for Inactive)
REMARK    1  A    between atoms: C10_14  and  O3_4 
REMARK    2  A    between atoms: C3_7  and  C5_9 
ROOT
HETATM    1  O1  UNK     1      18.956   3.853  29.656  1.00  0.00    -0.274 OA
HETATM    2  O2  UNK     1      18.738   6.116  29.585  1.00  0.00    -0.259 OA
HETATM    3  C1  UNK     1      18.382   3.954  32.432  1.00  0.00    -0.032 A 
HETATM    4  C2  UNK     1      18.650   2.664  31.760  1.00  0.00     0.007 A 
HETATM    5  C3  UNK     1      18.412   5.092  31.704  1.00  0.00     0.057 A 
HETATM    6  C4  UNK     1      18.928   2.660  30.396  1.00  0.00     0.090 A 
HETATM    7  C6  UNK     1      18.710   5.081  30.245  1.00  0.00     0.300 A 
HETATM    8  C7  UNK     1      18.644   1.423  32.415  1.00  0.00     0.051 A 
HETATM    9  C8  UNK     1      18.085   3.912  33.914  1.00  0.00     0.050 C 
HETATM   10  C9  UNK     1      19.192   1.486  29.686  1.00  0.00     0.041 A 
HETATM   11  C10 UNK     1      18.906   0.236  31.721  1.00  0.00     0.066 A 
HETATM   12  C13 UNK     1      19.180   0.268  30.356  1.00  0.00     0.039 A 
ENDROOT
BRANCH   5  13
HETATM   13  C5  UNK     1      18.150   6.385  32.332  1.00  0.00    -0.019 A 
HETATM   14  C11 UNK     1      19.179   7.058  32.984  1.00  0.00     0.014 A 
HETATM   15  C14 UNK     1      18.928   8.292  33.583  1.00  0.00     0.024 A 
HETATM   16  C16 UNK     1      17.650   8.849  33.527  1.00  0.00     0.034 A 
HETATM   17  C15 UNK     1      16.622   8.170  32.870  1.00  0.00     0.024 A 
HETATM   18 Cl1  UNK     1      17.341  10.372  34.266  1.00  0.00    -0.084 Cl
HETATM   19  C12 UNK     1      16.873   6.936  32.272  1.00  0.00     0.014 A 
ENDBRANCH   5  13
BRANCH  11  20
HETATM   20  O3  UNK     1      18.892  -0.953  32.383  1.00  0.00    -0.361 OA
HETATM   21  H11 UNK     1      18.097  -1.451  32.124  1.00  0.00     0.217 HD
ENDBRANCH  11  20
TORSDOF 2
ENDMDL
MODEL 4
REMARK VINA RESULT:      -7.3      2.541      4.355
REMARK  2 active torsions:
REMARK  status: ('A' for Active; 'I' for Inactive)
REMARK    1  A    between atoms: C10_14  and  O3_4 
REMARK    2  A    between atoms: C3_7  and  C5_9 
ROOT
HETATM    1  O1  UNK     1      17.689   4.067  33.989  1.00  0.00    -0.274 OA
HETATM    2  O2  UNK     1      17.733   1.893  33.324  1.00  0.00    -0.259 OA
HETATM    3  C1  UNK     1      18.539   4.808  31.386  1.00  0.00    -0.032 A 
HETATM    4  C2  UNK     1      18.296   5.833  32.424  1.00  0.00     0.007 A 
HETATM    5  C3  UNK     1      18.349   3.506  31.693  1.00  0.00     0.057 A 
HETATM    6  C4  UNK     1      17.880   5.426  33.689  1.00  0.00     0.090 A 
HETATM    7  C6  UNK     1      17.904   3.076  33.047  1.00  0.00     0.300 A 
HETATM    8  C7  UNK     1      18.460   7.211  32.218  1.00  0.00     0.051 A 
HETATM    9  C8  UNK     1      18.990   5.295  30.028  1.00  0.00     0.050 C 
HETATM   10  C9  UNK     1      17.629   6.329  34.725  1.00  0.00     0.041 A 
HETATM   11  C10 UNK     1      18.213   8.132  33.244  1.00  0.00     0.066 A 
HETATM   12  C13 UNK     1      17.798   7.691  34.497  1.00  0.00     0.039 A 
ENDROOT
BRANCH   5  13
HETATM   13  C5  UNK     1      18.577   2.465  30.693  1.00  0.00    -0.019 A 
HETATM   14  C11 UNK     1      19.532   1.480  30.926  1.00  0.00     0.014 A 
HETATM   15  C14 UNK     1      19.749   0.486  29.971  1.00  0.00     0.024 A 
HETATM   16  C16 UNK     1      19.008   0.481  28.789  1.00  0.00     0.034 A 
HETATM   17  C15 UNK     1      18.051   1.470  28.561  1.00  0.00     0.024 A 
HETATM   18 Cl1  UNK     1      19.275  -0.745  27.611  1.00  0.00    -0.084 Cl
HETATM   19  C12 UNK     1      17.835   2.464  29.515  1.00  0.00     0.014 A 
ENDBRANCH   5  13
BRANCH  11  20
HETATM   20  O3  UNK     1      18.379   9.463  33.013  1.00  0.00    -0.361 OA
HETATM   21  H11 UNK     1      17.826   9.965  33.637  1.00  0.00     0.217 HD
ENDBRANCH  11  20
TORSDOF 2
ENDMDL
MODEL 5
REMARK VINA RESULT:      -7.2      3.533      6.798
REMARK  2 active torsions:
REMARK  status: ('A' for Active; 'I' for Inactive)
REMARK    1  A    between atoms: C10_14  and  O3_4 
REMARK    2  A    between atoms: C3_7  and  C5_9 
ROOT
HETATM    1  O1  UNK     1      17.726   7.044  30.796  1.00  0.00    -0.274 OA
HETATM    2  O2  UNK     1      15.744   8.120  31.088  1.00  0.00    -0.259 OA
HETATM    3  C1  UNK     1      18.542   8.001  33.338  1.00  0.00    -0.032 A 
HETATM    4  C2  UNK     1      19.440   7.154  32.524  1.00  0.00     0.007 A 
HETATM    5  C3  UNK     1      17.320   8.315  32.856  1.00  0.00     0.057 A 
HETATM    6  C4  UNK     1      19.000   6.706  31.282  1.00  0.00     0.090 A 
HETATM    7  C6  UNK     1      16.854   7.833  31.526  1.00  0.00     0.300 A 
HETATM    8  C7  UNK     1      20.727   6.766  32.926  1.00  0.00     0.051 A 
HETATM    9  C8  UNK     1      19.060   8.466  34.680  1.00  0.00     0.050 C 
HETATM   10  C9  UNK     1      19.785   5.902  30.451  1.00  0.00     0.041 A 
HETATM   11  C10 UNK     1      21.529   5.961  32.107  1.00  0.00     0.066 A 
HETATM   12  C13 UNK     1      21.058   5.530  30.870  1.00  0.00     0.039 A 
ENDROOT
BRANCH   5  13
HETATM   13  C5  UNK     1      16.403   9.147  33.632  1.00  0.00    -0.019 A 
HETATM   14  C11 UNK     1      15.222   8.601  34.125  1.00  0.00     0.014 A 
HETATM   15  C14 UNK     1      14.348   9.396  34.866  1.00  0.00     0.024 A 
HETATM   16  C16 UNK     1      14.658  10.734  35.111  1.00  0.00     0.034 A 
HETATM   17  C15 UNK     1      15.845  11.277  34.615  1.00  0.00     0.024 A 
HETATM   18 Cl1  UNK     1      13.580  11.715  36.025  1.00  0.00    -0.084 Cl
HETATM   19  C12 UNK     1      16.719  10.481  33.874  1.00  0.00     0.014 A 
ENDBRANCH   5  13
BRANCH  11  20
HETATM   20  O3  UNK     1      22.773   5.599  32.523  1.00  0.00    -0.361 OA
HETATM   21  H11 UNK     1      23.154   4.975  31.881  1.00  0.00     0.217 HD
ENDBRANCH  11  20
TORSDOF 2
ENDMDL
MODEL 6
REMARK VINA RESULT:      -7.2      1.721      2.913
REMARK  2 active torsions:
REMARK  status: ('A' for Active; 'I' for Inactive)
REMARK    1  A    between atoms: C10_14  and  O3_4 
REMARK    2  A    between atoms: C3_7  and  C5_9 
ROOT
HETATM    1  O1  UNK     1      15.753   9.610  32.801  1.00  0.00    -0.274 OA
HETATM    2  O2  UNK     1      15.309   7.670  31.700  1.00  0.00    -0.259 OA
HETATM    3  C1  UNK     1      18.360   8.631  33.336  1.00  0.00    -0.032 A 
HETATM    4  C2  UNK     1      17.940   9.965  33.813  1.00  0.00     0.007 A 
HETATM    5  C3  UNK     1      17.483   7.878  32.636  1.00  0.00     0.057 A 
HETATM    6  C4  UNK     1      16.651  10.408  33.529  1.00  0.00     0.090 A 
HETATM    7  C6  UNK     1      16.105   8.356  32.335  1.00  0.00     0.300 A 
HETATM    8  C7  UNK     1      18.766  10.831  34.546  1.00  0.00     0.051 A 
HETATM    9  C8  UNK     1      19.768   8.191  33.667  1.00  0.00     0.050 C 
HETATM   10  C9  UNK     1      16.175  11.655  33.943  1.00  0.00     0.041 A 
HETATM   11  C10 UNK     1      18.307  12.084  34.970  1.00  0.00     0.066 A 
HETATM   12  C13 UNK     1      17.012  12.496  34.669  1.00  0.00     0.039 A 
ENDROOT
BRANCH   5  13
HETATM   13  C5  UNK     1      17.862   6.555  32.145  1.00  0.00    -0.019 A 
HETATM   14  C11 UNK     1      17.623   5.432  32.931  1.00  0.00     0.014 A 
HETATM   15  C14 UNK     1      17.985   4.169  32.462  1.00  0.00     0.024 A 
HETATM   16  C16 UNK     1      18.585   4.035  31.209  1.00  0.00     0.034 A 
HETATM   17  C15 UNK     1      18.822   5.165  30.425  1.00  0.00     0.024 A 
HETATM   18 Cl1  UNK     1      19.032   2.477  30.630  1.00  0.00    -0.084 Cl
HETATM   19  C12 UNK     1      18.459   6.427  30.894  1.00  0.00     0.014 A 
ENDBRANCH   5  13
BRANCH  11  20
HETATM   20  O3  UNK     1      19.132  12.903  35.679  1.00  0.00    -0.361 OA
HETATM   21  H11 UNK     1      18.599  13.429  36.301  1.00  0.00     0.217 HD
ENDBRANCH  11  20
TORSDOF 2
ENDMDL
MODEL 7
REMARK VINA RESULT:      -7.2     23.603     25.197
REMARK  2 active torsions:
REMARK  status: ('A' for Active; 'I' for Inactive)
REMARK    1  A    between atoms: C10_14  and  O3_4 
REMARK    2  A    between atoms: C3_7  and  C5_9 
ROOT
HETATM    1  O1  UNK     1      11.723   6.473   6.743  1.00  0.00    -0.274 OA
HETATM    2  O2  UNK     1      13.969   6.790   6.579  1.00  0.00    -0.259 OA
HETATM    3  C1  UNK     1      11.698   8.271   8.936  1.00  0.00    -0.032 A 
HETATM    4  C2  UNK     1      10.450   7.634   8.466  1.00  0.00     0.007 A 
HETATM    5  C3  UNK     1      12.859   7.987   8.305  1.00  0.00     0.057 A 
HETATM    6  C4  UNK     1      10.507   6.757   7.386  1.00  0.00     0.090 A 
HETATM    7  C6  UNK     1      12.914   7.048   7.150  1.00  0.00     0.300 A 
HETATM    8  C7  UNK     1       9.191   7.856   9.044  1.00  0.00     0.051 A 
HETATM    9  C8  UNK     1      11.591   9.216  10.112  1.00  0.00     0.050 C 
HETATM   10  C9  UNK     1       9.374   6.113   6.880  1.00  0.00     0.041 A 
HETATM   11  C10 UNK     1       8.045   7.220   8.550  1.00  0.00     0.066 A 
HETATM   12  C13 UNK     1       8.137   6.349   7.469  1.00  0.00     0.039 A 
ENDROOT
BRANCH   5  13
HETATM   13  C5  UNK     1      14.113   8.599   8.740  1.00  0.00    -0.019 A 
HETATM   14  C11 UNK     1      14.896   7.964   9.698  1.00  0.00     0.014 A 
HETATM   15  C14 UNK     1      16.093   8.549  10.112  1.00  0.00     0.024 A 
HETATM   16  C16 UNK     1      16.501   9.766   9.565  1.00  0.00     0.034 A 
HETATM   17  C15 UNK     1      15.712  10.397   8.603  1.00  0.00     0.024 A 
HETATM   18 Cl1  UNK     1      17.978  10.487  10.076  1.00  0.00    -0.084 Cl
HETATM   19  C12 UNK     1      14.516   9.813   8.190  1.00  0.00     0.014 A 
ENDBRANCH   5  13
BRANCH  11  20
HETATM   20  O3  UNK     1       6.837   7.457   9.131  1.00  0.00    -0.361 OA
HETATM   21  H11 UNK     1       6.914   8.225   9.723  1.00  0.00     0.217 HD
ENDBRANCH  11  20
TORSDOF 2
ENDMDL
MODEL 8
REMARK VINA RESULT:      -7.1      6.810      9.693
REMARK  2 active torsions:
REMARK  status: ('A' for Active; 'I' for Inactive)
REMARK    1  A    between atoms: C10_14  and  O3_4 
REMARK    2  A    between atoms: C3_7  and  C5_9 
ROOT
HETATM    1  O1  UNK     1      18.725   1.639  30.980  1.00  0.00    -0.274 OA
HETATM    2  O2  UNK     1      17.839   2.976  32.593  1.00  0.00    -0.259 OA
HETATM    3  C1  UNK     1      19.068  -0.383  32.938  1.00  0.00    -0.032 A 
HETATM    4  C2  UNK     1      19.474  -0.611  31.536  1.00  0.00     0.007 A 
HETATM    5  C3  UNK     1      18.526   0.807  33.280  1.00  0.00     0.057 A 
HETATM    6  C4  UNK     1      19.288   0.409  30.606  1.00  0.00     0.090 A 
HETATM    7  C6  UNK     1      18.330   1.895  32.281  1.00  0.00     0.300 A 
HETATM    8  C7  UNK     1      20.045  -1.806  31.070  1.00  0.00     0.051 A 
HETATM    9  C8  UNK     1      19.287  -1.516  33.914  1.00  0.00     0.050 C 
HETATM   10  C9  UNK     1      19.645   0.275  29.261  1.00  0.00     0.041 A 
HETATM   11  C10 UNK     1      20.408  -1.959  29.726  1.00  0.00     0.066 A 
HETATM   12  C13 UNK     1      20.209  -0.918  28.822  1.00  0.00     0.039 A 
ENDROOT
BRANCH   5  13
HETATM   13  C5  UNK     1      18.110   1.069  34.656  1.00  0.00    -0.019 A 
HETATM   14  C11 UNK     1      16.873   0.614  35.102  1.00  0.00     0.014 A 
HETATM   15  C14 UNK     1      16.476   0.865  36.416  1.00  0.00     0.024 A 
HETATM   16  C16 UNK     1      17.318   1.569  37.277  1.00  0.00     0.034 A 
HETATM   17  C15 UNK     1      18.558   2.022  36.824  1.00  0.00     0.024 A 
HETATM   18 Cl1  UNK     1      16.828   1.878  38.898  1.00  0.00    -0.084 Cl
HETATM   19  C12 UNK     1      18.954   1.771  35.511  1.00  0.00     0.014 A 
ENDBRANCH   5  13
BRANCH  11  20
HETATM   20  O3  UNK     1      20.959  -3.130  29.303  1.00  0.00    -0.361 OA
HETATM   21  H11 UNK     1      20.437  -3.871  29.655  1.00  0.00     0.217 HD
ENDBRANCH  11  20
TORSDOF 2
ENDMDL
MODEL 9
REMARK VINA RESULT:      -7.0     23.943     25.613
REMARK  2 active torsions:
REMARK  status: ('A' for Active; 'I' for Inactive)
REMARK    1  A    between atoms: C10_14  and  O3_4 
REMARK    2  A    between atoms: C3_7  and  C5_9 
ROOT
HETATM    1  O1  UNK     1       9.610   6.840   7.197  1.00  0.00    -0.274 OA
HETATM    2  O2  UNK     1       7.379   6.775   7.636  1.00  0.00    -0.259 OA
HETATM    3  C1  UNK     1      10.025   5.118   9.412  1.00  0.00    -0.032 A 
HETATM    4  C2  UNK     1      11.164   5.595   8.600  1.00  0.00     0.007 A 
HETATM    5  C3  UNK     1       8.775   5.513   9.086  1.00  0.00     0.057 A 
HETATM    6  C4  UNK     1      10.916   6.439   7.521  1.00  0.00     0.090 A 
HETATM    7  C6  UNK     1       8.515   6.417   7.930  1.00  0.00     0.300 A 
HETATM    8  C7  UNK     1      12.502   5.248   8.846  1.00  0.00     0.051 A 
HETATM    9  C8  UNK     1      10.340   4.203  10.574  1.00  0.00     0.050 C 
HETATM   10  C9  UNK     1      11.935   6.934   6.703  1.00  0.00     0.041 A 
HETATM   11  C10 UNK     1      13.537   5.734   8.037  1.00  0.00     0.066 A 
HETATM   12  C13 UNK     1      13.253   6.577   6.966  1.00  0.00     0.039 A 
ENDROOT
BRANCH   5  13
HETATM   13  C5  UNK     1       7.624   5.061   9.863  1.00  0.00    -0.019 A 
HETATM   14  C11 UNK     1       7.120   5.863  10.883  1.00  0.00     0.014 A 
HETATM   15  C14 UNK     1       6.021   5.431  11.625  1.00  0.00     0.024 A 
HETATM   16  C16 UNK     1       5.429   4.199  11.344  1.00  0.00     0.034 A 
HETATM   17  C15 UNK     1       5.938   3.399  10.320  1.00  0.00     0.024 A 
HETATM   18 Cl1  UNK     1       4.073   3.666  12.259  1.00  0.00    -0.084 Cl
HETATM   19  C12 UNK     1       7.037   3.831   9.578  1.00  0.00     0.014 A 
ENDBRANCH   5  13
BRANCH  11  20
HETATM   20  O3  UNK     1      14.825   5.380   8.300  1.00  0.00    -0.361 OA
HETATM   21  H11 UNK     1      15.030   5.595   9.227  1.00  0.00     0.217 HD
ENDBRANCH  11  20
TORSDOF 2
ENDMDL
MODEL 10
REMARK VINA RESULT:      -7.0      3.645      6.853
REMARK  2 active torsions:
REMARK  status: ('A' for Active; 'I' for Inactive)
REMARK    1  A    between atoms: C10_14  and  O3_4 
REMARK    2  A    between atoms: C3_7  and  C5_9 
ROOT
HETATM    1  O1  UNK     1      18.478   9.066  33.532  1.00  0.00    -0.274 OA
HETATM    2  O2  UNK     1      17.666  11.073  34.230  1.00  0.00    -0.259 OA
HETATM    3  C1  UNK     1      15.807   8.136  33.322  1.00  0.00    -0.032 A 
HETATM    4  C2  UNK     1      16.944   7.254  32.986  1.00  0.00     0.007 A 
HETATM    5  C3  UNK     1      16.054   9.399  33.733  1.00  0.00     0.057 A 
HETATM    6  C4  UNK     1      18.239   7.751  33.103  1.00  0.00     0.090 A 
HETATM    7  C6  UNK     1      17.443   9.926  33.856  1.00  0.00     0.300 A 
HETATM    8  C7  UNK     1      16.804   5.927  32.550  1.00  0.00     0.051 A 
HETATM    9  C8  UNK     1      14.418   7.556  33.181  1.00  0.00     0.050 C 
HETATM   10  C9  UNK     1      19.369   6.983  32.806  1.00  0.00     0.041 A 
HETATM   11  C10 UNK     1      17.924   5.143  32.247  1.00  0.00     0.066 A 
HETATM   12  C13 UNK     1      19.206   5.671  32.375  1.00  0.00     0.039 A 
ENDROOT
BRANCH   5  13
HETATM   13  C5  UNK     1      14.957  10.302  34.071  1.00  0.00    -0.019 A 
HETATM   14  C11 UNK     1      14.600  10.487  35.404  1.00  0.00     0.014 A 
HETATM   15  C14 UNK     1      13.551  11.349  35.727  1.00  0.00     0.024 A 
HETATM   16  C16 UNK     1      12.865  12.022  34.716  1.00  0.00     0.034 A 
HETATM   17  C15 UNK     1      13.228  11.834  33.381  1.00  0.00     0.024 A 
HETATM   18 Cl1  UNK     1      11.572  13.086  35.114  1.00  0.00    -0.084 Cl
HETATM   19  C12 UNK     1      14.276  10.973  33.059  1.00  0.00     0.014 A 
ENDBRANCH   5  13
BRANCH  11  20
HETATM   20  O3  UNK     1      17.757   3.860  31.825  1.00  0.00    -0.361 OA
HETATM   21  H11 UNK     1      17.081   3.429  32.376  1.00  0.00     0.217 HD
ENDBRANCH  11  20
TORSDOF 2
ENDMDL
