MODEL 1
REMARK VINA RESULT:      -8.5      0.000      0.000
REMARK  3 active torsions:
REMARK  status: ('A' for Active; 'I' for Inactive)
REMARK    1  A    between atoms: C3_9  and  N1_6 
REMARK       I    between atoms: C7_13  and  N1_6 
REMARK    2  A    between atoms: C1_7  and  C3_9 
REMARK    3  A    between atoms: C7_13  and  C8_14 
ROOT
HETATM    1 Cl1  UNK     1      20.923  -3.084  31.839  1.00  0.00    -0.084 Cl
HETATM    2  O3  UNK     1      19.015   1.481  28.630  1.00  0.00    -0.274 OA
HETATM    3  O4  UNK     1      18.223   3.620  28.497  1.00  0.00    -0.259 OA
HETATM    4  C8  UNK     1      18.688   2.792  30.668  1.00  0.00     0.108 A 
HETATM    5  C9  UNK     1      19.116   1.774  31.424  1.00  0.00     0.037 A 
HETATM    6  C10 UNK     1      19.527   0.523  30.805  1.00  0.00     0.001 A 
HETATM    7  C11 UNK     1      18.615   2.691  29.193  1.00  0.00     0.304 A 
HETATM    8  C12 UNK     1      19.467   0.406  29.419  1.00  0.00     0.089 A 
HETATM    9  C13 UNK     1      19.981  -0.565  31.554  1.00  0.00     0.038 A 
HETATM   10  C14 UNK     1      19.847  -0.764  28.765  1.00  0.00     0.040 A 
HETATM   11  C15 UNK     1      20.365  -1.745  30.911  1.00  0.00     0.035 A 
HETATM   12  C16 UNK     1      20.297  -1.844  29.520  1.00  0.00     0.026 A 
ENDROOT
BRANCH   4  13
HETATM   13  C7  UNK     1      18.294   4.012  31.385  1.00  0.00     0.258 C 
HETATM   14  O2  UNK     1      17.519   3.961  32.338  1.00  0.00    -0.267 OA
HETATM   15  N1  UNK     1      18.881   5.153  30.868  1.00  0.00    -0.350 N 
HETATM   16  H12 UNK     1      19.531   5.082  30.091  1.00  0.00     0.163 HD
BRANCH  15  17
HETATM   17  C3  UNK     1      18.644   6.473  31.406  1.00  0.00     0.109 C 
HETATM   18  C6  UNK     1      17.219   6.917  31.101  1.00  0.00     0.035 C 
BRANCH  17  19
HETATM   19  C1  UNK     1      18.923   6.501  32.896  1.00  0.00     0.143 C 
HETATM   20  O1  UNK     1      20.123   7.249  33.155  1.00  0.00    -0.384 OA
HETATM   21  C5  UNK     1      19.906   8.067  34.314  1.00  0.00     0.168 C 
HETATM   22  C4  UNK     1      18.588   7.635  34.920  1.00  0.00     0.029 C 
HETATM   23  C2  UNK     1      17.825   7.170  33.705  1.00  0.00     0.036 C 
ENDBRANCH  17  19
ENDBRANCH  15  17
ENDBRANCH   4  13
TORSDOF 3
ENDMDL
MODEL 2
REMARK VINA RESULT:      -8.5     22.023     24.064
REMARK  3 active torsions:
REMARK  status: ('A' for Active; 'I' for Inactive)
REMARK    1  A    between atoms: C3_9  and  N1_6 
REMARK       I    between atoms: C7_13  and  N1_6 
REMARK    2  A    between atoms: C1_7  and  C3_9 
REMARK    3  A    between atoms: C7_13  and  C8_14 
ROOT
HETATM    1 Cl1  UNK     1      18.053  10.638   9.329  1.00  0.00    -0.084 Cl
HETATM    2  O3  UNK     1      14.212   6.284  10.365  1.00  0.00    -0.274 OA
HETATM    3  O4  UNK     1      12.100   5.426  10.223  1.00  0.00    -0.259 OA
HETATM    4  C8  UNK     1      12.433   7.586   9.308  1.00  0.00     0.108 A 
HETATM    5  C9  UNK     1      13.280   8.592   9.059  1.00  0.00     0.037 A 
HETATM    6  C10 UNK     1      14.675   8.493   9.460  1.00  0.00     0.001 A 
HETATM    7  C11 UNK     1      12.872   6.349   9.992  1.00  0.00     0.304 A 
HETATM    8  C12 UNK     1      15.109   7.338  10.105  1.00  0.00     0.089 A 
HETATM    9  C13 UNK     1      15.593   9.517   9.220  1.00  0.00     0.038 A 
HETATM   10  C14 UNK     1      16.432   7.180  10.514  1.00  0.00     0.040 A 
HETATM   11  C15 UNK     1      16.923   9.373   9.626  1.00  0.00     0.035 A 
HETATM   12  C16 UNK     1      17.341   8.207  10.272  1.00  0.00     0.026 A 
ENDROOT
BRANCH   4  13
HETATM   13  C7  UNK     1      11.046   7.780   8.866  1.00  0.00     0.258 C 
HETATM   14  O2  UNK     1      10.413   8.781   9.196  1.00  0.00    -0.267 OA
HETATM   15  N1  UNK     1      10.583   6.744   8.076  1.00  0.00    -0.350 N 
HETATM   16  H12 UNK     1      11.199   5.972   7.838  1.00  0.00     0.163 HD
BRANCH  15  17
HETATM   17  C3  UNK     1       9.248   6.710   7.523  1.00  0.00     0.109 C 
HETATM   18  C6  UNK     1       9.296   6.288   6.060  1.00  0.00     0.035 C 
BRANCH  17  19
HETATM   19  C1  UNK     1       8.358   5.789   8.333  1.00  0.00     0.143 C 
HETATM   20  O1  UNK     1       9.151   4.756   8.943  1.00  0.00    -0.384 OA
HETATM   21  C5  UNK     1       8.680   4.555  10.285  1.00  0.00     0.168 C 
HETATM   22  C4  UNK     1       7.399   5.349  10.426  1.00  0.00     0.029 C 
HETATM   23  C2  UNK     1       7.631   6.490   9.468  1.00  0.00     0.036 C 
ENDBRANCH  17  19
ENDBRANCH  15  17
ENDBRANCH   4  13
TORSDOF 3
ENDMDL
MODEL 3
REMARK VINA RESULT:      -8.4      2.980      3.601
REMARK  3 active torsions:
REMARK  status: ('A' for Active; 'I' for Inactive)
REMARK    1  A    between atoms: C3_9  and  N1_6 
REMARK       I    between atoms: C7_13  and  N1_6 
REMARK    2  A    between atoms: C1_7  and  C3_9 
REMARK    3  A    between atoms: C7_13  and  C8_14 
ROOT
HETATM    1 Cl1  UNK     1      17.896   0.017  37.939  1.00  0.00    -0.084 Cl
HETATM    2  O3  UNK     1      18.671   0.454  32.109  1.00  0.00    -0.274 OA
HETATM    3  O4  UNK     1      18.777   1.721  30.211  1.00  0.00    -0.259 OA
HETATM    4  C8  UNK     1      18.338   2.873  32.235  1.00  0.00     0.108 A 
HETATM    5  C9  UNK     1      18.158   2.807  33.559  1.00  0.00     0.037 A 
HETATM    6  C10 UNK     1      18.226   1.526  34.246  1.00  0.00     0.001 A 
HETATM    7  C11 UNK     1      18.611   1.665  31.424  1.00  0.00     0.304 A 
HETATM    8  C12 UNK     1      18.482   0.377  33.502  1.00  0.00     0.089 A 
HETATM    9  C13 UNK     1      18.045   1.410  35.626  1.00  0.00     0.038 A 
HETATM   10  C14 UNK     1      18.562  -0.880  34.099  1.00  0.00     0.040 A 
HETATM   11  C15 UNK     1      18.121   0.156  36.237  1.00  0.00     0.035 A 
HETATM   12  C16 UNK     1      18.379  -0.986  35.476  1.00  0.00     0.026 A 
ENDROOT
BRANCH   4  13
HETATM   13  C7  UNK     1      18.249   4.210  31.633  1.00  0.00     0.258 C 
HETATM   14  O2  UNK     1      18.824   4.466  30.578  1.00  0.00    -0.267 OA
HETATM   15  N1  UNK     1      17.476   5.083  32.376  1.00  0.00    -0.350 N 
HETATM   16  H12 UNK     1      17.020   4.762  33.225  1.00  0.00     0.163 HD
BRANCH  15  17
HETATM   17  C3  UNK     1      17.242   6.455  31.987  1.00  0.00     0.109 C 
HETATM   18  C6  UNK     1      15.846   6.892  32.413  1.00  0.00     0.035 C 
BRANCH  17  19
HETATM   19  C1  UNK     1      18.305   7.365  32.571  1.00  0.00     0.143 C 
HETATM   20  O1  UNK     1      17.773   8.689  32.745  1.00  0.00    -0.384 OA
HETATM   21  C5  UNK     1      18.232   9.201  34.006  1.00  0.00     0.168 C 
HETATM   22  C4  UNK     1      19.271   8.229  34.524  1.00  0.00     0.029 C 
HETATM   23  C2  UNK     1      18.796   6.923  33.940  1.00  0.00     0.036 C 
ENDBRANCH  17  19
ENDBRANCH  15  17
ENDBRANCH   4  13
TORSDOF 3
ENDMDL
MODEL 4
REMARK VINA RESULT:      -8.3      5.622      8.817
REMARK  3 active torsions:
REMARK  status: ('A' for Active; 'I' for Inactive)
REMARK    1  A    between atoms: C3_9  and  N1_6 
REMARK       I    between atoms: C7_13  and  N1_6 
REMARK    2  A    between atoms: C1_7  and  C3_9 
REMARK    3  A    between atoms: C7_13  and  C8_14 
ROOT
HETATM    1 Cl1  UNK     1      18.345   2.332  29.024  1.00  0.00    -0.084 Cl
HETATM    2  O3  UNK     1      20.804  -2.800  30.572  1.00  0.00    -0.274 OA
HETATM    3  O4  UNK     1      21.538  -4.242  32.185  1.00  0.00    -0.259 OA
HETATM    4  C8  UNK     1      20.607  -2.196  32.933  1.00  0.00     0.108 A 
HETATM    5  C9  UNK     1      20.047  -1.023  32.614  1.00  0.00     0.037 A 
HETATM    6  C10 UNK     1      19.830  -0.669  31.220  1.00  0.00     0.001 A 
HETATM    7  C11 UNK     1      21.024  -3.167  31.897  1.00  0.00     0.304 A 
HETATM    8  C12 UNK     1      20.214  -1.568  30.229  1.00  0.00     0.089 A 
HETATM    9  C13 UNK     1      19.248   0.543  30.841  1.00  0.00     0.038 A 
HETATM   10  C14 UNK     1      20.033  -1.290  28.876  1.00  0.00     0.040 A 
HETATM   11  C15 UNK     1      19.061   0.836  29.487  1.00  0.00     0.035 A 
HETATM   12  C16 UNK     1      19.453  -0.079  28.507  1.00  0.00     0.026 A 
ENDROOT
BRANCH   4  13
HETATM   13  C7  UNK     1      20.786  -2.461  34.366  1.00  0.00     0.258 C 
HETATM   14  O2  UNK     1      21.739  -1.987  34.981  1.00  0.00    -0.267 OA
HETATM   15  N1  UNK     1      19.794  -3.269  34.891  1.00  0.00    -0.350 N 
HETATM   16  H12 UNK     1      19.032  -3.587  34.300  1.00  0.00     0.163 HD
BRANCH  15  17
HETATM   17  C3  UNK     1      19.757  -3.669  36.280  1.00  0.00     0.109 C 
HETATM   18  C6  UNK     1      18.706  -2.861  37.031  1.00  0.00     0.035 C 
BRANCH  17  19
HETATM   19  C1  UNK     1      19.495  -5.158  36.399  1.00  0.00     0.143 C 
HETATM   20  O1  UNK     1      20.046  -5.843  35.262  1.00  0.00    -0.384 OA
HETATM   21  C5  UNK     1      20.672  -7.052  35.720  1.00  0.00     0.168 C 
HETATM   22  C4  UNK     1      20.293  -7.220  37.177  1.00  0.00     0.029 C 
HETATM   23  C2  UNK     1      20.134  -5.789  37.625  1.00  0.00     0.036 C 
ENDBRANCH  17  19
ENDBRANCH  15  17
ENDBRANCH   4  13
TORSDOF 3
ENDMDL
MODEL 5
REMARK VINA RESULT:      -8.2     13.557     17.260
REMARK  3 active torsions:
REMARK  status: ('A' for Active; 'I' for Inactive)
REMARK    1  A    between atoms: C3_9  and  N1_6 
REMARK       I    between atoms: C7_13  and  N1_6 
REMARK    2  A    between atoms: C1_7  and  C3_9 
REMARK    3  A    between atoms: C7_13  and  C8_14 
ROOT
HETATM    1 Cl1  UNK     1      19.021   2.136  21.276  1.00  0.00    -0.084 Cl
HETATM    2  O3  UNK     1      19.255   1.165  15.463  1.00  0.00    -0.274 OA
HETATM    3  O4  UNK     1      19.148  -0.265  13.684  1.00  0.00    -0.259 OA
HETATM    4  C8  UNK     1      18.855  -1.219  15.833  1.00  0.00     0.108 A 
HETATM    5  C9  UNK     1      18.797  -1.031  17.157  1.00  0.00     0.037 A 
HETATM    6  C10 UNK     1      18.969   0.301  17.718  1.00  0.00     0.001 A 
HETATM    7  C11 UNK     1      19.094  -0.097  14.897  1.00  0.00     0.304 A 
HETATM    8  C12 UNK     1      19.194   1.370  16.855  1.00  0.00     0.089 A 
HETATM    9  C13 UNK     1      18.915   0.543  19.092  1.00  0.00     0.038 A 
HETATM   10  C14 UNK     1      19.366   2.669  17.327  1.00  0.00     0.040 A 
HETATM   11  C15 UNK     1      19.087   1.841  19.580  1.00  0.00     0.035 A 
HETATM   12  C16 UNK     1      19.312   2.902  18.699  1.00  0.00     0.026 A 
ENDROOT
BRANCH   4  13
HETATM   13  C7  UNK     1      18.671  -2.598  15.365  1.00  0.00     0.258 C 
HETATM   14  O2  UNK     1      17.818  -3.327  15.868  1.00  0.00    -0.267 OA
HETATM   15  N1  UNK     1      19.537  -2.939  14.342  1.00  0.00    -0.350 N 
HETATM   16  H12 UNK     1      20.190  -2.251  13.979  1.00  0.00     0.163 HD
BRANCH  15  17
HETATM   17  C3  UNK     1      19.546  -4.243  13.719  1.00  0.00     0.109 C 
HETATM   18  C6  UNK     1      19.537  -4.101  12.203  1.00  0.00     0.035 C 
BRANCH  17  19
HETATM   19  C1  UNK     1      20.740  -5.051  14.189  1.00  0.00     0.143 C 
HETATM   20  O1  UNK     1      21.696  -4.186  14.825  1.00  0.00    -0.384 OA
HETATM   21  C5  UNK     1      22.203  -4.850  15.992  1.00  0.00     0.168 C 
HETATM   22  C4  UNK     1      21.696  -6.276  15.944  1.00  0.00     0.029 C 
HETATM   23  C2  UNK     1      20.387  -6.116  15.213  1.00  0.00     0.036 C 
ENDBRANCH  17  19
ENDBRANCH  15  17
ENDBRANCH   4  13
TORSDOF 3
ENDMDL
MODEL 6
REMARK VINA RESULT:      -8.2      7.606     11.110
REMARK  3 active torsions:
REMARK  status: ('A' for Active; 'I' for Inactive)
REMARK    1  A    between atoms: C3_9  and  N1_6 
REMARK       I    between atoms: C7_13  and  N1_6 
REMARK    2  A    between atoms: C1_7  and  C3_9 
REMARK    3  A    between atoms: C7_13  and  C8_14 
ROOT
HETATM    1 Cl1  UNK     1      16.049   2.002  37.574  1.00  0.00    -0.084 Cl
HETATM    2  O3  UNK     1      19.451  -1.438  34.202  1.00  0.00    -0.274 OA
HETATM    3  O4  UNK     1      20.754  -3.297  33.942  1.00  0.00    -0.259 OA
HETATM    4  C8  UNK     1      19.798  -2.960  36.084  1.00  0.00     0.108 A 
HETATM    5  C9  UNK     1      19.031  -2.200  36.875  1.00  0.00     0.037 A 
HETATM    6  C10 UNK     1      18.418  -0.987  36.356  1.00  0.00     0.001 A 
HETATM    7  C11 UNK     1      20.052  -2.605  34.670  1.00  0.00     0.304 A 
HETATM    8  C12 UNK     1      18.643  -0.634  35.028  1.00  0.00     0.089 A 
HETATM    9  C13 UNK     1      17.610  -0.165  37.144  1.00  0.00     0.038 A 
HETATM   10  C14 UNK     1      18.084   0.513  34.469  1.00  0.00     0.040 A 
HETATM   11  C15 UNK     1      17.044   0.990  36.598  1.00  0.00     0.035 A 
HETATM   12  C16 UNK     1      17.281   1.328  35.263  1.00  0.00     0.026 A 
ENDROOT
BRANCH   4  13
HETATM   13  C7  UNK     1      20.373  -4.163  36.699  1.00  0.00     0.258 C 
HETATM   14  O2  UNK     1      21.515  -4.153  37.156  1.00  0.00    -0.267 OA
HETATM   15  N1  UNK     1      19.505  -5.239  36.691  1.00  0.00    -0.350 N 
HETATM   16  H12 UNK     1      18.569  -5.134  36.311  1.00  0.00     0.163 HD
BRANCH  15  17
HETATM   17  C3  UNK     1      19.847  -6.532  37.240  1.00  0.00     0.109 C 
HETATM   18  C6  UNK     1      18.586  -7.351  37.481  1.00  0.00     0.035 C 
BRANCH  17  19
HETATM   19  C1  UNK     1      20.811  -7.262  36.324  1.00  0.00     0.143 C 
HETATM   20  O1  UNK     1      22.039  -7.529  37.022  1.00  0.00    -0.384 OA
HETATM   21  C5  UNK     1      22.472  -8.857  36.689  1.00  0.00     0.168 C 
HETATM   22  C4  UNK     1      21.580  -9.342  35.566  1.00  0.00     0.029 C 
HETATM   23  C2  UNK     1      20.293  -8.609  35.850  1.00  0.00     0.036 C 
ENDBRANCH  17  19
ENDBRANCH  15  17
ENDBRANCH   4  13
TORSDOF 3
ENDMDL
MODEL 7
REMARK VINA RESULT:      -8.1      3.351      4.212
REMARK  3 active torsions:
REMARK  status: ('A' for Active; 'I' for Inactive)
REMARK    1  A    between atoms: C3_9  and  N1_6 
REMARK       I    between atoms: C7_13  and  N1_6 
REMARK    2  A    between atoms: C1_7  and  C3_9 
REMARK    3  A    between atoms: C7_13  and  C8_14 
ROOT
HETATM    1 Cl1  UNK     1      17.933  -0.423  38.161  1.00  0.00    -0.084 Cl
HETATM    2  O3  UNK     1      17.880   1.668  32.647  1.00  0.00    -0.274 OA
HETATM    3  O4  UNK     1      18.106   3.406  31.182  1.00  0.00    -0.259 OA
HETATM    4  C8  UNK     1      18.407   3.906  33.478  1.00  0.00     0.108 A 
HETATM    5  C9  UNK     1      18.426   3.462  34.741  1.00  0.00     0.037 A 
HETATM    6  C10 UNK     1      18.166   2.060  35.030  1.00  0.00     0.001 A 
HETATM    7  C11 UNK     1      18.125   3.004  32.339  1.00  0.00     0.304 A 
HETATM    8  C12 UNK     1      17.898   1.194  33.973  1.00  0.00     0.089 A 
HETATM    9  C13 UNK     1      18.176   1.554  36.331  1.00  0.00     0.038 A 
HETATM   10  C14 UNK     1      17.643  -0.160  34.181  1.00  0.00     0.040 A 
HETATM   11  C15 UNK     1      17.920   0.198  36.555  1.00  0.00     0.035 A 
HETATM   12  C16 UNK     1      17.654  -0.656  35.482  1.00  0.00     0.026 A 
ENDROOT
BRANCH   4  13
HETATM   13  C7  UNK     1      18.680   5.337  33.289  1.00  0.00     0.258 C 
HETATM   14  O2  UNK     1      19.760   5.821  33.619  1.00  0.00    -0.267 OA
HETATM   15  N1  UNK     1      17.617   6.017  32.724  1.00  0.00    -0.350 N 
HETATM   16  H12 UNK     1      16.774   5.515  32.462  1.00  0.00     0.163 HD
BRANCH  15  17
HETATM   17  C3  UNK     1      17.648   7.434  32.443  1.00  0.00     0.109 C 
HETATM   18  C6  UNK     1      16.728   7.758  31.273  1.00  0.00     0.035 C 
BRANCH  17  19
HETATM   19  C1  UNK     1      17.273   8.232  33.676  1.00  0.00     0.143 C 
HETATM   20  O1  UNK     1      17.496   9.632  33.438  1.00  0.00    -0.384 OA
HETATM   21  C5  UNK     1      16.399  10.369  33.998  1.00  0.00     0.168 C 
HETATM   22  C4  UNK     1      15.576   9.388  34.806  1.00  0.00     0.029 C 
HETATM   23  C2  UNK     1      15.809   8.097  34.062  1.00  0.00     0.036 C 
ENDBRANCH  17  19
ENDBRANCH  15  17
ENDBRANCH   4  13
TORSDOF 3
ENDMDL
MODEL 8
REMARK VINA RESULT:      -8.1      4.384      6.483
REMARK  3 active torsions:
REMARK  status: ('A' for Active; 'I' for Inactive)
REMARK    1  A    between atoms: C3_9  and  N1_6 
REMARK       I    between atoms: C7_13  and  N1_6 
REMARK    2  A    between atoms: C1_7  and  C3_9 
REMARK    3  A    between atoms: C7_13  and  C8_14 
ROOT
HETATM    1 Cl1  UNK     1      17.705   7.450  32.634  1.00  0.00    -0.084 Cl
HETATM    2  O3  UNK     1      19.287   2.377  30.075  1.00  0.00    -0.274 OA
HETATM    3  O4  UNK     1      19.520   0.106  30.149  1.00  0.00    -0.259 OA
HETATM    4  C8  UNK     1      18.644   1.148  32.088  1.00  0.00     0.108 A 
HETATM    5  C9  UNK     1      18.277   2.282  32.696  1.00  0.00     0.037 A 
HETATM    6  C10 UNK     1      18.399   3.557  32.006  1.00  0.00     0.001 A 
HETATM    7  C11 UNK     1      19.182   1.142  30.709  1.00  0.00     0.304 A 
HETATM    8  C12 UNK     1      18.902   3.574  30.709  1.00  0.00     0.089 A 
HETATM    9  C13 UNK     1      18.027   4.764  32.602  1.00  0.00     0.038 A 
HETATM   10  C14 UNK     1      19.043   4.761  29.993  1.00  0.00     0.040 A 
HETATM   11  C15 UNK     1      18.164   5.963  31.896  1.00  0.00     0.035 A 
HETATM   12  C16 UNK     1      18.671   5.961  30.594  1.00  0.00     0.026 A 
ENDROOT
BRANCH   4  13
HETATM   13  C7  UNK     1      18.485  -0.087  32.866  1.00  0.00     0.258 C 
HETATM   14  O2  UNK     1      18.305  -1.167  32.306  1.00  0.00    -0.267 OA
HETATM   15  N1  UNK     1      18.560   0.123  34.231  1.00  0.00    -0.350 N 
HETATM   16  H12 UNK     1      18.739   1.056  34.592  1.00  0.00     0.163 HD
BRANCH  15  17
HETATM   17  C3  UNK     1      18.431  -0.941  35.201  1.00  0.00     0.109 C 
HETATM   18  C6  UNK     1      19.807  -1.374  35.691  1.00  0.00     0.035 C 
BRANCH  17  19
HETATM   19  C1  UNK     1      17.547  -0.508  36.354  1.00  0.00     0.143 C 
HETATM   20  O1  UNK     1      18.346   0.113  37.375  1.00  0.00    -0.384 OA
HETATM   21  C5  UNK     1      17.641   1.262  37.869  1.00  0.00     0.168 C 
HETATM   22  C4  UNK     1      16.249   1.213  37.275  1.00  0.00     0.029 C 
HETATM   23  C2  UNK     1      16.495   0.515  35.961  1.00  0.00     0.036 C 
ENDBRANCH  17  19
ENDBRANCH  15  17
ENDBRANCH   4  13
TORSDOF 3
ENDMDL
MODEL 9
REMARK VINA RESULT:      -8.0     22.363     24.353
REMARK  3 active torsions:
REMARK  status: ('A' for Active; 'I' for Inactive)
REMARK    1  A    between atoms: C3_9  and  N1_6 
REMARK       I    between atoms: C7_13  and  N1_6 
REMARK    2  A    between atoms: C1_7  and  C3_9 
REMARK    3  A    between atoms: C7_13  and  C8_14 
ROOT
HETATM    1 Cl1  UNK     1      17.077  10.030  10.335  1.00  0.00    -0.084 Cl
HETATM    2  O3  UNK     1      14.051   5.138   9.035  1.00  0.00    -0.274 OA
HETATM    3  O4  UNK     1      12.197   4.123   8.168  1.00  0.00    -0.259 OA
HETATM    4  C8  UNK     1      12.240   6.491   8.104  1.00  0.00     0.108 A 
HETATM    5  C9  UNK     1      12.901   7.620   8.387  1.00  0.00     0.037 A 
HETATM    6  C10 UNK     1      14.208   7.564   9.025  1.00  0.00     0.001 A 
HETATM    7  C11 UNK     1      12.799   5.159   8.425  1.00  0.00     0.304 A 
HETATM    8  C12 UNK     1      14.753   6.321   9.335  1.00  0.00     0.089 A 
HETATM    9  C13 UNK     1      14.934   8.715   9.337  1.00  0.00     0.038 A 
HETATM   10  C14 UNK     1      15.999   6.199   9.945  1.00  0.00     0.040 A 
HETATM   11  C15 UNK     1      16.185   8.608   9.951  1.00  0.00     0.035 A 
HETATM   12  C16 UNK     1      16.716   7.352  10.254  1.00  0.00     0.026 A 
ENDROOT
BRANCH   4  13
HETATM   13  C7  UNK     1      10.929   6.651   7.462  1.00  0.00     0.258 C 
HETATM   14  O2  UNK     1      10.842   7.000   6.286  1.00  0.00    -0.267 OA
HETATM   15  N1  UNK     1       9.875   6.371   8.312  1.00  0.00    -0.350 N 
HETATM   16  H12 UNK     1      10.058   6.063   9.263  1.00  0.00     0.163 HD
BRANCH  15  17
HETATM   17  C3  UNK     1       8.491   6.459   7.907  1.00  0.00     0.109 C 
HETATM   18  C6  UNK     1       7.783   5.135   8.164  1.00  0.00     0.035 C 
BRANCH  17  19
HETATM   19  C1  UNK     1       7.797   7.602   8.622  1.00  0.00     0.143 C 
HETATM   20  O1  UNK     1       6.584   7.131   9.234  1.00  0.00    -0.384 OA
HETATM   21  C5  UNK     1       6.471   7.727  10.535  1.00  0.00     0.168 C 
HETATM   22  C4  UNK     1       7.553   8.782  10.632  1.00  0.00     0.029 C 
HETATM   23  C2  UNK     1       8.626   8.211   9.740  1.00  0.00     0.036 C 
ENDBRANCH  17  19
ENDBRANCH  15  17
ENDBRANCH   4  13
TORSDOF 3
ENDMDL
MODEL 10
REMARK VINA RESULT:      -8.0      6.587     10.245
REMARK  3 active torsions:
REMARK  status: ('A' for Active; 'I' for Inactive)
REMARK    1  A    between atoms: C3_9  and  N1_6 
REMARK       I    between atoms: C7_13  and  N1_6 
REMARK    2  A    between atoms: C1_7  and  C3_9 
REMARK    3  A    between atoms: C7_13  and  C8_14 
ROOT
HETATM    1 Cl1  UNK     1      20.902  -1.277  29.303  1.00  0.00    -0.084 Cl
HETATM    2  O3  UNK     1      18.522  -0.610  34.658  1.00  0.00    -0.274 OA
HETATM    3  O4  UNK     1      18.247  -1.325  36.810  1.00  0.00    -0.259 OA
HETATM    4  C8  UNK     1      19.653  -2.637  35.426  1.00  0.00     0.108 A 
HETATM    5  C9  UNK     1      20.208  -2.816  34.221  1.00  0.00     0.037 A 
HETATM    6  C10 UNK     1      19.942  -1.876  33.143  1.00  0.00     0.001 A 
HETATM    7  C11 UNK     1      18.758  -1.493  35.709  1.00  0.00     0.304 A 
HETATM    8  C12 UNK     1      19.103  -0.792  33.388  1.00  0.00     0.089 A 
HETATM    9  C13 UNK     1      20.500  -2.023  31.872  1.00  0.00     0.038 A 
HETATM   10  C14 UNK     1      18.809   0.145  32.400  1.00  0.00     0.040 A 
HETATM   11  C15 UNK     1      20.213  -1.092  30.870  1.00  0.00     0.035 A 
HETATM   12  C16 UNK     1      19.369  -0.010  31.134  1.00  0.00     0.026 A 
ENDROOT
BRANCH   4  13
HETATM   13  C7  UNK     1      19.981  -3.640  36.447  1.00  0.00     0.258 C 
HETATM   14  O2  UNK     1      20.671  -3.346  37.421  1.00  0.00    -0.267 OA
HETATM   15  N1  UNK     1      19.438  -4.882  36.175  1.00  0.00    -0.350 N 
HETATM   16  H12 UNK     1      18.857  -5.014  35.352  1.00  0.00     0.163 HD
BRANCH  15  17
HETATM   17  C3  UNK     1      19.624  -6.029  37.035  1.00  0.00     0.109 C 
HETATM   18  C6  UNK     1      18.307  -6.775  37.209  1.00  0.00     0.035 C 
BRANCH  17  19
HETATM   19  C1  UNK     1      20.704  -6.940  36.484  1.00  0.00     0.143 C 
HETATM   20  O1  UNK     1      20.743  -8.163  37.239  1.00  0.00    -0.384 OA
HETATM   21  C5  UNK     1      20.920  -9.256  36.326  1.00  0.00     0.168 C 
HETATM   22  C4  UNK     1      21.223  -8.653  34.970  1.00  0.00     0.029 C 
HETATM   23  C2  UNK     1      20.476  -7.345  35.037  1.00  0.00     0.036 C 
ENDBRANCH  17  19
ENDBRANCH  15  17
ENDBRANCH   4  13
TORSDOF 3
ENDMDL
