MODEL 1
REMARK VINA RESULT:      -7.5      0.000      0.000
REMARK  7 active torsions:
REMARK  status: ('A' for Active; 'I' for Inactive)
REMARK    1  A    between atoms: C10_15  and  N1_4 
REMARK    2  A    between atoms: C8_13  and  N1_4 
REMARK    3  A    between atoms: C9_14  and  N1_4 
REMARK    4  A    between atoms: C3_8  and  N2_5 
REMARK    5  A    between atoms: C8_13  and  N2_5 
REMARK    6  A    between atoms: C14_19  and  C9_14 
REMARK    7  A    between atoms: C10_15  and  C15_20 
ROOT
HETATM    1  O1  UNK     1      19.198  -0.094  32.826  1.00  0.00    -0.275 OA
HETATM    2  O2  UNK     1      20.000  -2.160  33.390  1.00  0.00    -0.260 OA
HETATM    3  C1  UNK     1      19.380   0.668  30.513  1.00  0.00     0.004 A 
HETATM    4  C2  UNK     1      18.984   0.884  31.834  1.00  0.00     0.092 A 
HETATM    5  C3  UNK     1      18.122   3.065  31.308  1.00  0.00     0.036 A 
HETATM    6  C4  UNK     1      20.029  -0.604  30.171  1.00  0.00    -0.043 A 
HETATM    7  C5  UNK     1      18.361   2.063  32.243  1.00  0.00     0.067 A 
HETATM    8  C6  UNK     1      19.130   1.689  29.586  1.00  0.00     0.017 A 
HETATM    9  C7  UNK     1      18.506   2.877  29.981  1.00  0.00     0.030 A 
HETATM   10  C11 UNK     1      20.220  -1.516  31.135  1.00  0.00     0.090 A 
HETATM   11  C12 UNK     1      20.467  -0.866  28.759  1.00  0.00     0.049 C 
HETATM   12  C13 UNK     1      19.808  -1.304  32.534  1.00  0.00     0.288 A 
ENDROOT
BRANCH   5  13
HETATM   13  N2  UNK     1      17.500   4.251  31.695  1.00  0.00    -0.333 N 
HETATM   14  H4  UNK     1      16.499   4.168  31.854  1.00  0.00     0.168 HD
BRANCH  13  15
HETATM   15  C8  UNK     1      18.048   5.494  32.018  1.00  0.00     0.174 C 
HETATM   16  S1  UNK     1      19.653   5.779  31.570  1.00  0.00    -0.041 SA
BRANCH  15  17
HETATM   17  N1  UNK     1      17.272   6.393  32.753  1.00  0.00    -0.351 N 
BRANCH  17  18
HETATM   18  C10 UNK     1      17.394   6.507  34.208  1.00  0.00     0.152 C 
BRANCH  18  19
HETATM   19  C15 UNK     1      17.989   7.833  34.544  1.00  0.00    -0.017 C 
HETATM   20  C17 UNK     1      19.305   8.055  34.647  1.00  0.00     0.008 C 
ENDBRANCH  18  19
ENDBRANCH  17  18
BRANCH  17  21
HETATM   21  C9  UNK     1      16.495   7.456  32.120  1.00  0.00     0.152 C 
BRANCH  21  22
HETATM   22  C14 UNK     1      15.070   7.023  32.016  1.00  0.00    -0.017 C 
HETATM   23  C16 UNK     1      14.070   7.577  32.711  1.00  0.00     0.008 C 
ENDBRANCH  21  22
ENDBRANCH  17  21
ENDBRANCH  15  17
ENDBRANCH  13  15
ENDBRANCH   5  13
TORSDOF 7
ENDMDL
MODEL 2
REMARK VINA RESULT:      -7.4      1.286      1.921
REMARK  7 active torsions:
REMARK  status: ('A' for Active; 'I' for Inactive)
REMARK    1  A    between atoms: C10_15  and  N1_4 
REMARK    2  A    between atoms: C8_13  and  N1_4 
REMARK    3  A    between atoms: C9_14  and  N1_4 
REMARK    4  A    between atoms: C3_8  and  N2_5 
REMARK    5  A    between atoms: C8_13  and  N2_5 
REMARK    6  A    between atoms: C14_19  and  C9_14 
REMARK    7  A    between atoms: C10_15  and  C15_20 
ROOT
HETATM    1  O1  UNK     1      19.274  -0.428  32.917  1.00  0.00    -0.275 OA
HETATM    2  O2  UNK     1      20.071  -2.489  33.504  1.00  0.00    -0.260 OA
HETATM    3  C1  UNK     1      19.516   0.335  30.610  1.00  0.00     0.004 A 
HETATM    4  C2  UNK     1      19.083   0.549  31.919  1.00  0.00     0.092 A 
HETATM    5  C3  UNK     1      18.223   2.725  31.369  1.00  0.00     0.036 A 
HETATM    6  C4  UNK     1      20.183  -0.933  30.286  1.00  0.00    -0.043 A 
HETATM    7  C5  UNK     1      18.441   1.725  32.310  1.00  0.00     0.067 A 
HETATM    8  C6  UNK     1      19.288   1.355  29.676  1.00  0.00     0.017 A 
HETATM    9  C7  UNK     1      18.645   2.539  30.053  1.00  0.00     0.030 A 
HETATM   10  C11 UNK     1      20.352  -1.843  31.256  1.00  0.00     0.090 A 
HETATM   11  C12 UNK     1      20.662  -1.192  28.888  1.00  0.00     0.049 C 
HETATM   12  C13 UNK     1      19.899  -1.634  32.642  1.00  0.00     0.288 A 
ENDROOT
BRANCH   5  13
HETATM   13  N2  UNK     1      17.582   3.908  31.738  1.00  0.00    -0.333 N 
HETATM   14  H4  UNK     1      16.572   3.892  31.622  1.00  0.00     0.168 HD
BRANCH  13  15
HETATM   15  C8  UNK     1      18.089   5.053  32.354  1.00  0.00     0.174 C 
HETATM   16  S1  UNK     1      18.458   4.955  34.001  1.00  0.00    -0.041 SA
BRANCH  15  17
HETATM   17  N1  UNK     1      18.191   6.225  31.602  1.00  0.00    -0.351 N 
BRANCH  17  18
HETATM   18  C10 UNK     1      18.614   6.207  30.200  1.00  0.00     0.152 C 
BRANCH  18  19
HETATM   19  C15 UNK     1      20.069   5.882  30.134  1.00  0.00    -0.017 C 
HETATM   20  C17 UNK     1      20.895   5.944  31.185  1.00  0.00     0.008 C 
ENDBRANCH  18  19
ENDBRANCH  17  18
BRANCH  17  21
HETATM   21  C9  UNK     1      17.638   7.499  32.056  1.00  0.00     0.152 C 
BRANCH  21  22
HETATM   22  C14 UNK     1      16.257   7.654  31.510  1.00  0.00    -0.017 C 
HETATM   23  C16 UNK     1      15.149   7.575  32.256  1.00  0.00     0.008 C 
ENDBRANCH  21  22
ENDBRANCH  17  21
ENDBRANCH  15  17
ENDBRANCH  13  15
ENDBRANCH   5  13
TORSDOF 7
ENDMDL
MODEL 3
REMARK VINA RESULT:      -7.4      0.210      2.180
REMARK  7 active torsions:
REMARK  status: ('A' for Active; 'I' for Inactive)
REMARK    1  A    between atoms: C10_15  and  N1_4 
REMARK    2  A    between atoms: C8_13  and  N1_4 
REMARK    3  A    between atoms: C9_14  and  N1_4 
REMARK    4  A    between atoms: C3_8  and  N2_5 
REMARK    5  A    between atoms: C8_13  and  N2_5 
REMARK    6  A    between atoms: C14_19  and  C9_14 
REMARK    7  A    between atoms: C10_15  and  C15_20 
ROOT
HETATM    1  O1  UNK     1      19.280  -0.097  32.704  1.00  0.00    -0.275 OA
HETATM    2  O2  UNK     1      20.061  -2.178  33.242  1.00  0.00    -0.260 OA
HETATM    3  C1  UNK     1      19.327   0.631  30.373  1.00  0.00     0.004 A 
HETATM    4  C2  UNK     1      19.027   0.874  31.714  1.00  0.00     0.092 A 
HETATM    5  C3  UNK     1      18.191   3.072  31.216  1.00  0.00     0.036 A 
HETATM    6  C4  UNK     1      19.917  -0.663  30.006  1.00  0.00    -0.043 A 
HETATM    7  C5  UNK     1      18.464   2.075  32.147  1.00  0.00     0.067 A 
HETATM    8  C6  UNK     1      19.043   1.647  29.450  1.00  0.00     0.017 A 
HETATM    9  C7  UNK     1      18.480   2.857  29.869  1.00  0.00     0.030 A 
HETATM   10  C11 UNK     1      20.148  -1.567  30.968  1.00  0.00     0.090 A 
HETATM   11  C12 UNK     1      20.251  -0.954  28.572  1.00  0.00     0.049 C 
HETATM   12  C13 UNK     1      19.836  -1.327  32.388  1.00  0.00     0.288 A 
ENDROOT
BRANCH   5  13
HETATM   13  N2  UNK     1      17.628   4.280  31.627  1.00  0.00    -0.333 N 
HETATM   14  H4  UNK     1      16.655   4.213  31.916  1.00  0.00     0.168 HD
BRANCH  13  15
HETATM   15  C8  UNK     1      18.219   5.529  31.823  1.00  0.00     0.174 C 
HETATM   16  S1  UNK     1      19.772   5.765  31.199  1.00  0.00    -0.041 SA
BRANCH  15  17
HETATM   17  N1  UNK     1      17.531   6.479  32.581  1.00  0.00    -0.351 N 
BRANCH  17  18
HETATM   18  C10 UNK     1      16.581   7.412  31.971  1.00  0.00     0.152 C 
BRANCH  18  19
HETATM   19  C15 UNK     1      15.193   6.918  32.207  1.00  0.00    -0.017 C 
HETATM   20  C17 UNK     1      14.213   7.668  32.724  1.00  0.00     0.008 C 
ENDBRANCH  18  19
ENDBRANCH  17  18
BRANCH  17  21
HETATM   21  C9  UNK     1      17.497   6.443  34.042  1.00  0.00     0.152 C 
BRANCH  21  22
HETATM   22  C14 UNK     1      18.115   7.693  34.576  1.00  0.00    -0.017 C 
HETATM   23  C16 UNK     1      19.401   8.019  34.406  1.00  0.00     0.008 C 
ENDBRANCH  21  22
ENDBRANCH  17  21
ENDBRANCH  15  17
ENDBRANCH  13  15
ENDBRANCH   5  13
TORSDOF 7
ENDMDL
MODEL 4
REMARK VINA RESULT:      -7.4      1.618      2.418
REMARK  7 active torsions:
REMARK  status: ('A' for Active; 'I' for Inactive)
REMARK    1  A    between atoms: C10_15  and  N1_4 
REMARK    2  A    between atoms: C8_13  and  N1_4 
REMARK    3  A    between atoms: C9_14  and  N1_4 
REMARK    4  A    between atoms: C3_8  and  N2_5 
REMARK    5  A    between atoms: C8_13  and  N2_5 
REMARK    6  A    between atoms: C14_19  and  C9_14 
REMARK    7  A    between atoms: C10_15  and  C15_20 
ROOT
HETATM    1  O1  UNK     1      19.661   0.877  29.430  1.00  0.00    -0.275 OA
HETATM    2  O2  UNK     1      20.664  -0.734  28.156  1.00  0.00    -0.260 OA
HETATM    3  C1  UNK     1      19.152   0.404  31.772  1.00  0.00     0.004 A 
HETATM    4  C2  UNK     1      19.137   1.271  30.678  1.00  0.00     0.092 A 
HETATM    5  C3  UNK     1      18.082   3.007  31.962  1.00  0.00     0.036 A 
HETATM    6  C4  UNK     1      19.724  -0.938  31.600  1.00  0.00    -0.043 A 
HETATM    7  C5  UNK     1      18.612   2.562  30.756  1.00  0.00     0.067 A 
HETATM    8  C6  UNK     1      18.613   0.871  32.978  1.00  0.00     0.017 A 
HETATM    9  C7  UNK     1      18.083   2.163  33.072  1.00  0.00     0.030 A 
HETATM   10  C11 UNK     1      20.214  -1.285  30.401  1.00  0.00     0.090 A 
HETATM   11  C12 UNK     1      19.754  -1.894  32.756  1.00  0.00     0.049 C 
HETATM   12  C13 UNK     1      20.208  -0.382  29.238  1.00  0.00     0.288 A 
ENDROOT
BRANCH   5  13
HETATM   13  N2  UNK     1      17.553   4.294  32.063  1.00  0.00    -0.333 N 
HETATM   14  H4  UNK     1      16.543   4.325  32.177  1.00  0.00     0.168 HD
BRANCH  13  15
HETATM   15  C8  UNK     1      18.197   5.529  32.160  1.00  0.00     0.174 C 
HETATM   16  S1  UNK     1      18.904   6.153  30.756  1.00  0.00    -0.041 SA
BRANCH  15  17
HETATM   17  N1  UNK     1      18.286   6.137  33.413  1.00  0.00    -0.351 N 
BRANCH  17  18
HETATM   18  C10 UNK     1      19.568   6.569  33.972  1.00  0.00     0.152 C 
BRANCH  18  19
HETATM   19  C15 UNK     1      19.361   7.823  34.754  1.00  0.00    -0.017 C 
HETATM   20  C17 UNK     1      19.991   8.976  34.496  1.00  0.00     0.008 C 
ENDBRANCH  18  19
ENDBRANCH  17  18
BRANCH  17  21
HETATM   21  C9  UNK     1      17.111   6.628  34.132  1.00  0.00     0.152 C 
BRANCH  21  22
HETATM   22  C14 UNK     1      16.190   7.294  33.164  1.00  0.00    -0.017 C 
HETATM   23  C16 UNK     1      16.318   8.565  32.768  1.00  0.00     0.008 C 
ENDBRANCH  21  22
ENDBRANCH  17  21
ENDBRANCH  15  17
ENDBRANCH  13  15
ENDBRANCH   5  13
TORSDOF 7
ENDMDL
MODEL 5
REMARK VINA RESULT:      -7.3      1.240      2.510
REMARK  7 active torsions:
REMARK  status: ('A' for Active; 'I' for Inactive)
REMARK    1  A    between atoms: C10_15  and  N1_4 
REMARK    2  A    between atoms: C8_13  and  N1_4 
REMARK    3  A    between atoms: C9_14  and  N1_4 
REMARK    4  A    between atoms: C3_8  and  N2_5 
REMARK    5  A    between atoms: C8_13  and  N2_5 
REMARK    6  A    between atoms: C14_19  and  C9_14 
REMARK    7  A    between atoms: C10_15  and  C15_20 
ROOT
HETATM    1  O1  UNK     1      19.342  -0.509  32.847  1.00  0.00    -0.275 OA
HETATM    2  O2  UNK     1      20.198  -2.564  33.368  1.00  0.00    -0.260 OA
HETATM    3  C1  UNK     1      19.537   0.321  30.558  1.00  0.00     0.004 A 
HETATM    4  C2  UNK     1      19.114   0.489  31.877  1.00  0.00     0.092 A 
HETATM    5  C3  UNK     1      18.194   2.656  31.395  1.00  0.00     0.036 A 
HETATM    6  C4  UNK     1      20.231  -0.921  30.193  1.00  0.00    -0.043 A 
HETATM    7  C5  UNK     1      18.448   1.637  32.307  1.00  0.00     0.067 A 
HETATM    8  C6  UNK     1      19.272   1.359  29.654  1.00  0.00     0.017 A 
HETATM    9  C7  UNK     1      18.605   2.516  30.070  1.00  0.00     0.030 A 
HETATM   10  C11 UNK     1      20.435  -1.852  31.136  1.00  0.00     0.090 A 
HETATM   11  C12 UNK     1      20.699  -1.131  28.782  1.00  0.00     0.049 C 
HETATM   12  C13 UNK     1      19.994  -1.691  32.532  1.00  0.00     0.288 A 
ENDROOT
BRANCH   5  13
HETATM   13  N2  UNK     1      17.529   3.812  31.803  1.00  0.00    -0.333 N 
HETATM   14  H4  UNK     1      16.515   3.758  31.740  1.00  0.00     0.168 HD
BRANCH  13  15
HETATM   15  C8  UNK     1      18.022   4.974  32.398  1.00  0.00     0.174 C 
HETATM   16  S1  UNK     1      18.547   4.867  34.002  1.00  0.00    -0.041 SA
BRANCH  15  17
HETATM   17  N1  UNK     1      17.986   6.164  31.668  1.00  0.00    -0.351 N 
BRANCH  17  18
HETATM   18  C10 UNK     1      17.558   7.427  32.273  1.00  0.00     0.152 C 
BRANCH  18  19
HETATM   19  C15 UNK     1      16.140   7.297  32.721  1.00  0.00    -0.017 C 
HETATM   20  C17 UNK     1      15.106   7.138  31.887  1.00  0.00     0.008 C 
ENDBRANCH  18  19
ENDBRANCH  17  18
BRANCH  17  21
HETATM   21  C9  UNK     1      18.614   6.298  30.356  1.00  0.00     0.152 C 
BRANCH  21  22
HETATM   22  C14 UNK     1      19.986   5.713  30.409  1.00  0.00    -0.017 C 
HETATM   23  C16 UNK     1      20.918   6.080  31.296  1.00  0.00     0.008 C 
ENDBRANCH  21  22
ENDBRANCH  17  21
ENDBRANCH  15  17
ENDBRANCH  13  15
ENDBRANCH   5  13
TORSDOF 7
ENDMDL
MODEL 6
REMARK VINA RESULT:      -7.3      1.485      3.134
REMARK  7 active torsions:
REMARK  status: ('A' for Active; 'I' for Inactive)
REMARK    1  A    between atoms: C10_15  and  N1_4 
REMARK    2  A    between atoms: C8_13  and  N1_4 
REMARK    3  A    between atoms: C9_14  and  N1_4 
REMARK    4  A    between atoms: C3_8  and  N2_5 
REMARK    5  A    between atoms: C8_13  and  N2_5 
REMARK    6  A    between atoms: C14_19  and  C9_14 
REMARK    7  A    between atoms: C10_15  and  C15_20 
ROOT
HETATM    1  O1  UNK     1      19.640   0.865  29.355  1.00  0.00    -0.275 OA
HETATM    2  O2  UNK     1      20.585  -0.866  28.197  1.00  0.00    -0.260 OA
HETATM    3  C1  UNK     1      19.090   0.564  31.715  1.00  0.00     0.004 A 
HETATM    4  C2  UNK     1      19.122   1.359  30.569  1.00  0.00     0.092 A 
HETATM    5  C3  UNK     1      18.131   3.217  31.728  1.00  0.00     0.036 A 
HETATM    6  C4  UNK     1      19.606  -0.809  31.636  1.00  0.00    -0.043 A 
HETATM    7  C5  UNK     1      18.653   2.673  30.559  1.00  0.00     0.067 A 
HETATM    8  C6  UNK     1      18.561   1.130  32.883  1.00  0.00     0.017 A 
HETATM    9  C7  UNK     1      18.086   2.446  32.888  1.00  0.00     0.030 A 
HETATM   10  C11 UNK     1      20.092  -1.253  30.467  1.00  0.00     0.090 A 
HETATM   11  C12 UNK     1      19.585  -1.689  32.851  1.00  0.00     0.049 C 
HETATM   12  C13 UNK     1      20.134  -0.426  29.249  1.00  0.00     0.288 A 
ENDROOT
BRANCH   5  13
HETATM   13  N2  UNK     1      17.657   4.528  31.740  1.00  0.00    -0.333 N 
HETATM   14  H4  UNK     1      16.646   4.609  31.825  1.00  0.00     0.168 HD
BRANCH  13  15
HETATM   15  C8  UNK     1      18.352   5.738  31.783  1.00  0.00     0.174 C 
HETATM   16  S1  UNK     1      19.828   5.820  30.962  1.00  0.00    -0.041 SA
BRANCH  15  17
HETATM   17  N1  UNK     1      17.831   6.778  32.556  1.00  0.00    -0.351 N 
BRANCH  17  18
HETATM   18  C10 UNK     1      16.867   7.736  32.010  1.00  0.00     0.152 C 
BRANCH  18  19
HETATM   19  C15 UNK     1      15.550   7.539  32.682  1.00  0.00    -0.017 C 
HETATM   20  C17 UNK     1      14.445   7.127  32.050  1.00  0.00     0.008 C 
ENDBRANCH  18  19
ENDBRANCH  17  18
BRANCH  17  21
HETATM   21  C9  UNK     1      17.990   6.833  34.007  1.00  0.00     0.152 C 
BRANCH  21  22
HETATM   22  C14 UNK     1      19.356   7.344  34.329  1.00  0.00    -0.017 C 
HETATM   23  C16 UNK     1      19.648   8.639  34.488  1.00  0.00     0.008 C 
ENDBRANCH  21  22
ENDBRANCH  17  21
ENDBRANCH  15  17
ENDBRANCH  13  15
ENDBRANCH   5  13
TORSDOF 7
ENDMDL
MODEL 7
REMARK VINA RESULT:      -7.2      7.829     10.272
REMARK  7 active torsions:
REMARK  status: ('A' for Active; 'I' for Inactive)
REMARK    1  A    between atoms: C10_15  and  N1_4 
REMARK    2  A    between atoms: C8_13  and  N1_4 
REMARK    3  A    between atoms: C9_14  and  N1_4 
REMARK    4  A    between atoms: C3_8  and  N2_5 
REMARK    5  A    between atoms: C8_13  and  N2_5 
REMARK    6  A    between atoms: C14_19  and  C9_14 
REMARK    7  A    between atoms: C10_15  and  C15_20 
ROOT
HETATM    1  O1  UNK     1      19.002  -9.201  38.222  1.00  0.00    -0.275 OA
HETATM    2  O2  UNK     1      19.132 -11.315  39.084  1.00  0.00    -0.260 OA
HETATM    3  C1  UNK     1      20.240  -8.662  36.187  1.00  0.00     0.004 A 
HETATM    4  C2  UNK     1      19.385  -8.284  37.223  1.00  0.00     0.092 A 
HETATM    5  C3  UNK     1      19.207  -6.044  36.370  1.00  0.00     0.036 A 
HETATM    6  C4  UNK     1      20.741 -10.043  36.155  1.00  0.00    -0.043 A 
HETATM    7  C5  UNK     1      18.865  -6.993  37.327  1.00  0.00     0.067 A 
HETATM    8  C6  UNK     1      20.572  -7.692  35.232  1.00  0.00     0.017 A 
HETATM    9  C7  UNK     1      20.059  -6.393  35.324  1.00  0.00     0.030 A 
HETATM   10  C11 UNK     1      20.360 -10.893  37.119  1.00  0.00     0.090 A 
HETATM   11  C12 UNK     1      21.662 -10.480  35.054  1.00  0.00     0.049 C 
HETATM   12  C13 UNK     1      19.458 -10.510  38.219  1.00  0.00     0.288 A 
ENDROOT
BRANCH   5  13
HETATM   13  N2  UNK     1      18.697  -4.748  36.455  1.00  0.00    -0.333 N 
HETATM   14  H4  UNK     1      17.682  -4.695  36.448  1.00  0.00     0.168 HD
BRANCH  13  15
HETATM   15  C8  UNK     1      19.351  -3.534  36.673  1.00  0.00     0.174 C 
HETATM   16  S1  UNK     1      20.810  -3.577  37.527  1.00  0.00    -0.041 SA
BRANCH  15  17
HETATM   17  N1  UNK     1      18.733  -2.358  36.244  1.00  0.00    -0.351 N 
BRANCH  17  18
HETATM   18  C10 UNK     1      17.583  -1.789  36.950  1.00  0.00     0.152 C 
BRANCH  18  19
HETATM   19  C15 UNK     1      18.061  -0.733  37.890  1.00  0.00    -0.017 C 
HETATM   20  C17 UNK     1      17.652   0.540  37.851  1.00  0.00     0.008 C 
ENDBRANCH  18  19
ENDBRANCH  17  18
BRANCH  17  21
HETATM   21  C9  UNK     1      19.335  -1.475  35.247  1.00  0.00     0.152 C 
BRANCH  21  22
HETATM   22  C14 UNK     1      18.255  -0.898  34.392  1.00  0.00    -0.017 C 
HETATM   23  C16 UNK     1      18.228   0.376  33.986  1.00  0.00     0.008 C 
ENDBRANCH  21  22
ENDBRANCH  17  21
ENDBRANCH  15  17
ENDBRANCH  13  15
ENDBRANCH   5  13
TORSDOF 7
ENDMDL
MODEL 8
REMARK VINA RESULT:      -7.1      3.483      7.979
REMARK  7 active torsions:
REMARK  status: ('A' for Active; 'I' for Inactive)
REMARK    1  A    between atoms: C10_15  and  N1_4 
REMARK    2  A    between atoms: C8_13  and  N1_4 
REMARK    3  A    between atoms: C9_14  and  N1_4 
REMARK    4  A    between atoms: C3_8  and  N2_5 
REMARK    5  A    between atoms: C8_13  and  N2_5 
REMARK    6  A    between atoms: C14_19  and  C9_14 
REMARK    7  A    between atoms: C10_15  and  C15_20 
ROOT
HETATM    1  O1  UNK     1      16.309   8.255  33.149  1.00  0.00    -0.275 OA
HETATM    2  O2  UNK     1      15.654  10.391  33.635  1.00  0.00    -0.260 OA
HETATM    3  C1  UNK     1      18.642   7.616  33.481  1.00  0.00     0.004 A 
HETATM    4  C2  UNK     1      17.340   7.296  33.094  1.00  0.00     0.092 A 
HETATM    5  C3  UNK     1      17.962   5.036  32.564  1.00  0.00     0.036 A 
HETATM    6  C4  UNK     1      18.924   8.979  33.948  1.00  0.00    -0.043 A 
HETATM    7  C5  UNK     1      16.987   6.025  32.640  1.00  0.00     0.067 A 
HETATM    8  C6  UNK     1      19.610   6.605  33.398  1.00  0.00     0.017 A 
HETATM    9  C7  UNK     1      19.272   5.326  32.944  1.00  0.00     0.030 A 
HETATM   10  C11 UNK     1      17.924   9.871  33.988  1.00  0.00     0.090 A 
HETATM   11  C12 UNK     1      20.315   9.354  34.370  1.00  0.00     0.049 C 
HETATM   12  C13 UNK     1      16.544   9.549  33.585  1.00  0.00     0.288 A 
ENDROOT
BRANCH   5  13
HETATM   13  N2  UNK     1      17.632   3.758  32.113  1.00  0.00    -0.333 N 
HETATM   14  H4  UNK     1      16.950   3.742  31.359  1.00  0.00     0.168 HD
BRANCH  13  15
HETATM   15  C8  UNK     1      18.177   2.516  32.443  1.00  0.00     0.174 C 
HETATM   16  S1  UNK     1      18.123   2.045  34.066  1.00  0.00    -0.041 SA
BRANCH  15  17
HETATM   17  N1  UNK     1      18.798   1.773  31.437  1.00  0.00    -0.351 N 
BRANCH  17  18
HETATM   18  C10 UNK     1      19.063   0.341  31.589  1.00  0.00     0.152 C 
BRANCH  18  19
HETATM   19  C15 UNK     1      20.341   0.006  30.895  1.00  0.00    -0.017 C 
HETATM   20  C17 UNK     1      20.567  -1.152  30.265  1.00  0.00     0.008 C 
ENDBRANCH  18  19
ENDBRANCH  17  18
BRANCH  17  21
HETATM   21  C9  UNK     1      18.980   2.287  30.081  1.00  0.00     0.152 C 
BRANCH  21  22
HETATM   22  C14 UNK     1      17.862   1.799  29.220  1.00  0.00    -0.017 C 
HETATM   23  C16 UNK     1      18.042   1.136  28.072  1.00  0.00     0.008 C 
ENDBRANCH  21  22
ENDBRANCH  17  21
ENDBRANCH  15  17
ENDBRANCH  13  15
ENDBRANCH   5  13
TORSDOF 7
ENDMDL
MODEL 9
REMARK VINA RESULT:      -7.0      1.470      2.464
REMARK  7 active torsions:
REMARK  status: ('A' for Active; 'I' for Inactive)
REMARK    1  A    between atoms: C10_15  and  N1_4 
REMARK    2  A    between atoms: C8_13  and  N1_4 
REMARK    3  A    between atoms: C9_14  and  N1_4 
REMARK    4  A    between atoms: C3_8  and  N2_5 
REMARK    5  A    between atoms: C8_13  and  N2_5 
REMARK    6  A    between atoms: C14_19  and  C9_14 
REMARK    7  A    between atoms: C10_15  and  C15_20 
ROOT
HETATM    1  O1  UNK     1      18.986   0.178  32.980  1.00  0.00    -0.275 OA
HETATM    2  O2  UNK     1      19.712  -1.962  33.326  1.00  0.00    -0.260 OA
HETATM    3  C1  UNK     1      19.193   1.165  30.756  1.00  0.00     0.004 A 
HETATM    4  C2  UNK     1      18.807   1.259  32.094  1.00  0.00     0.092 A 
HETATM    5  C3  UNK     1      18.025   3.512  31.798  1.00  0.00     0.036 A 
HETATM    6  C4  UNK     1      19.795  -0.088  30.282  1.00  0.00    -0.043 A 
HETATM    7  C5  UNK     1      18.228   2.412  32.624  1.00  0.00     0.067 A 
HETATM    8  C6  UNK     1      18.980   2.284  29.939  1.00  0.00     0.017 A 
HETATM    9  C7  UNK     1      18.400   3.448  30.457  1.00  0.00     0.030 A 
HETATM   10  C11 UNK     1      19.954  -1.099  31.148  1.00  0.00     0.090 A 
HETATM   11  C12 UNK     1      20.221  -0.219  28.849  1.00  0.00     0.049 C 
HETATM   12  C13 UNK     1      19.551  -1.017  32.563  1.00  0.00     0.288 A 
ENDROOT
BRANCH   5  13
HETATM   13  N2  UNK     1      17.446   4.675  32.307  1.00  0.00    -0.333 N 
HETATM   14  H4  UNK     1      16.602   4.520  32.852  1.00  0.00     0.168 HD
BRANCH  13  15
HETATM   15  C8  UNK     1      17.908   5.992  32.294  1.00  0.00     0.174 C 
HETATM   16  S1  UNK     1      17.580   6.921  30.920  1.00  0.00    -0.041 SA
BRANCH  15  17
HETATM   17  N1  UNK     1      18.671   6.441  33.374  1.00  0.00    -0.351 N 
BRANCH  17  18
HETATM   18  C10 UNK     1      20.018   5.928  33.632  1.00  0.00     0.152 C 
BRANCH  18  19
HETATM   19  C15 UNK     1      20.838   6.066  32.393  1.00  0.00    -0.017 C 
HETATM   20  C17 UNK     1      22.175   6.020  32.374  1.00  0.00     0.008 C 
ENDBRANCH  18  19
ENDBRANCH  17  18
BRANCH  17  21
HETATM   21  C9  UNK     1      18.309   7.623  34.153  1.00  0.00     0.152 C 
BRANCH  21  22
HETATM   22  C14 UNK     1      19.527   8.149  34.837  1.00  0.00    -0.017 C 
HETATM   23  C16 UNK     1      20.136   9.291  34.497  1.00  0.00     0.008 C 
ENDBRANCH  21  22
ENDBRANCH  17  21
ENDBRANCH  15  17
ENDBRANCH  13  15
ENDBRANCH   5  13
TORSDOF 7
ENDMDL
MODEL 10
REMARK VINA RESULT:      -6.9      6.880     11.123
REMARK  7 active torsions:
REMARK  status: ('A' for Active; 'I' for Inactive)
REMARK    1  A    between atoms: C10_15  and  N1_4 
REMARK    2  A    between atoms: C8_13  and  N1_4 
REMARK    3  A    between atoms: C9_14  and  N1_4 
REMARK    4  A    between atoms: C3_8  and  N2_5 
REMARK    5  A    between atoms: C8_13  and  N2_5 
REMARK    6  A    between atoms: C14_19  and  C9_14 
REMARK    7  A    between atoms: C10_15  and  C15_20 
ROOT
HETATM    1  O1  UNK     1      19.366  -1.439  33.918  1.00  0.00    -0.275 OA
HETATM    2  O2  UNK     1      18.609   0.019  32.328  1.00  0.00    -0.260 OA
HETATM    3  C1  UNK     1      18.485  -1.292  36.191  1.00  0.00     0.004 A 
HETATM    4  C2  UNK     1      19.325  -1.892  35.252  1.00  0.00     0.092 A 
HETATM    5  C3  UNK     1      20.162  -3.455  36.875  1.00  0.00     0.036 A 
HETATM    6  C4  UNK     1      17.639  -0.170  35.764  1.00  0.00    -0.043 A 
HETATM    7  C5  UNK     1      20.160  -2.963  35.574  1.00  0.00     0.067 A 
HETATM    8  C6  UNK     1      18.501  -1.802  37.496  1.00  0.00     0.017 A 
HETATM    9  C7  UNK     1      19.333  -2.875  37.835  1.00  0.00     0.030 A 
HETATM   10  C11 UNK     1      17.699   0.240  34.489  1.00  0.00     0.090 A 
HETATM   11  C12 UNK     1      16.725   0.497  36.750  1.00  0.00     0.049 C 
HETATM   12  C13 UNK     1      18.579  -0.383  33.486  1.00  0.00     0.288 A 
ENDROOT
BRANCH   5  13
HETATM   13  N2  UNK     1      20.988  -4.524  37.219  1.00  0.00    -0.333 N 
HETATM   14  H4  UNK     1      21.948  -4.263  37.432  1.00  0.00     0.168 HD
BRANCH  13  15
HETATM   15  C8  UNK     1      20.679  -5.868  37.440  1.00  0.00     0.174 C 
HETATM   16  S1  UNK     1      20.293  -6.330  39.020  1.00  0.00    -0.041 SA
BRANCH  15  17
HETATM   17  N1  UNK     1      20.778  -6.759  36.370  1.00  0.00    -0.351 N 
BRANCH  17  18
HETATM   18  C10 UNK     1      21.646  -7.937  36.425  1.00  0.00     0.152 C 
BRANCH  18  19
HETATM   19  C15 UNK     1      21.375  -8.798  35.236  1.00  0.00    -0.017 C 
HETATM   20  C17 UNK     1      21.473 -10.132  35.245  1.00  0.00     0.008 C 
ENDBRANCH  18  19
ENDBRANCH  17  18
BRANCH  17  21
HETATM   21  C9  UNK     1      19.844  -6.742  35.246  1.00  0.00     0.152 C 
BRANCH  21  22
HETATM   22  C14 UNK     1      18.449  -6.666  35.771  1.00  0.00    -0.017 C 
HETATM   23  C16 UNK     1      17.492  -7.551  35.472  1.00  0.00     0.008 C 
ENDBRANCH  21  22
ENDBRANCH  17  21
ENDBRANCH  15  17
ENDBRANCH  13  15
ENDBRANCH   5  13
TORSDOF 7
ENDMDL
