MODEL 1
REMARK VINA RESULT:      -7.6      0.000      0.000
REMARK  5 active torsions:
REMARK  status: ('A' for Active; 'I' for Inactive)
REMARK    1  A    between atoms: C14_19  and  O3_3 
REMARK    2  A    between atoms: C1_6  and  N1_5 
REMARK    3  A    between atoms: C2_7  and  N1_5 
REMARK    4  A    between atoms: C3_8  and  N1_5 
REMARK    5  A    between atoms: C12_17  and  C14_19 
ROOT
HETATM    1  O1  UNK     1      18.168   2.876  32.611  1.00  0.00    -0.274 OA
HETATM    2  O2  UNK     1      18.437   0.670  32.079  1.00  0.00    -0.259 OA
HETATM    3  C1  UNK     1      17.918   6.536  32.811  1.00  0.00     0.032 A 
HETATM    4  C4  UNK     1      17.886   5.190  33.171  1.00  0.00     0.067 A 
HETATM    5  C5  UNK     1      18.210   4.227  32.216  1.00  0.00     0.091 A 
HETATM    6  C6  UNK     1      18.564   4.575  30.917  1.00  0.00    -0.001 A 
HETATM    7  C7  UNK     1      18.271   6.903  31.511  1.00  0.00     0.030 A 
HETATM    8  C8  UNK     1      18.594   5.927  30.565  1.00  0.00     0.016 A 
HETATM    9  C11 UNK     1      18.891   3.520  29.971  1.00  0.00     0.039 A 
HETATM   10  C12 UNK     1      18.850   2.238  30.350  1.00  0.00     0.114 A 
HETATM   11  C13 UNK     1      18.476   1.844  31.728  1.00  0.00     0.305 A 
ENDROOT
BRANCH   3  12
HETATM   12  N1  UNK     1      17.592   7.528  33.760  1.00  0.00    -0.382 N 
BRANCH  12  13
HETATM   13  C2  UNK     1      18.338   8.769  33.808  1.00  0.00     0.118 C 
HETATM   14  C9  UNK     1      19.665   8.582  34.467  1.00  0.00     0.026 C 
ENDBRANCH  12  13
BRANCH  12  15
HETATM   15  C3  UNK     1      16.500   7.322  34.691  1.00  0.00     0.118 C 
HETATM   16  C10 UNK     1      15.179   7.578  34.042  1.00  0.00     0.026 C 
ENDBRANCH  12  15
ENDBRANCH   3  12
BRANCH  10  17
HETATM   17  C14 UNK     1      19.196   1.246  29.325  1.00  0.00     0.182 C 
HETATM   18  O4  UNK     1      18.564   1.065  28.303  1.00  0.00    -0.646 OA
BRANCH  17  19
HETATM   19  O3  UNK     1      20.310   0.582  29.698  1.00  0.00    -0.772 OA
HETATM   20  H15 UNK     1      21.077   0.799  29.127  1.00  0.00     0.167 HD
ENDBRANCH  17  19
ENDBRANCH  10  17
TORSDOF 5
ENDMDL
MODEL 2
REMARK VINA RESULT:      -7.6      0.158      1.717
REMARK  5 active torsions:
REMARK  status: ('A' for Active; 'I' for Inactive)
REMARK    1  A    between atoms: C14_19  and  O3_3 
REMARK    2  A    between atoms: C1_6  and  N1_5 
REMARK    3  A    between atoms: C2_7  and  N1_5 
REMARK    4  A    between atoms: C3_8  and  N1_5 
REMARK    5  A    between atoms: C12_17  and  C14_19 
ROOT
HETATM    1  O1  UNK     1      18.155   3.025  32.666  1.00  0.00    -0.274 OA
HETATM    2  O2  UNK     1      18.403   0.816  32.133  1.00  0.00    -0.259 OA
HETATM    3  C1  UNK     1      17.930   6.686  32.866  1.00  0.00     0.032 A 
HETATM    4  C4  UNK     1      17.894   5.340  33.227  1.00  0.00     0.067 A 
HETATM    5  C5  UNK     1      18.200   4.375  32.270  1.00  0.00     0.091 A 
HETATM    6  C6  UNK     1      18.541   4.720  30.967  1.00  0.00    -0.001 A 
HETATM    7  C7  UNK     1      18.271   7.050  31.562  1.00  0.00     0.030 A 
HETATM    8  C8  UNK     1      18.576   6.071  30.613  1.00  0.00     0.016 A 
HETATM    9  C11 UNK     1      18.851   3.661  30.017  1.00  0.00     0.039 A 
HETATM   10  C12 UNK     1      18.806   2.380  30.398  1.00  0.00     0.114 A 
HETATM   11  C13 UNK     1      18.445   1.990  31.780  1.00  0.00     0.305 A 
ENDROOT
BRANCH   3  12
HETATM   12  N1  UNK     1      17.622   7.680  33.819  1.00  0.00    -0.382 N 
BRANCH  12  13
HETATM   13  C2  UNK     1      16.516   7.498  34.736  1.00  0.00     0.118 C 
HETATM   14  C9  UNK     1      15.204   7.729  34.060  1.00  0.00     0.026 C 
ENDBRANCH  12  13
BRANCH  12  15
HETATM   15  C3  UNK     1      18.415   8.891  33.899  1.00  0.00     0.118 C 
HETATM   16  C10 UNK     1      19.763   8.618  34.483  1.00  0.00     0.026 C 
ENDBRANCH  12  15
ENDBRANCH   3  12
BRANCH  10  17
HETATM   17  C14 UNK     1      19.134   1.385  29.369  1.00  0.00     0.182 C 
HETATM   18  O4  UNK     1      18.498   1.219  28.347  1.00  0.00    -0.646 OA
BRANCH  17  19
HETATM   19  O3  UNK     1      20.236   0.701  29.740  1.00  0.00    -0.772 OA
HETATM   20  H15 UNK     1      20.252   0.523  30.705  1.00  0.00     0.167 HD
ENDBRANCH  17  19
ENDBRANCH  10  17
TORSDOF 5
ENDMDL
MODEL 3
REMARK VINA RESULT:      -6.9     22.272     24.015
REMARK  5 active torsions:
REMARK  status: ('A' for Active; 'I' for Inactive)
REMARK    1  A    between atoms: C14_19  and  O3_3 
REMARK    2  A    between atoms: C1_6  and  N1_5 
REMARK    3  A    between atoms: C2_7  and  N1_5 
REMARK    4  A    between atoms: C3_8  and  N1_5 
REMARK    5  A    between atoms: C12_17  and  C14_19 
ROOT
HETATM    1  O1  UNK     1      13.796   4.768   9.213  1.00  0.00    -0.274 OA
HETATM    2  O2  UNK     1      15.936   4.115   9.683  1.00  0.00    -0.259 OA
HETATM    3  C1  UNK     1      10.595   6.452   8.570  1.00  0.00     0.032 A 
HETATM    4  C4  UNK     1      11.551   5.449   8.721  1.00  0.00     0.067 A 
HETATM    5  C5  UNK     1      12.854   5.804   9.068  1.00  0.00     0.091 A 
HETATM    6  C6  UNK     1      13.223   7.130   9.268  1.00  0.00    -0.001 A 
HETATM    7  C7  UNK     1      10.948   7.789   8.767  1.00  0.00     0.030 A 
HETATM    8  C8  UNK     1      12.258   8.129   9.115  1.00  0.00     0.016 A 
HETATM    9  C11 UNK     1      14.600   7.430   9.630  1.00  0.00     0.039 A 
HETATM   10  C12 UNK     1      15.492   6.442   9.767  1.00  0.00     0.114 A 
HETATM   11  C13 UNK     1      15.121   5.024   9.559  1.00  0.00     0.305 A 
ENDROOT
BRANCH   3  12
HETATM   12  N1  UNK     1       9.271   6.117   8.217  1.00  0.00    -0.382 N 
BRANCH  12  13
HETATM   13  C2  UNK     1       8.742   6.491   6.921  1.00  0.00     0.118 C 
HETATM   14  C9  UNK     1       9.683   6.122   5.821  1.00  0.00     0.026 C 
ENDBRANCH  12  13
BRANCH  12  15
HETATM   15  C3  UNK     1       8.428   5.384   9.140  1.00  0.00     0.118 C 
HETATM   16  C10 UNK     1       7.663   6.312  10.028  1.00  0.00     0.026 C 
ENDBRANCH  12  15
ENDBRANCH   3  12
BRANCH  10  17
HETATM   17  C14 UNK     1      16.855   6.844  10.133  1.00  0.00     0.182 C 
HETATM   18  O4  UNK     1      17.122   7.673  10.981  1.00  0.00    -0.646 OA
BRANCH  17  19
HETATM   19  O3  UNK     1      17.743   6.154   9.388  1.00  0.00    -0.772 OA
HETATM   20  H15 UNK     1      17.579   5.187   9.421  1.00  0.00     0.167 HD
ENDBRANCH  17  19
ENDBRANCH  10  17
TORSDOF 5
ENDMDL
MODEL 4
REMARK VINA RESULT:      -6.7      4.804      6.101
REMARK  5 active torsions:
REMARK  status: ('A' for Active; 'I' for Inactive)
REMARK    1  A    between atoms: C14_19  and  O3_3 
REMARK    2  A    between atoms: C1_6  and  N1_5 
REMARK    3  A    between atoms: C2_7  and  N1_5 
REMARK    4  A    between atoms: C3_8  and  N1_5 
REMARK    5  A    between atoms: C12_17  and  C14_19 
ROOT
HETATM    1  O1  UNK     1      18.597   1.401  31.637  1.00  0.00    -0.274 OA
HETATM    2  O2  UNK     1      18.882   2.051  29.465  1.00  0.00    -0.259 OA
HETATM    3  C1  UNK     1      18.429  -0.232  34.924  1.00  0.00     0.032 A 
HETATM    4  C4  UNK     1      18.296   0.721  33.917  1.00  0.00     0.067 A 
HETATM    5  C5  UNK     1      18.746   0.417  32.633  1.00  0.00     0.091 A 
HETATM    6  C6  UNK     1      19.323  -0.812  32.333  1.00  0.00    -0.001 A 
HETATM    7  C7  UNK     1      19.006  -1.472  34.640  1.00  0.00     0.030 A 
HETATM    8  C8  UNK     1      19.452  -1.763  33.349  1.00  0.00     0.016 A 
HETATM    9  C11 UNK     1      19.770  -1.066  30.971  1.00  0.00     0.039 A 
HETATM   10  C12 UNK     1      19.626  -0.127  30.029  1.00  0.00     0.114 A 
HETATM   11  C13 UNK     1      19.015   1.188  30.327  1.00  0.00     0.305 A 
ENDROOT
BRANCH   3  12
HETATM   12  N1  UNK     1      17.982   0.055  36.231  1.00  0.00    -0.382 N 
BRANCH  12  13
HETATM   13  C2  UNK     1      18.069   1.403  36.755  1.00  0.00     0.118 C 
HETATM   14  C9  UNK     1      17.018   1.654  37.786  1.00  0.00     0.026 C 
ENDBRANCH  12  13
BRANCH  12  15
HETATM   15  C3  UNK     1      17.421  -0.992  37.062  1.00  0.00     0.118 C 
HETATM   16  C10 UNK     1      18.448  -1.561  37.985  1.00  0.00     0.026 C 
ENDBRANCH  12  15
ENDBRANCH   3  12
BRANCH  10  17
HETATM   17  C14 UNK     1      20.109  -0.475  28.687  1.00  0.00     0.182 C 
HETATM   18  O4  UNK     1      21.268  -0.720  28.416  1.00  0.00    -0.646 OA
BRANCH  17  19
HETATM   19  O3  UNK     1      19.072  -0.478  27.824  1.00  0.00    -0.772 OA
HETATM   20  H15 UNK     1      19.282   0.003  26.995  1.00  0.00     0.167 HD
ENDBRANCH  17  19
ENDBRANCH  10  17
TORSDOF 5
ENDMDL
MODEL 5
REMARK VINA RESULT:      -6.5      4.281      6.583
REMARK  5 active torsions:
REMARK  status: ('A' for Active; 'I' for Inactive)
REMARK    1  A    between atoms: C14_19  and  O3_3 
REMARK    2  A    between atoms: C1_6  and  N1_5 
REMARK    3  A    between atoms: C2_7  and  N1_5 
REMARK    4  A    between atoms: C3_8  and  N1_5 
REMARK    5  A    between atoms: C12_17  and  C14_19 
ROOT
HETATM    1  O1  UNK     1      19.344  -0.223  31.076  1.00  0.00    -0.274 OA
HETATM    2  O2  UNK     1      19.581   0.383  28.885  1.00  0.00    -0.259 OA
HETATM    3  C1  UNK     1      18.721  -0.558  34.682  1.00  0.00     0.032 A 
HETATM    4  C4  UNK     1      19.098  -0.860  33.374  1.00  0.00     0.067 A 
HETATM    5  C5  UNK     1      18.955   0.113  32.387  1.00  0.00     0.091 A 
HETATM    6  C6  UNK     1      18.449   1.377  32.674  1.00  0.00    -0.001 A 
HETATM    7  C7  UNK     1      18.211   0.705  34.987  1.00  0.00     0.030 A 
HETATM    8  C8  UNK     1      18.075   1.672  33.987  1.00  0.00     0.016 A 
HETATM    9  C11 UNK     1      18.328   2.347  31.596  1.00  0.00     0.039 A 
HETATM   10  C12 UNK     1      18.699   2.023  30.352  1.00  0.00     0.114 A 
HETATM   11  C13 UNK     1      19.240   0.684  30.025  1.00  0.00     0.305 A 
ENDROOT
BRANCH   3  12
HETATM   12  N1  UNK     1      18.855  -1.529  35.696  1.00  0.00    -0.382 N 
BRANCH  12  13
HETATM   13  C2  UNK     1      20.108  -2.232  35.876  1.00  0.00     0.118 C 
HETATM   14  C9  UNK     1      19.886  -3.693  36.097  1.00  0.00     0.026 C 
ENDBRANCH  12  13
BRANCH  12  15
HETATM   15  C3  UNK     1      17.744  -1.827  36.579  1.00  0.00     0.118 C 
HETATM   16  C10 UNK     1      17.956  -1.236  37.935  1.00  0.00     0.026 C 
ENDBRANCH  12  15
ENDBRANCH   3  12
BRANCH  10  17
HETATM   17  C14 UNK     1      18.538   3.068  29.334  1.00  0.00     0.182 C 
HETATM   18  O4  UNK     1      18.870   4.228  29.482  1.00  0.00    -0.646 OA
BRANCH  17  19
HETATM   19  O3  UNK     1      17.973   2.537  28.230  1.00  0.00    -0.772 OA
HETATM   20  H15 UNK     1      18.515   2.691  27.427  1.00  0.00     0.167 HD
ENDBRANCH  17  19
ENDBRANCH  10  17
TORSDOF 5
ENDMDL
MODEL 6
REMARK VINA RESULT:      -6.5     14.607     18.351
REMARK  5 active torsions:
REMARK  status: ('A' for Active; 'I' for Inactive)
REMARK    1  A    between atoms: C14_19  and  O3_3 
REMARK    2  A    between atoms: C1_6  and  N1_5 
REMARK    3  A    between atoms: C2_7  and  N1_5 
REMARK    4  A    between atoms: C3_8  and  N1_5 
REMARK    5  A    between atoms: C12_17  and  C14_19 
ROOT
HETATM    1  O1  UNK     1      19.374   1.555  15.435  1.00  0.00    -0.274 OA
HETATM    2  O2  UNK     1      19.381   3.518  16.605  1.00  0.00    -0.259 OA
HETATM    3  C1  UNK     1      19.257  -1.892  14.169  1.00  0.00     0.032 A 
HETATM    4  C4  UNK     1      19.367  -0.503  14.205  1.00  0.00     0.067 A 
HETATM    5  C5  UNK     1      19.258   0.152  15.431  1.00  0.00     0.091 A 
HETATM    6  C6  UNK     1      19.044  -0.545  16.616  1.00  0.00    -0.001 A 
HETATM    7  C7  UNK     1      19.042  -2.607  15.348  1.00  0.00     0.030 A 
HETATM    8  C8  UNK     1      18.936  -1.937  16.570  1.00  0.00     0.016 A 
HETATM    9  C11 UNK     1      18.941   0.201  17.861  1.00  0.00     0.039 A 
HETATM   10  C12 UNK     1      19.052   1.534  17.860  1.00  0.00     0.114 A 
HETATM   11  C13 UNK     1      19.280   2.295  16.611  1.00  0.00     0.305 A 
ENDROOT
BRANCH   3  12
HETATM   12  N1  UNK     1      19.362  -2.575  12.939  1.00  0.00    -0.382 N 
BRANCH  12  13
HETATM   13  C2  UNK     1      19.426  -1.837  11.694  1.00  0.00     0.118 C 
HETATM   14  C9  UNK     1      20.840  -1.623  11.260  1.00  0.00     0.026 C 
ENDBRANCH  12  13
BRANCH  12  15
HETATM   15  C3  UNK     1      19.420  -4.023  12.906  1.00  0.00     0.118 C 
HETATM   16  C10 UNK     1      18.972  -4.554  11.582  1.00  0.00     0.026 C 
ENDBRANCH  12  15
ENDBRANCH   3  12
BRANCH  10  17
HETATM   17  C14 UNK     1      18.933   2.197  19.164  1.00  0.00     0.182 C 
HETATM   18  O4  UNK     1      18.136   1.880  20.026  1.00  0.00    -0.646 OA
BRANCH  17  19
HETATM   19  O3  UNK     1      19.837   3.195  19.245  1.00  0.00    -0.772 OA
HETATM   20  H15 UNK     1      19.410   4.078  19.267  1.00  0.00     0.167 HD
ENDBRANCH  17  19
ENDBRANCH  10  17
TORSDOF 5
ENDMDL
MODEL 7
REMARK VINA RESULT:      -6.4     22.582     24.429
REMARK  5 active torsions:
REMARK  status: ('A' for Active; 'I' for Inactive)
REMARK    1  A    between atoms: C14_19  and  O3_3 
REMARK    2  A    between atoms: C1_6  and  N1_5 
REMARK    3  A    between atoms: C2_7  and  N1_5 
REMARK    4  A    between atoms: C3_8  and  N1_5 
REMARK    5  A    between atoms: C12_17  and  C14_19 
ROOT
HETATM    1  O1  UNK     1      10.655   8.123   9.666  1.00  0.00    -0.274 OA
HETATM    2  O2  UNK     1       8.380   8.339   9.638  1.00  0.00    -0.259 OA
HETATM    3  C1  UNK     1      14.204   7.264   9.265  1.00  0.00     0.032 A 
HETATM    4  C4  UNK     1      13.041   7.898   9.698  1.00  0.00     0.067 A 
HETATM    5  C5  UNK     1      11.811   7.462   9.210  1.00  0.00     0.091 A 
HETATM    6  C6  UNK     1      11.715   6.411   8.304  1.00  0.00    -0.001 A 
HETATM    7  C7  UNK     1      14.126   6.207   8.356  1.00  0.00     0.030 A 
HETATM    8  C8  UNK     1      12.886   5.780   7.876  1.00  0.00     0.016 A 
HETATM    9  C11 UNK     1      10.398   6.005   7.835  1.00  0.00     0.039 A 
HETATM   10  C12 UNK     1       9.303   6.637   8.272  1.00  0.00     0.114 A 
HETATM   11  C13 UNK     1       9.382   7.758   9.236  1.00  0.00     0.305 A 
ENDROOT
BRANCH   3  12
HETATM   12  N1  UNK     1      15.461   7.690   9.744  1.00  0.00    -0.382 N 
BRANCH  12  13
HETATM   13  C2  UNK     1      15.676   9.078  10.101  1.00  0.00     0.118 C 
HETATM   14  C9  UNK     1      15.837   9.933   8.887  1.00  0.00     0.026 C 
ENDBRANCH  12  13
BRANCH  12  15
HETATM   15  C3  UNK     1      16.548   6.744   9.898  1.00  0.00     0.118 C 
HETATM   16  C10 UNK     1      17.715   7.367  10.595  1.00  0.00     0.026 C 
ENDBRANCH  12  15
ENDBRANCH   3  12
BRANCH  10  17
HETATM   17  C14 UNK     1       8.021   6.156   7.741  1.00  0.00     0.182 C 
HETATM   18  O4  UNK     1       7.662   4.995   7.761  1.00  0.00    -0.646 OA
BRANCH  17  19
HETATM   19  O3  UNK     1       7.324   7.195   7.239  1.00  0.00    -0.772 OA
HETATM   20  H15 UNK     1       6.693   6.914   6.542  1.00  0.00     0.167 HD
ENDBRANCH  17  19
ENDBRANCH  10  17
TORSDOF 5
ENDMDL
MODEL 8
REMARK VINA RESULT:      -6.4      4.822      6.004
REMARK  5 active torsions:
REMARK  status: ('A' for Active; 'I' for Inactive)
REMARK    1  A    between atoms: C14_19  and  O3_3 
REMARK    2  A    between atoms: C1_6  and  N1_5 
REMARK    3  A    between atoms: C2_7  and  N1_5 
REMARK    4  A    between atoms: C3_8  and  N1_5 
REMARK    5  A    between atoms: C12_17  and  C14_19 
ROOT
HETATM    1  O1  UNK     1      19.788  -1.984  32.280  1.00  0.00    -0.274 OA
HETATM    2  O2  UNK     1      20.702  -2.954  30.424  1.00  0.00    -0.259 OA
HETATM    3  C1  UNK     1      18.245   0.128  34.861  1.00  0.00     0.032 A 
HETATM    4  C4  UNK     1      18.831  -0.968  34.229  1.00  0.00     0.067 A 
HETATM    5  C5  UNK     1      19.199  -0.860  32.890  1.00  0.00     0.091 A 
HETATM    6  C6  UNK     1      18.997   0.312  32.168  1.00  0.00    -0.001 A 
HETATM    7  C7  UNK     1      18.036   1.312  34.152  1.00  0.00     0.030 A 
HETATM    8  C8  UNK     1      18.411   1.407  32.809  1.00  0.00     0.016 A 
HETATM    9  C11 UNK     1      19.407   0.358  30.772  1.00  0.00     0.039 A 
HETATM   10  C12 UNK     1      19.966  -0.713  30.198  1.00  0.00     0.114 A 
HETATM   11  C13 UNK     1      20.189  -1.970  30.947  1.00  0.00     0.305 A 
ENDROOT
BRANCH   3  12
HETATM   12  N1  UNK     1      17.863   0.040  36.216  1.00  0.00    -0.382 N 
BRANCH  12  13
HETATM   13  C2  UNK     1      17.526  -1.242  36.800  1.00  0.00     0.118 C 
HETATM   14  C9  UNK     1      18.363  -1.529  38.004  1.00  0.00     0.026 C 
ENDBRANCH  12  13
BRANCH  12  15
HETATM   15  C3  UNK     1      17.814   1.229  37.044  1.00  0.00     0.118 C 
HETATM   16  C10 UNK     1      16.405   1.600  37.377  1.00  0.00     0.026 C 
ENDBRANCH  12  15
ENDBRANCH   3  12
BRANCH  10  17
HETATM   17  C14 UNK     1      20.344  -0.570  28.787  1.00  0.00     0.182 C 
HETATM   18  O4  UNK     1      21.487  -0.466  28.389  1.00  0.00    -0.646 OA
BRANCH  17  19
HETATM   19  O3  UNK     1      19.233  -0.573  28.022  1.00  0.00    -0.772 OA
HETATM   20  H15 UNK     1      19.273  -1.253  27.316  1.00  0.00     0.167 HD
ENDBRANCH  17  19
ENDBRANCH  10  17
TORSDOF 5
ENDMDL
MODEL 9
REMARK VINA RESULT:      -6.4     22.125     23.995
REMARK  5 active torsions:
REMARK  status: ('A' for Active; 'I' for Inactive)
REMARK    1  A    between atoms: C14_19  and  O3_3 
REMARK    2  A    between atoms: C1_6  and  N1_5 
REMARK    3  A    between atoms: C2_7  and  N1_5 
REMARK    4  A    between atoms: C3_8  and  N1_5 
REMARK    5  A    between atoms: C12_17  and  C14_19 
ROOT
HETATM    1  O1  UNK     1      11.249   5.044   9.879  1.00  0.00    -0.274 OA
HETATM    2  O2  UNK     1       9.186   4.060   9.914  1.00  0.00    -0.259 OA
HETATM    3  C1  UNK     1      14.270   7.078   9.397  1.00  0.00     0.032 A 
HETATM    4  C4  UNK     1      13.413   6.074   9.845  1.00  0.00     0.067 A 
HETATM    5  C5  UNK     1      12.089   6.071   9.410  1.00  0.00     0.091 A 
HETATM    6  C6  UNK     1      11.602   7.043   8.542  1.00  0.00    -0.001 A 
HETATM    7  C7  UNK     1      13.798   8.061   8.526  1.00  0.00     0.030 A 
HETATM    8  C8  UNK     1      12.468   8.046   8.098  1.00  0.00     0.016 A 
HETATM    9  C11 UNK     1      10.209   6.981   8.127  1.00  0.00     0.039 A 
HETATM   10  C12 UNK     1       9.415   6.003   8.576  1.00  0.00     0.114 A 
HETATM   11  C13 UNK     1       9.912   4.958   9.500  1.00  0.00     0.305 A 
ENDROOT
BRANCH   3  12
HETATM   12  N1  UNK     1      15.614   7.101   9.826  1.00  0.00    -0.382 N 
BRANCH  12  13
HETATM   13  C2  UNK     1      16.481   5.967   9.579  1.00  0.00     0.118 C 
HETATM   14  C9  UNK     1      17.871   6.407   9.253  1.00  0.00     0.026 C 
ENDBRANCH  12  13
BRANCH  12  15
HETATM   15  C3  UNK     1      16.147   8.264  10.508  1.00  0.00     0.118 C 
HETATM   16  C10 UNK     1      15.684   8.319  11.928  1.00  0.00     0.026 C 
ENDBRANCH  12  15
ENDBRANCH   3  12
BRANCH  10  17
HETATM   17  C14 UNK     1       8.025   6.025   8.101  1.00  0.00     0.182 C 
HETATM   18  O4  UNK     1       7.354   7.032   7.989  1.00  0.00    -0.646 OA
BRANCH  17  19
HETATM   19  O3  UNK     1       7.627   4.768   7.817  1.00  0.00    -0.772 OA
HETATM   20  H15 UNK     1       6.945   4.748   7.112  1.00  0.00     0.167 HD
ENDBRANCH  17  19
ENDBRANCH  10  17
TORSDOF 5
ENDMDL
MODEL 10
REMARK VINA RESULT:      -6.4      3.107      4.822
REMARK  5 active torsions:
REMARK  status: ('A' for Active; 'I' for Inactive)
REMARK    1  A    between atoms: C14_19  and  O3_3 
REMARK    2  A    between atoms: C1_6  and  N1_5 
REMARK    3  A    between atoms: C2_7  and  N1_5 
REMARK    4  A    between atoms: C3_8  and  N1_5 
REMARK    5  A    between atoms: C12_17  and  C14_19 
ROOT
HETATM    1  O1  UNK     1      18.241   2.749  35.483  1.00  0.00    -0.274 OA
HETATM    2  O2  UNK     1      18.239   1.419  37.342  1.00  0.00    -0.259 OA
HETATM    3  C1  UNK     1      18.259   4.293  32.150  1.00  0.00     0.032 A 
HETATM    4  C4  UNK     1      18.243   4.147  33.536  1.00  0.00     0.067 A 
HETATM    5  C5  UNK     1      18.257   2.864  34.080  1.00  0.00     0.091 A 
HETATM    6  C6  UNK     1      18.287   1.729  33.277  1.00  0.00    -0.001 A 
HETATM    7  C7  UNK     1      18.290   3.165  31.329  1.00  0.00     0.030 A 
HETATM    8  C8  UNK     1      18.304   1.885  31.889  1.00  0.00     0.016 A 
HETATM    9  C11 UNK     1      18.301   0.419  33.911  1.00  0.00     0.039 A 
HETATM   10  C12 UNK     1      18.285   0.315  35.245  1.00  0.00     0.114 A 
HETATM   11  C13 UNK     1      18.253   1.510  36.118  1.00  0.00     0.305 A 
ENDROOT
BRANCH   3  12
HETATM   12  N1  UNK     1      18.244   5.582  31.577  1.00  0.00    -0.382 N 
BRANCH  12  13
HETATM   13  C2  UNK     1      17.671   6.699  32.301  1.00  0.00     0.118 C 
HETATM   14  C9  UNK     1      16.830   7.552  31.409  1.00  0.00     0.026 C 
ENDBRANCH  12  13
BRANCH  12  15
HETATM   15  C3  UNK     1      18.811   5.809  30.262  1.00  0.00     0.118 C 
HETATM   16  C10 UNK     1      20.299   5.937  30.328  1.00  0.00     0.026 C 
ENDBRANCH  12  15
ENDBRANCH   3  12
BRANCH  10  17
HETATM   17  C14 UNK     1      18.301  -1.048  35.790  1.00  0.00     0.182 C 
HETATM   18  O4  UNK     1      19.270  -1.571  36.303  1.00  0.00    -0.646 OA
BRANCH  17  19
HETATM   19  O3  UNK     1      17.085  -1.610  35.630  1.00  0.00    -0.772 OA
HETATM   20  H15 UNK     1      16.365  -1.029  35.958  1.00  0.00     0.167 HD
ENDBRANCH  17  19
ENDBRANCH  10  17
TORSDOF 5
ENDMDL
