MODEL 1
REMARK VINA RESULT:      -9.8      0.000      0.000
REMARK  3 active torsions:
REMARK  status: ('A' for Active; 'I' for Inactive)
REMARK    1  A    between atoms: C13_21  and  O2_3 
REMARK    2  A    between atoms: N2_6  and  N3_7 
REMARK    3  A    between atoms: C7_15  and  N3_7 
ROOT
HETATM    1  S1  UNK     1      17.921  -1.698  37.489  1.00  0.00    -0.060 SA
HETATM    2  O1  UNK     1      18.835   0.543  31.693  1.00  0.00    -0.271 OA
HETATM    3  O3  UNK     1      18.959  -1.534  32.619  1.00  0.00    -0.259 OA
HETATM    4  N4  UNK     1      19.237  -1.753  35.264  1.00  0.00    -0.222 NA
HETATM    5  C7  UNK     1      19.037  -2.395  36.391  1.00  0.00     0.187 A 
HETATM    6  C8  UNK     1      18.491   0.262  34.116  1.00  0.00     0.070 A 
HETATM    7  C9  UNK     1      18.322   2.467  33.078  1.00  0.00     0.002 A 
HETATM    8  C10 UNK     1      18.450  -0.618  35.257  1.00  0.00     0.082 A 
HETATM    9  C11 UNK     1      18.605   1.924  31.831  1.00  0.00     0.123 A 
HETATM   10  C12 UNK     1      18.274   1.583  34.230  1.00  0.00     0.034 A 
HETATM   11  C13 UNK     1      18.671   2.714  30.686  1.00  0.00     0.102 A 
HETATM   12  C14 UNK     1      18.781  -0.330  32.775  1.00  0.00     0.301 A 
HETATM   13  C15 UNK     1      18.096   3.842  33.181  1.00  0.00     0.014 A 
HETATM   14  C16 UNK     1      17.670  -0.418  36.376  1.00  0.00     0.086 A 
HETATM   15  C17 UNK     1      18.445   4.084  30.795  1.00  0.00     0.040 A 
HETATM   16  C18 UNK     1      18.156   4.647  32.041  1.00  0.00     0.004 A 
ENDROOT
BRANCH   5  17
HETATM   17  N3  UNK     1      19.657  -3.563  36.726  1.00  0.00    -0.255 N 
HETATM   18  H12 UNK     1      20.094  -3.604  37.642  1.00  0.00     0.191 HD
BRANCH  17  19
HETATM   19  N2  UNK     1      19.927  -4.560  35.846  1.00  0.00    -0.182 NA
HETATM   20  C5  UNK     1      20.139  -5.704  36.408  1.00  0.00     0.036 C 
HETATM   21  C3  UNK     1      20.136  -5.883  37.904  1.00  0.00     0.086 C 
HETATM   22  C4  UNK     1      20.453  -6.920  35.579  1.00  0.00     0.086 C 
HETATM   23  C1  UNK     1      19.306  -7.114  38.263  1.00  0.00     0.277 C 
HETATM   24  N1  UNK     1      19.750  -8.301  37.513  1.00  0.00     0.084 N 
HETATM   25  C2  UNK     1      19.605  -8.093  36.062  1.00  0.00     0.277 C 
HETATM   26  C6  UNK     1      18.994  -9.481  37.935  1.00  0.00     0.309 C 
ENDBRANCH  17  19
ENDBRANCH   5  17
BRANCH  11  27
HETATM   27  O2  UNK     1      18.951   2.169  29.471  1.00  0.00    -0.353 OA
HETATM   28  C19 UNK     1      17.847   1.906  28.606  1.00  0.00     0.210 C 
ENDBRANCH  11  27
TORSDOF 3
ENDMDL
MODEL 2
REMARK VINA RESULT:      -9.2      3.494     10.214
REMARK  3 active torsions:
REMARK  status: ('A' for Active; 'I' for Inactive)
REMARK    1  A    between atoms: C13_21  and  O2_3 
REMARK    2  A    between atoms: N2_6  and  N3_7 
REMARK    3  A    between atoms: C7_15  and  N3_7 
ROOT
HETATM    1  S1  UNK     1      20.270  -2.404  36.885  1.00  0.00    -0.060 SA
HETATM    2  O1  UNK     1      20.680  -8.529  35.553  1.00  0.00    -0.271 OA
HETATM    3  O3  UNK     1      21.106  -6.626  34.375  1.00  0.00    -0.259 OA
HETATM    4  N4  UNK     1      20.005  -4.334  35.185  1.00  0.00    -0.222 NA
HETATM    5  C7  UNK     1      20.030  -3.027  35.307  1.00  0.00     0.187 A 
HETATM    6  C8  UNK     1      20.203  -6.333  36.563  1.00  0.00     0.070 A 
HETATM    7  C9  UNK     1      19.803  -8.395  37.810  1.00  0.00     0.002 A 
HETATM    8  C10 UNK     1      20.190  -4.897  36.432  1.00  0.00     0.082 A 
HETATM    9  C11 UNK     1      20.246  -9.155  36.736  1.00  0.00     0.123 A 
HETATM   10  C12 UNK     1      19.793  -6.947  37.685  1.00  0.00     0.034 A 
HETATM   11  C13 UNK     1      20.278 -10.547  36.785  1.00  0.00     0.102 A 
HETATM   12  C14 UNK     1      20.695  -7.144  35.409  1.00  0.00     0.301 A 
HETATM   13  C15 UNK     1      19.381  -9.048  38.971  1.00  0.00     0.014 A 
HETATM   14  C16 UNK     1      20.350  -4.012  37.476  1.00  0.00     0.086 A 
HETATM   15  C17 UNK     1      19.856 -11.192  37.946  1.00  0.00     0.040 A 
HETATM   16  C18 UNK     1      19.409 -10.443  39.038  1.00  0.00     0.004 A 
ENDROOT
BRANCH   5  17
HETATM   17  N3  UNK     1      19.878  -2.159  34.266  1.00  0.00    -0.255 N 
HETATM   18  H12 UNK     1      19.141  -1.466  34.350  1.00  0.00     0.191 HD
BRANCH  17  19
HETATM   19  N2  UNK     1      20.473  -2.312  33.056  1.00  0.00    -0.182 NA
HETATM   20  C5  UNK     1      19.898  -1.648  32.109  1.00  0.00     0.036 C 
HETATM   21  C3  UNK     1      18.653  -0.831  32.334  1.00  0.00     0.086 C 
HETATM   22  C4  UNK     1      20.428  -1.704  30.701  1.00  0.00     0.086 C 
HETATM   23  C1  UNK     1      18.821   0.537  31.676  1.00  0.00     0.277 C 
HETATM   24  N1  UNK     1      19.213   0.412  30.262  1.00  0.00     0.084 N 
HETATM   25  C2  UNK     1      20.503  -0.289  30.133  1.00  0.00     0.277 C 
HETATM   26  C6  UNK     1      19.288   1.732  29.636  1.00  0.00     0.309 C 
ENDBRANCH  17  19
ENDBRANCH   5  17
BRANCH  11  27
HETATM   27  O2  UNK     1      20.713 -11.279  35.724  1.00  0.00    -0.353 OA
HETATM   28  C19 UNK     1      22.121 -11.318  35.494  1.00  0.00     0.210 C 
ENDBRANCH  11  27
TORSDOF 3
ENDMDL
MODEL 3
REMARK VINA RESULT:      -9.0     16.561     20.732
REMARK  3 active torsions:
REMARK  status: ('A' for Active; 'I' for Inactive)
REMARK    1  A    between atoms: C13_21  and  O2_3 
REMARK    2  A    between atoms: N2_6  and  N3_7 
REMARK    3  A    between atoms: C7_15  and  N3_7 
ROOT
HETATM    1  S1  UNK     1      18.138  -3.886  14.681  1.00  0.00    -0.060 SA
HETATM    2  O1  UNK     1      19.355   1.770  17.127  1.00  0.00    -0.271 OA
HETATM    3  O3  UNK     1      19.141   0.984  15.000  1.00  0.00    -0.259 OA
HETATM    4  N4  UNK     1      19.404  -1.635  14.559  1.00  0.00    -0.222 NA
HETATM    5  C7  UNK     1      19.111  -2.721  13.884  1.00  0.00     0.187 A 
HETATM    6  C8  UNK     1      18.993  -0.636  16.743  1.00  0.00     0.070 A 
HETATM    7  C9  UNK     1      19.182   0.252  19.011  1.00  0.00     0.002 A 
HETATM    8  C10 UNK     1      18.818  -1.718  15.807  1.00  0.00     0.082 A 
HETATM    9  C11 UNK     1      19.360   1.537  18.514  1.00  0.00     0.123 A 
HETATM   10  C12 UNK     1      19.000  -0.841  18.071  1.00  0.00     0.034 A 
HETATM   11  C13 UNK     1      19.544   2.630  19.358  1.00  0.00     0.102 A 
HETATM   12  C14 UNK     1      19.168   0.746  16.203  1.00  0.00     0.301 A 
HETATM   13  C15 UNK     1      19.190   0.056  20.393  1.00  0.00     0.014 A 
HETATM   14  C16 UNK     1      18.092  -2.864  16.057  1.00  0.00     0.086 A 
HETATM   15  C17 UNK     1      19.550   2.427  20.736  1.00  0.00     0.040 A 
HETATM   16  C18 UNK     1      19.372   1.142  21.253  1.00  0.00     0.004 A 
ENDROOT
BRANCH   5  17
HETATM   17  N3  UNK     1      19.532  -2.967  12.610  1.00  0.00    -0.255 N 
HETATM   18  H12 UNK     1      20.351  -2.458  12.291  1.00  0.00     0.191 HD
BRANCH  17  19
HETATM   19  N2  UNK     1      18.804  -3.646  11.687  1.00  0.00    -0.182 NA
HETATM   20  C5  UNK     1      19.272  -3.552  10.487  1.00  0.00     0.036 C 
HETATM   21  C3  UNK     1      20.481  -2.717  10.153  1.00  0.00     0.086 C 
HETATM   22  C4  UNK     1      18.588  -4.244   9.340  1.00  0.00     0.086 C 
HETATM   23  C1  UNK     1      21.422  -3.525   9.262  1.00  0.00     0.277 C 
HETATM   24  N1  UNK     1      20.719  -4.066   8.086  1.00  0.00     0.084 N 
HETATM   25  C2  UNK     1      19.630  -4.972   8.494  1.00  0.00     0.277 C 
HETATM   26  C6  UNK     1      21.659  -4.766   7.209  1.00  0.00     0.309 C 
ENDBRANCH  17  19
ENDBRANCH   5  17
BRANCH  11  27
HETATM   27  O2  UNK     1      19.718   3.883  18.857  1.00  0.00    -0.353 OA
HETATM   28  C19 UNK     1      21.055   4.287  18.565  1.00  0.00     0.210 C 
ENDBRANCH  11  27
TORSDOF 3
ENDMDL
MODEL 4
REMARK VINA RESULT:      -8.8      5.693     11.231
REMARK  3 active torsions:
REMARK  status: ('A' for Active; 'I' for Inactive)
REMARK    1  A    between atoms: C13_21  and  O2_3 
REMARK    2  A    between atoms: N2_6  and  N3_7 
REMARK    3  A    between atoms: C7_15  and  N3_7 
ROOT
HETATM    1  S1  UNK     1      18.050   6.529  30.362  1.00  0.00    -0.060 SA
HETATM    2  O1  UNK     1      18.768   0.670  32.511  1.00  0.00    -0.271 OA
HETATM    3  O3  UNK     1      17.954   2.595  33.418  1.00  0.00    -0.259 OA
HETATM    4  N4  UNK     1      18.624   4.928  32.310  1.00  0.00    -0.222 NA
HETATM    5  C7  UNK     1      18.356   6.177  32.012  1.00  0.00     0.187 A 
HETATM    6  C8  UNK     1      18.850   2.763  31.214  1.00  0.00     0.070 A 
HETATM    7  C9  UNK     1      19.672   0.671  30.260  1.00  0.00     0.002 A 
HETATM    8  C10 UNK     1      18.588   4.180  31.150  1.00  0.00     0.082 A 
HETATM    9  C11 UNK     1      19.349  -0.012  31.426  1.00  0.00     0.123 A 
HETATM   10  C12 UNK     1      19.404   2.097  30.188  1.00  0.00     0.034 A 
HETATM   11  C13 UNK     1      19.582  -1.378  31.565  1.00  0.00     0.102 A 
HETATM   12  C14 UNK     1      18.486   2.033  32.466  1.00  0.00     0.301 A 
HETATM   13  C15 UNK     1      20.245  -0.037  29.201  1.00  0.00     0.014 A 
HETATM   14  C16 UNK     1      18.294   4.872  29.994  1.00  0.00     0.086 A 
HETATM   15  C17 UNK     1      20.154  -2.078  30.505  1.00  0.00     0.040 A 
HETATM   16  C18 UNK     1      20.484  -1.408  29.324  1.00  0.00     0.004 A 
ENDROOT
BRANCH   5  17
HETATM   17  N3  UNK     1      18.308   7.189  32.926  1.00  0.00    -0.255 N 
HETATM   18  H12 UNK     1      19.173   7.411  33.410  1.00  0.00     0.191 HD
BRANCH  17  19
HETATM   19  N2  UNK     1      17.159   7.740  33.391  1.00  0.00    -0.182 NA
HETATM   20  C5  UNK     1      17.333   8.868  33.995  1.00  0.00     0.036 C 
HETATM   21  C3  UNK     1      18.696   9.474  34.201  1.00  0.00     0.086 C 
HETATM   22  C4  UNK     1      16.163   9.618  34.573  1.00  0.00     0.086 C 
HETATM   23  C1  UNK     1      18.654  10.953  33.823  1.00  0.00     0.277 C 
HETATM   24  N1  UNK     1      17.568  11.658  34.524  1.00  0.00     0.084 N 
HETATM   25  C2  UNK     1      16.256  11.088  34.172  1.00  0.00     0.277 C 
HETATM   26  C6  UNK     1      17.601  13.087  34.207  1.00  0.00     0.309 C 
ENDBRANCH  17  19
ENDBRANCH   5  17
BRANCH  11  27
HETATM   27  O2  UNK     1      19.262  -2.033  32.714  1.00  0.00    -0.353 OA
HETATM   28  C19 UNK     1      20.342  -2.456  33.545  1.00  0.00     0.210 C 
ENDBRANCH  11  27
TORSDOF 3
ENDMDL
MODEL 5
REMARK VINA RESULT:      -8.7      4.899     10.949
REMARK  3 active torsions:
REMARK  status: ('A' for Active; 'I' for Inactive)
REMARK    1  A    between atoms: C13_21  and  O2_3 
REMARK    2  A    between atoms: N2_6  and  N3_7 
REMARK    3  A    between atoms: C7_15  and  N3_7 
ROOT
HETATM    1  S1  UNK     1      18.298  -6.508  37.116  1.00  0.00    -0.060 SA
HETATM    2  O1  UNK     1      24.223  -8.562  37.476  1.00  0.00    -0.271 OA
HETATM    3  O3  UNK     1      23.163  -6.674  38.181  1.00  0.00    -0.259 OA
HETATM    4  N4  UNK     1      20.834  -6.007  37.061  1.00  0.00    -0.222 NA
HETATM    5  C7  UNK     1      19.647  -5.451  37.122  1.00  0.00     0.187 A 
HETATM    6  C8  UNK     1      21.845  -8.220  36.931  1.00  0.00     0.070 A 
HETATM    7  C9  UNK     1      23.006 -10.252  36.232  1.00  0.00     0.002 A 
HETATM    8  C10 UNK     1      20.677  -7.378  37.004  1.00  0.00     0.082 A 
HETATM    9  C11 UNK     1      24.184  -9.805  36.818  1.00  0.00     0.123 A 
HETATM   10  C12 UNK     1      21.825  -9.410  36.308  1.00  0.00     0.034 A 
HETATM   11  C13 UNK     1      25.354 -10.559  36.780  1.00  0.00     0.102 A 
HETATM   12  C14 UNK     1      23.105  -7.740  37.577  1.00  0.00     0.301 A 
HETATM   13  C15 UNK     1      23.000 -11.492  35.589  1.00  0.00     0.014 A 
HETATM   14  C16 UNK     1      19.378  -7.837  37.023  1.00  0.00     0.086 A 
HETATM   15  C17 UNK     1      25.341 -11.796  36.137  1.00  0.00     0.040 A 
HETATM   16  C18 UNK     1      24.165 -12.262  35.544  1.00  0.00     0.004 A 
ENDROOT
BRANCH   5  17
HETATM   17  N3  UNK     1      19.435  -4.105  37.189  1.00  0.00    -0.255 N 
HETATM   18  H12 UNK     1      18.875  -3.766  37.966  1.00  0.00     0.191 HD
BRANCH  17  19
HETATM   19  N2  UNK     1      19.714  -3.241  36.181  1.00  0.00    -0.182 NA
HETATM   20  C5  UNK     1      18.915  -2.227  36.132  1.00  0.00     0.036 C 
HETATM   21  C3  UNK     1      17.756  -2.064  37.079  1.00  0.00     0.086 C 
HETATM   22  C4  UNK     1      19.081  -1.169  35.074  1.00  0.00     0.086 C 
HETATM   23  C1  UNK     1      17.741  -0.635  37.619  1.00  0.00     0.277 C 
HETATM   24  N1  UNK     1      17.773   0.354  36.528  1.00  0.00     0.084 N 
HETATM   25  C2  UNK     1      18.998   0.211  35.722  1.00  0.00     0.277 C 
HETATM   26  C6  UNK     1      17.676   1.710  37.068  1.00  0.00     0.309 C 
ENDBRANCH  17  19
ENDBRANCH   5  17
BRANCH  11  27
HETATM   27  O2  UNK     1      26.501 -10.109  37.357  1.00  0.00    -0.353 OA
HETATM   28  C19 UNK     1      27.458  -9.485  36.502  1.00  0.00     0.210 C 
ENDBRANCH  11  27
TORSDOF 3
ENDMDL
MODEL 6
REMARK VINA RESULT:      -8.5      8.065     11.902
REMARK  3 active torsions:
REMARK  status: ('A' for Active; 'I' for Inactive)
REMARK    1  A    between atoms: C13_21  and  O2_3 
REMARK    2  A    between atoms: N2_6  and  N3_7 
REMARK    3  A    between atoms: C7_15  and  N3_7 
ROOT
HETATM    1  S1  UNK     1      24.178 -12.289  35.771  1.00  0.00    -0.060 SA
HETATM    2  O1  UNK     1      26.835  -7.268  38.453  1.00  0.00    -0.271 OA
HETATM    3  O3  UNK     1      24.690  -8.019  38.287  1.00  0.00    -0.259 OA
HETATM    4  N4  UNK     1      24.083  -9.776  36.372  1.00  0.00    -0.222 NA
HETATM    5  C7  UNK     1      23.373 -10.783  35.920  1.00  0.00     0.187 A 
HETATM    6  C8  UNK     1      26.346  -9.290  37.134  1.00  0.00     0.070 A 
HETATM    7  C9  UNK     1      28.637  -8.479  37.373  1.00  0.00     0.002 A 
HETATM    8  C10 UNK     1      25.367 -10.218  36.624  1.00  0.00     0.082 A 
HETATM    9  C11 UNK     1      28.202  -7.419  38.158  1.00  0.00     0.123 A 
HETATM   10  C12 UNK     1      27.655  -9.420  36.862  1.00  0.00     0.034 A 
HETATM   11  C13 UNK     1      29.088  -6.478  38.677  1.00  0.00     0.102 A 
HETATM   12  C14 UNK     1      25.872  -8.161  37.990  1.00  0.00     0.301 A 
HETATM   13  C15 UNK     1      30.002  -8.602  37.101  1.00  0.00     0.014 A 
HETATM   14  C16 UNK     1      25.609 -11.549  36.359  1.00  0.00     0.086 A 
HETATM   15  C17 UNK     1      30.448  -6.606  38.402  1.00  0.00     0.040 A 
HETATM   16  C18 UNK     1      30.904  -7.667  37.616  1.00  0.00     0.004 A 
ENDROOT
BRANCH   5  17
HETATM   17  N3  UNK     1      22.058 -10.696  35.570  1.00  0.00    -0.255 N 
HETATM   18  H12 UNK     1      21.496 -11.534  35.685  1.00  0.00     0.191 HD
BRANCH  17  19
HETATM   19  N2  UNK     1      21.524  -9.662  34.872  1.00  0.00    -0.182 NA
HETATM   20  C5  UNK     1      20.821  -8.856  35.597  1.00  0.00     0.036 C 
HETATM   21  C3  UNK     1      20.581  -9.089  37.066  1.00  0.00     0.086 C 
HETATM   22  C4  UNK     1      20.156  -7.654  34.983  1.00  0.00     0.086 C 
HETATM   23  C1  UNK     1      20.819  -7.787  37.828  1.00  0.00     0.277 C 
HETATM   24  N1  UNK     1      20.038  -6.677  37.257  1.00  0.00     0.084 N 
HETATM   25  C2  UNK     1      20.419  -6.430  35.856  1.00  0.00     0.277 C 
HETATM   26  C6  UNK     1      20.221  -5.463  38.055  1.00  0.00     0.309 C 
ENDBRANCH  17  19
ENDBRANCH   5  17
BRANCH  11  27
HETATM   27  O2  UNK     1      28.647  -5.444  39.443  1.00  0.00    -0.353 OA
HETATM   28  C19 UNK     1      29.363  -4.213  39.349  1.00  0.00     0.210 C 
ENDBRANCH  11  27
TORSDOF 3
ENDMDL
MODEL 7
REMARK VINA RESULT:      -8.5      3.031      9.806
REMARK  3 active torsions:
REMARK  status: ('A' for Active; 'I' for Inactive)
REMARK    1  A    between atoms: C13_21  and  O2_3 
REMARK    2  A    between atoms: N2_6  and  N3_7 
REMARK    3  A    between atoms: C7_15  and  N3_7 
ROOT
HETATM    1  S1  UNK     1      16.772   0.152  35.345  1.00  0.00    -0.060 SA
HETATM    2  O1  UNK     1      21.178  -4.059  36.864  1.00  0.00    -0.271 OA
HETATM    3  O3  UNK     1      21.237  -1.869  36.239  1.00  0.00    -0.259 OA
HETATM    4  N4  UNK     1      19.132  -0.834  34.967  1.00  0.00    -0.222 NA
HETATM    5  C7  UNK     1      18.350   0.179  34.676  1.00  0.00     0.187 A 
HETATM    6  C8  UNK     1      19.090  -2.908  36.244  1.00  0.00     0.070 A 
HETATM    7  C9  UNK     1      19.063  -5.242  36.964  1.00  0.00     0.002 A 
HETATM    8  C10 UNK     1      18.440  -1.707  35.783  1.00  0.00     0.082 A 
HETATM    9  C11 UNK     1      20.442  -5.228  37.131  1.00  0.00     0.123 A 
HETATM   10  C12 UNK     1      18.403  -4.032  36.504  1.00  0.00     0.034 A 
HETATM   11  C13 UNK     1      21.140  -6.352  37.565  1.00  0.00     0.102 A 
HETATM   12  C14 UNK     1      20.572  -2.881  36.437  1.00  0.00     0.301 A 
HETATM   13  C15 UNK     1      18.362  -6.418  37.240  1.00  0.00     0.014 A 
HETATM   14  C16 UNK     1      17.148  -1.343  36.096  1.00  0.00     0.086 A 
HETATM   15  C17 UNK     1      20.434  -7.522  37.838  1.00  0.00     0.040 A 
HETATM   16  C18 UNK     1      19.047  -7.554  37.678  1.00  0.00     0.004 A 
ENDROOT
BRANCH   5  17
HETATM   17  N3  UNK     1      18.718   1.229  33.886  1.00  0.00    -0.255 N 
HETATM   18  H12 UNK     1      18.904   2.111  34.353  1.00  0.00     0.191 HD
BRANCH  17  19
HETATM   19  N2  UNK     1      18.620   1.232  32.533  1.00  0.00    -0.182 NA
HETATM   20  C5  UNK     1      18.340   2.392  32.038  1.00  0.00     0.036 C 
HETATM   21  C3  UNK     1      18.095   3.603  32.900  1.00  0.00     0.086 C 
HETATM   22  C4  UNK     1      18.195   2.577  30.551  1.00  0.00     0.086 C 
HETATM   23  C1  UNK     1      18.877   4.788  32.339  1.00  0.00     0.277 C 
HETATM   24  N1  UNK     1      18.590   4.997  30.910  1.00  0.00     0.084 N 
HETATM   25  C2  UNK     1      18.974   3.816  30.117  1.00  0.00     0.277 C 
HETATM   26  C6  UNK     1      19.288   6.186  30.419  1.00  0.00     0.309 C 
ENDBRANCH  17  19
ENDBRANCH   5  17
BRANCH  11  27
HETATM   27  O2  UNK     1      22.491  -6.324  37.722  1.00  0.00    -0.353 OA
HETATM   28  C19 UNK     1      22.992  -6.422  39.055  1.00  0.00     0.210 C 
ENDBRANCH  11  27
TORSDOF 3
ENDMDL
MODEL 8
REMARK VINA RESULT:      -8.4      9.378     12.802
REMARK  3 active torsions:
REMARK  status: ('A' for Active; 'I' for Inactive)
REMARK    1  A    between atoms: C13_21  and  O2_3 
REMARK    2  A    between atoms: N2_6  and  N3_7 
REMARK    3  A    between atoms: C7_15  and  N3_7 
ROOT
HETATM    1  S1  UNK     1      26.556  -9.866  39.796  1.00  0.00    -0.060 SA
HETATM    2  O1  UNK     1      30.376  -5.371  37.637  1.00  0.00    -0.271 OA
HETATM    3  O3  UNK     1      28.188  -5.413  38.271  1.00  0.00    -0.259 OA
HETATM    4  N4  UNK     1      26.911  -7.755  38.347  1.00  0.00    -0.222 NA
HETATM    5  C7  UNK     1      25.997  -8.549  38.853  1.00  0.00     0.187 A 
HETATM    6  C8  UNK     1      29.334  -7.504  38.296  1.00  0.00     0.070 A 
HETATM    7  C9  UNK     1      31.689  -7.410  37.655  1.00  0.00     0.002 A 
HETATM    8  C10 UNK     1      28.156  -8.214  38.729  1.00  0.00     0.082 A 
HETATM    9  C11 UNK     1      31.595  -6.043  37.432  1.00  0.00     0.123 A 
HETATM   10  C12 UNK     1      30.506  -8.129  38.096  1.00  0.00     0.034 A 
HETATM   11  C13 UNK     1      32.688  -5.292  37.004  1.00  0.00     0.102 A 
HETATM   12  C14 UNK     1      29.230  -6.030  38.074  1.00  0.00     0.301 A 
HETATM   13  C15 UNK     1      32.914  -8.046  37.443  1.00  0.00     0.014 A 
HETATM   14  C16 UNK     1      28.166  -9.346  39.516  1.00  0.00     0.086 A 
HETATM   15  C17 UNK     1      33.907  -5.933  36.796  1.00  0.00     0.040 A 
HETATM   16  C18 UNK     1      34.021  -7.308  37.016  1.00  0.00     0.004 A 
ENDROOT
BRANCH   5  17
HETATM   17  N3  UNK     1      24.655  -8.385  38.671  1.00  0.00    -0.255 N 
HETATM   18  H12 UNK     1      24.075  -8.395  39.504  1.00  0.00     0.191 HD
BRANCH  17  19
HETATM   19  N2  UNK     1      24.039  -8.448  37.464  1.00  0.00    -0.182 NA
HETATM   20  C5  UNK     1      22.751  -8.505  37.543  1.00  0.00     0.036 C 
HETATM   21  C3  UNK     1      22.022  -8.551  38.860  1.00  0.00     0.086 C 
HETATM   22  C4  UNK     1      21.908  -8.581  36.298  1.00  0.00     0.086 C 
HETATM   23  C1  UNK     1      20.863  -7.557  38.831  1.00  0.00     0.277 C 
HETATM   24  N1  UNK     1      20.000  -7.769  37.656  1.00  0.00     0.084 N 
HETATM   25  C2  UNK     1      20.757  -7.583  36.406  1.00  0.00     0.277 C 
HETATM   26  C6  UNK     1      18.855  -6.858  37.695  1.00  0.00     0.309 C 
ENDBRANCH  17  19
ENDBRANCH   5  17
BRANCH  11  27
HETATM   27  O2  UNK     1      32.581  -3.954  36.789  1.00  0.00    -0.353 OA
HETATM   28  C19 UNK     1      33.236  -3.426  35.636  1.00  0.00     0.210 C 
ENDBRANCH  11  27
TORSDOF 3
ENDMDL
MODEL 9
REMARK VINA RESULT:      -8.4      6.679      9.467
REMARK  3 active torsions:
REMARK  status: ('A' for Active; 'I' for Inactive)
REMARK    1  A    between atoms: C13_21  and  O2_3 
REMARK    2  A    between atoms: N2_6  and  N3_7 
REMARK    3  A    between atoms: C7_15  and  N3_7 
ROOT
HETATM    1  S1  UNK     1      18.089   5.712  31.438  1.00  0.00    -0.060 SA
HETATM    2  O1  UNK     1      15.447   9.660  35.546  1.00  0.00    -0.271 OA
HETATM    3  O3  UNK     1      17.044   8.045  35.714  1.00  0.00    -0.259 OA
HETATM    4  N4  UNK     1      17.190   6.173  33.818  1.00  0.00    -0.222 NA
HETATM    5  C7  UNK     1      17.879   5.323  33.094  1.00  0.00     0.187 A 
HETATM    6  C8  UNK     1      16.015   8.294  33.577  1.00  0.00     0.070 A 
HETATM    7  C9  UNK     1      14.340  10.065  33.426  1.00  0.00     0.002 A 
HETATM    8  C10 UNK     1      16.792   7.220  33.010  1.00  0.00     0.082 A 
HETATM    9  C11 UNK     1      14.518  10.376  34.768  1.00  0.00     0.123 A 
HETATM   10  C12 UNK     1      15.124   8.987  32.849  1.00  0.00     0.034 A 
HETATM   11  C13 UNK     1      13.797  11.394  35.388  1.00  0.00     0.102 A 
HETATM   12  C14 UNK     1      16.223   8.633  35.017  1.00  0.00     0.301 A 
HETATM   13  C15 UNK     1      13.412  10.796  32.682  1.00  0.00     0.014 A 
HETATM   14  C16 UNK     1      17.183   7.145  31.690  1.00  0.00     0.086 A 
HETATM   15  C17 UNK     1      12.873  12.120  34.639  1.00  0.00     0.040 A 
HETATM   16  C18 UNK     1      12.682  11.822  33.287  1.00  0.00     0.004 A 
ENDROOT
BRANCH   5  17
HETATM   17  N3  UNK     1      18.425   4.170  33.579  1.00  0.00    -0.255 N 
HETATM   18  H12 UNK     1      19.308   4.254  34.073  1.00  0.00     0.191 HD
BRANCH  17  19
HETATM   19  N2  UNK     1      17.996   2.927  33.245  1.00  0.00    -0.182 NA
HETATM   20  C5  UNK     1      18.238   2.036  34.149  1.00  0.00     0.036 C 
HETATM   21  C3  UNK     1      18.976   2.355  35.423  1.00  0.00     0.086 C 
HETATM   22  C4  UNK     1      17.830   0.602  33.942  1.00  0.00     0.086 C 
HETATM   23  C1  UNK     1      18.229   1.742  36.605  1.00  0.00     0.277 C 
HETATM   24  N1  UNK     1      17.975   0.306  36.398  1.00  0.00     0.084 N 
HETATM   25  C2  UNK     1      17.142   0.086  35.203  1.00  0.00     0.277 C 
HETATM   26  C6  UNK     1      17.332  -0.272  37.578  1.00  0.00     0.309 C 
ENDBRANCH  17  19
ENDBRANCH   5  17
BRANCH  11  27
HETATM   27  O2  UNK     1      13.981  11.686  36.704  1.00  0.00    -0.353 OA
HETATM   28  C19 UNK     1      14.661  12.903  37.011  1.00  0.00     0.210 C 
ENDBRANCH  11  27
TORSDOF 3
ENDMDL
MODEL 10
REMARK VINA RESULT:      -8.3      8.457     11.823
REMARK  3 active torsions:
REMARK  status: ('A' for Active; 'I' for Inactive)
REMARK    1  A    between atoms: C13_21  and  O2_3 
REMARK    2  A    between atoms: N2_6  and  N3_7 
REMARK    3  A    between atoms: C7_15  and  N3_7 
ROOT
HETATM    1  S1  UNK     1      27.553  -8.951  37.396  1.00  0.00    -0.060 SA
HETATM    2  O1  UNK     1      21.526  -7.359  38.169  1.00  0.00    -0.271 OA
HETATM    3  O3  UNK     1      23.502  -6.309  38.594  1.00  0.00    -0.259 OA
HETATM    4  N4  UNK     1      25.724  -7.773  38.794  1.00  0.00    -0.222 NA
HETATM    5  C7  UNK     1      27.021  -7.917  38.656  1.00  0.00     0.187 A 
HETATM    6  C8  UNK     1      23.650  -8.544  37.776  1.00  0.00     0.070 A 
HETATM    7  C9  UNK     1      21.511  -9.620  37.290  1.00  0.00     0.002 A 
HETATM    8  C10 UNK     1      25.090  -8.535  37.833  1.00  0.00     0.082 A 
HETATM    9  C11 UNK     1      20.823  -8.488  37.710  1.00  0.00     0.123 A 
HETATM   10  C12 UNK     1      22.963  -9.614  37.340  1.00  0.00     0.034 A 
HETATM   11  C13 UNK     1      19.432  -8.427  37.692  1.00  0.00     0.102 A 
HETATM   12  C14 UNK     1      22.917  -7.319  38.215  1.00  0.00     0.301 A 
HETATM   13  C15 UNK     1      20.784 -10.723  36.837  1.00  0.00     0.014 A 
HETATM   14  C16 UNK     1      25.914  -9.244  36.985  1.00  0.00     0.086 A 
HETATM   15  C17 UNK     1      18.712  -9.531  37.240  1.00  0.00     0.040 A 
HETATM   16  C18 UNK     1      19.387 -10.677  36.811  1.00  0.00     0.004 A 
ENDROOT
BRANCH   5  17
HETATM   17  N3  UNK     1      27.948  -7.301  39.445  1.00  0.00    -0.255 N 
HETATM   18  H12 UNK     1      28.375  -7.863  40.175  1.00  0.00     0.191 HD
BRANCH  17  19
HETATM   19  N2  UNK     1      28.153  -5.960  39.471  1.00  0.00    -0.182 NA
HETATM   20  C5  UNK     1      29.310  -5.604  39.022  1.00  0.00     0.036 C 
HETATM   21  C3  UNK     1      30.344  -6.602  38.568  1.00  0.00     0.086 C 
HETATM   22  C4  UNK     1      29.704  -4.152  38.979  1.00  0.00     0.086 C 
HETATM   23  C1  UNK     1      30.925  -6.153  37.229  1.00  0.00     0.277 C 
HETATM   24  N1  UNK     1      31.412  -4.765  37.290  1.00  0.00     0.084 N 
HETATM   25  C2  UNK     1      30.317  -3.835  37.617  1.00  0.00     0.277 C 
HETATM   26  C6  UNK     1      32.036  -4.388  36.021  1.00  0.00     0.309 C 
ENDBRANCH  17  19
ENDBRANCH   5  17
BRANCH  11  27
HETATM   27  O2  UNK     1      18.772  -7.313  38.108  1.00  0.00    -0.353 OA
HETATM   28  C19 UNK     1      18.030  -6.592  37.125  1.00  0.00     0.210 C 
ENDBRANCH  11  27
TORSDOF 3
ENDMDL
