MODEL 1
REMARK VINA RESULT:      -8.4      0.000      0.000
REMARK  5 active torsions:
REMARK  status: ('A' for Active; 'I' for Inactive)
REMARK    1  A    between atoms: C15_21  and  O2_3 
REMARK    2  A    between atoms: C5_11  and  O2_3 
REMARK    3  A    between atoms: C7_13  and  N1_6 
REMARK       I    between atoms: C8_14  and  N1_6 
REMARK    4  A    between atoms: C3_9  and  C8_14 
REMARK    5  A    between atoms: C11_17  and  C7_13 
ROOT
HETATM    1 Br1  UNK     1      20.477  -1.684  30.013  1.00  0.00    -0.051 Br
HETATM    2  O1  UNK     1      18.694  -1.436  35.807  1.00  0.00    -0.271 OA
HETATM    3  O4  UNK     1      18.794  -2.224  37.949  1.00  0.00    -0.259 OA
HETATM    4  C1  UNK     1      20.059  -2.472  34.081  1.00  0.00     0.003 A 
HETATM    5  C2  UNK     1      19.125  -1.516  34.468  1.00  0.00     0.123 A 
HETATM    6  C3  UNK     1      20.170  -3.308  36.353  1.00  0.00     0.108 A 
HETATM    7  C4  UNK     1      20.583  -3.389  35.082  1.00  0.00     0.037 A 
HETATM    8  C5  UNK     1      18.585  -0.609  33.559  1.00  0.00     0.104 A 
HETATM    9  C6  UNK     1      20.461  -2.519  32.745  1.00  0.00     0.033 A 
HETATM   10  C9  UNK     1      19.177  -2.299  36.787  1.00  0.00     0.304 A 
HETATM   11  C10 UNK     1      18.992  -0.662  32.228  1.00  0.00     0.058 A 
HETATM   12  C12 UNK     1      19.928  -1.616  31.821  1.00  0.00     0.014 A 
ENDROOT
BRANCH   6  13
HETATM   13  C8  UNK     1      20.756  -4.276  37.287  1.00  0.00     0.258 C 
HETATM   14  O3  UNK     1      21.974  -4.358  37.432  1.00  0.00    -0.267 OA
HETATM   15  N1  UNK     1      19.803  -5.038  37.940  1.00  0.00    -0.352 N 
HETATM   16  H6  UNK     1      18.818  -4.924  37.717  1.00  0.00     0.163 HD
BRANCH  15  17
HETATM   17  C7  UNK     1      20.138  -6.060  38.905  1.00  0.00     0.161 C 
BRANCH  17  18
HETATM   18  C11 UNK     1      19.717  -7.414  38.407  1.00  0.00    -0.041 A 
HETATM   19  C13 UNK     1      19.894  -8.529  39.217  1.00  0.00     0.009 A 
HETATM   20  C16 UNK     1      19.504  -9.786  38.755  1.00  0.00     0.001 A 
HETATM   21  C18 UNK     1      18.939  -9.918  37.486  1.00  0.00     0.000 A 
HETATM   22  C17 UNK     1      18.766  -8.793  36.680  1.00  0.00     0.001 A 
HETATM   23  C14 UNK     1      19.156  -7.536  37.142  1.00  0.00     0.009 A 
ENDBRANCH  17  18
ENDBRANCH  15  17
ENDBRANCH   6  13
BRANCH   8  24
HETATM   24  O2  UNK     1      17.672   0.322  33.951  1.00  0.00    -0.349 OA
BRANCH  24  25
HETATM   25  C15 UNK     1      18.098   1.684  33.965  1.00  0.00     0.171 C 
HETATM   26  C19 UNK     1      18.487   2.064  35.378  1.00  0.00     0.034 C 
ENDBRANCH  24  25
ENDBRANCH   8  24
TORSDOF 5
ENDMDL
MODEL 2
REMARK VINA RESULT:      -8.3      5.923     11.165
REMARK  5 active torsions:
REMARK  status: ('A' for Active; 'I' for Inactive)
REMARK    1  A    between atoms: C15_21  and  O2_3 
REMARK    2  A    between atoms: C5_11  and  O2_3 
REMARK    3  A    between atoms: C7_13  and  N1_6 
REMARK       I    between atoms: C8_14  and  N1_6 
REMARK    4  A    between atoms: C3_9  and  C8_14 
REMARK    5  A    between atoms: C11_17  and  C7_13 
ROOT
HETATM    1 Br1  UNK     1      17.969  -0.804  37.642  1.00  0.00    -0.051 Br
HETATM    2  O1  UNK     1      18.393   1.598  32.087  1.00  0.00    -0.271 OA
HETATM    3  O4  UNK     1      18.492   3.424  30.717  1.00  0.00    -0.259 OA
HETATM    4  C1  UNK     1      18.207   1.910  34.491  1.00  0.00     0.003 A 
HETATM    5  C2  UNK     1      18.293   1.067  33.388  1.00  0.00     0.123 A 
HETATM    6  C3  UNK     1      18.315   3.848  33.042  1.00  0.00     0.108 A 
HETATM    7  C4  UNK     1      18.220   3.349  34.280  1.00  0.00     0.037 A 
HETATM    8  C5  UNK     1      18.286  -0.320  33.522  1.00  0.00     0.104 A 
HETATM    9  C6  UNK     1      18.109   1.345  35.765  1.00  0.00     0.033 A 
HETATM   10  C9  UNK     1      18.408   2.971  31.853  1.00  0.00     0.304 A 
HETATM   11  C10 UNK     1      18.188  -0.875  34.795  1.00  0.00     0.058 A 
HETATM   12  C12 UNK     1      18.100  -0.045  35.915  1.00  0.00     0.014 A 
ENDROOT
BRANCH   6  13
HETATM   13  C8  UNK     1      18.320   5.312  32.932  1.00  0.00     0.258 C 
HETATM   14  O3  UNK     1      18.994   6.001  33.695  1.00  0.00    -0.267 OA
HETATM   15  N1  UNK     1      17.509   5.777  31.912  1.00  0.00    -0.352 N 
HETATM   16  H6  UNK     1      16.956   5.126  31.362  1.00  0.00     0.163 HD
BRANCH  15  17
HETATM   17  C7  UNK     1      17.349   7.182  31.612  1.00  0.00     0.161 C 
BRANCH  17  18
HETATM   18  C11 UNK     1      16.343   7.808  32.537  1.00  0.00    -0.041 A 
HETATM   19  C13 UNK     1      16.719   8.879  33.336  1.00  0.00     0.009 A 
HETATM   20  C16 UNK     1      15.785   9.460  34.194  1.00  0.00     0.001 A 
HETATM   21  C18 UNK     1      14.482   8.964  34.246  1.00  0.00     0.000 A 
HETATM   22  C17 UNK     1      14.114   7.888  33.439  1.00  0.00     0.001 A 
HETATM   23  C14 UNK     1      15.048   7.307  32.581  1.00  0.00     0.009 A 
ENDBRANCH  17  18
ENDBRANCH  15  17
ENDBRANCH   6  13
BRANCH   8  24
HETATM   24  O2  UNK     1      18.371  -1.133  32.434  1.00  0.00    -0.349 OA
BRANCH  24  25
HETATM   25  C15 UNK     1      19.630  -1.756  32.185  1.00  0.00     0.171 C 
HETATM   26  C19 UNK     1      20.222  -1.180  30.915  1.00  0.00     0.034 C 
ENDBRANCH  24  25
ENDBRANCH   8  24
TORSDOF 5
ENDMDL
MODEL 3
REMARK VINA RESULT:      -8.1      5.786     10.983
REMARK  5 active torsions:
REMARK  status: ('A' for Active; 'I' for Inactive)
REMARK    1  A    between atoms: C15_21  and  O2_3 
REMARK    2  A    between atoms: C5_11  and  O2_3 
REMARK    3  A    between atoms: C7_13  and  N1_6 
REMARK       I    between atoms: C8_14  and  N1_6 
REMARK    4  A    between atoms: C3_9  and  C8_14 
REMARK    5  A    between atoms: C11_17  and  C7_13 
ROOT
HETATM    1 Br1  UNK     1      17.976  -0.422  37.365  1.00  0.00    -0.051 Br
HETATM    2  O1  UNK     1      18.711   0.863  31.481  1.00  0.00    -0.271 OA
HETATM    3  O4  UNK     1      18.765   2.379  29.773  1.00  0.00    -0.259 OA
HETATM    4  C1  UNK     1      18.256   1.622  33.746  1.00  0.00     0.003 A 
HETATM    5  C2  UNK     1      18.535   0.592  32.852  1.00  0.00     0.123 A 
HETATM    6  C3  UNK     1      18.316   3.233  31.937  1.00  0.00     0.108 A 
HETATM    7  C4  UNK     1      18.148   2.982  33.241  1.00  0.00     0.037 A 
HETATM    8  C5  UNK     1      18.652  -0.731  33.271  1.00  0.00     0.104 A 
HETATM    9  C6  UNK     1      18.089   1.313  35.098  1.00  0.00     0.033 A 
HETATM   10  C9  UNK     1      18.613   2.154  30.968  1.00  0.00     0.304 A 
HETATM   11  C10 UNK     1      18.484  -1.030  34.621  1.00  0.00     0.058 A 
HETATM   12  C12 UNK     1      18.202  -0.010  35.533  1.00  0.00     0.014 A 
ENDROOT
BRANCH   6  13
HETATM   13  C8  UNK     1      18.187   4.636  31.526  1.00  0.00     0.258 C 
HETATM   14  O3  UNK     1      18.847   5.083  30.590  1.00  0.00    -0.267 OA
HETATM   15  N1  UNK     1      17.276   5.339  32.293  1.00  0.00    -0.352 N 
HETATM   16  H6  UNK     1      16.812   4.888  33.077  1.00  0.00     0.163 HD
BRANCH  15  17
HETATM   17  C7  UNK     1      16.981   6.738  32.080  1.00  0.00     0.161 C 
BRANCH  17  18
HETATM   18  C11 UNK     1      17.903   7.602  32.895  1.00  0.00    -0.041 A 
HETATM   19  C13 UNK     1      19.132   7.100  33.303  1.00  0.00     0.009 A 
HETATM   20  C16 UNK     1      19.987   7.902  34.058  1.00  0.00     0.001 A 
HETATM   21  C18 UNK     1      19.606   9.199  34.401  1.00  0.00     0.000 A 
HETATM   22  C17 UNK     1      18.369   9.694  33.987  1.00  0.00     0.001 A 
HETATM   23  C14 UNK     1      17.514   8.892  33.231  1.00  0.00     0.009 A 
ENDBRANCH  17  18
ENDBRANCH  15  17
ENDBRANCH   6  13
BRANCH   8  24
HETATM   24  O2  UNK     1      18.925  -1.728  32.386  1.00  0.00    -0.349 OA
BRANCH  24  25
HETATM   25  C15 UNK     1      20.300  -2.019  32.139  1.00  0.00     0.171 C 
HETATM   26  C19 UNK     1      20.486  -2.305  30.664  1.00  0.00     0.034 C 
ENDBRANCH  24  25
ENDBRANCH   8  24
TORSDOF 5
ENDMDL
MODEL 4
REMARK VINA RESULT:      -8.1     11.877     14.451
REMARK  5 active torsions:
REMARK  status: ('A' for Active; 'I' for Inactive)
REMARK    1  A    between atoms: C15_21  and  O2_3 
REMARK    2  A    between atoms: C5_11  and  O2_3 
REMARK    3  A    between atoms: C7_13  and  N1_6 
REMARK       I    between atoms: C8_14  and  N1_6 
REMARK    4  A    between atoms: C3_9  and  C8_14 
REMARK    5  A    between atoms: C11_17  and  C7_13 
ROOT
HETATM    1 Br1  UNK     1      10.840  13.517  33.979  1.00  0.00    -0.051 Br
HETATM    2  O1  UNK     1      15.457   9.910  35.556  1.00  0.00    -0.271 OA
HETATM    3  O4  UNK     1      17.002   8.316  35.018  1.00  0.00    -0.259 OA
HETATM    4  C1  UNK     1      13.907  10.701  33.858  1.00  0.00     0.003 A 
HETATM    5  C2  UNK     1      14.386  10.737  35.163  1.00  0.00     0.123 A 
HETATM    6  C3  UNK     1      15.547   9.013  33.283  1.00  0.00     0.108 A 
HETATM    7  C4  UNK     1      14.530   9.796  32.904  1.00  0.00     0.037 A 
HETATM    8  C5  UNK     1      13.834  11.581  36.124  1.00  0.00     0.104 A 
HETATM    9  C6  UNK     1      12.843  11.536  33.507  1.00  0.00     0.033 A 
HETATM   10  C9  UNK     1      16.073   9.034  34.667  1.00  0.00     0.304 A 
HETATM   11  C10 UNK     1      12.774  12.410  35.766  1.00  0.00     0.058 A 
HETATM   12  C12 UNK     1      12.279  12.388  34.460  1.00  0.00     0.014 A 
ENDROOT
BRANCH   6  13
HETATM   13  C8  UNK     1      16.108   8.134  32.249  1.00  0.00     0.258 C 
HETATM   14  O3  UNK     1      16.236   8.523  31.091  1.00  0.00    -0.267 OA
HETATM   15  N1  UNK     1      16.449   6.884  32.734  1.00  0.00    -0.352 N 
HETATM   16  H6  UNK     1      16.262   6.643  33.703  1.00  0.00     0.163 HD
BRANCH  15  17
HETATM   17  C7  UNK     1      17.017   5.846  31.905  1.00  0.00     0.161 C 
BRANCH  17  18
HETATM   18  C11 UNK     1      18.515   5.965  31.863  1.00  0.00    -0.041 A 
HETATM   19  C13 UNK     1      19.206   6.335  33.009  1.00  0.00     0.009 A 
HETATM   20  C16 UNK     1      20.596   6.446  32.970  1.00  0.00     0.001 A 
HETATM   21  C18 UNK     1      21.284   6.185  31.785  1.00  0.00     0.000 A 
HETATM   22  C17 UNK     1      20.580   5.814  30.639  1.00  0.00     0.001 A 
HETATM   23  C14 UNK     1      19.191   5.704  30.677  1.00  0.00     0.009 A 
ENDBRANCH  17  18
ENDBRANCH  15  17
ENDBRANCH   6  13
BRANCH   8  24
HETATM   24  O2  UNK     1      14.312  11.605  37.398  1.00  0.00    -0.349 OA
BRANCH  24  25
HETATM   25  C15 UNK     1      13.467  11.077  38.420  1.00  0.00     0.171 C 
HETATM   26  C19 UNK     1      14.050  11.430  39.772  1.00  0.00     0.034 C 
ENDBRANCH  24  25
ENDBRANCH   8  24
TORSDOF 5
ENDMDL
MODEL 5
REMARK VINA RESULT:      -8.0     28.833     30.554
REMARK  5 active torsions:
REMARK  status: ('A' for Active; 'I' for Inactive)
REMARK    1  A    between atoms: C15_21  and  O2_3 
REMARK    2  A    between atoms: C5_11  and  O2_3 
REMARK    3  A    between atoms: C7_13  and  N1_6 
REMARK       I    between atoms: C8_14  and  N1_6 
REMARK    4  A    between atoms: C3_9  and  C8_14 
REMARK    5  A    between atoms: C11_17  and  C7_13 
ROOT
HETATM    1 Br1  UNK     1      15.822  14.030   6.840  1.00  0.00    -0.051 Br
HETATM    2  O1  UNK     1      17.256   8.921   9.782  1.00  0.00    -0.271 OA
HETATM    3  O4  UNK     1      16.676   6.857  10.573  1.00  0.00    -0.259 OA
HETATM    4  C1  UNK     1      15.614  10.250   8.578  1.00  0.00     0.003 A 
HETATM    5  C2  UNK     1      16.896  10.097   9.095  1.00  0.00     0.123 A 
HETATM    6  C3  UNK     1      14.997   8.060   9.412  1.00  0.00     0.108 A 
HETATM    7  C4  UNK     1      14.649   9.176   8.759  1.00  0.00     0.037 A 
HETATM    8  C5  UNK     1      17.866  11.087   8.956  1.00  0.00     0.104 A 
HETATM    9  C6  UNK     1      15.295  11.431   7.903  1.00  0.00     0.033 A 
HETATM   10  C9  UNK     1      16.355   7.876   9.971  1.00  0.00     0.304 A 
HETATM   11  C10 UNK     1      17.540  12.262   8.281  1.00  0.00     0.058 A 
HETATM   12  C12 UNK     1      16.258  12.434   7.756  1.00  0.00     0.014 A 
ENDROOT
BRANCH   6  13
HETATM   13  C8  UNK     1      13.954   7.035   9.543  1.00  0.00     0.258 C 
HETATM   14  O3  UNK     1      13.256   6.969  10.552  1.00  0.00    -0.267 OA
HETATM   15  N1  UNK     1      13.876   6.205   8.439  1.00  0.00    -0.352 N 
HETATM   16  H6  UNK     1      14.530   6.314   7.670  1.00  0.00     0.163 HD
BRANCH  15  17
HETATM   17  C7  UNK     1      12.928   5.119   8.337  1.00  0.00     0.161 C 
BRANCH  17  18
HETATM   18  C11 UNK     1      11.635   5.601   7.740  1.00  0.00    -0.041 A 
HETATM   19  C13 UNK     1      10.496   5.666   8.532  1.00  0.00     0.009 A 
HETATM   20  C16 UNK     1       9.296   6.113   7.979  1.00  0.00     0.001 A 
HETATM   21  C18 UNK     1       9.246   6.492   6.637  1.00  0.00     0.000 A 
HETATM   22  C17 UNK     1      10.395   6.423   5.850  1.00  0.00     0.001 A 
HETATM   23  C14 UNK     1      11.595   5.976   6.403  1.00  0.00     0.009 A 
ENDBRANCH  17  18
ENDBRANCH  15  17
ENDBRANCH   6  13
BRANCH   8  24
HETATM   24  O2  UNK     1      19.117  10.925   9.467  1.00  0.00    -0.349 OA
BRANCH  24  25
HETATM   25  C15 UNK     1      19.805  12.102   9.886  1.00  0.00     0.171 C 
HETATM   26  C19 UNK     1      20.919  11.710  10.834  1.00  0.00     0.034 C 
ENDBRANCH  24  25
ENDBRANCH   8  24
TORSDOF 5
ENDMDL
MODEL 6
REMARK VINA RESULT:      -8.0     28.875     30.605
REMARK  5 active torsions:
REMARK  status: ('A' for Active; 'I' for Inactive)
REMARK    1  A    between atoms: C15_21  and  O2_3 
REMARK    2  A    between atoms: C5_11  and  O2_3 
REMARK    3  A    between atoms: C7_13  and  N1_6 
REMARK       I    between atoms: C8_14  and  N1_6 
REMARK    4  A    between atoms: C3_9  and  C8_14 
REMARK    5  A    between atoms: C11_17  and  C7_13 
ROOT
HETATM    1 Br1  UNK     1      16.105  14.133   6.621  1.00  0.00    -0.051 Br
HETATM    2  O1  UNK     1      17.355   9.083   9.745  1.00  0.00    -0.271 OA
HETATM    3  O4  UNK     1      16.690   7.090  10.642  1.00  0.00    -0.259 OA
HETATM    4  C1  UNK     1      15.749  10.447   8.530  1.00  0.00     0.003 A 
HETATM    5  C2  UNK     1      17.037  10.247   9.016  1.00  0.00     0.123 A 
HETATM    6  C3  UNK     1      15.043   8.332   9.478  1.00  0.00     0.108 A 
HETATM    7  C4  UNK     1      14.735   9.436   8.786  1.00  0.00     0.037 A 
HETATM    8  C5  UNK     1      18.053  11.176   8.806  1.00  0.00     0.104 A 
HETATM    9  C6  UNK     1      15.474  11.614   7.812  1.00  0.00     0.033 A 
HETATM   10  C9  UNK     1      16.406   8.098  10.005  1.00  0.00     0.304 A 
HETATM   11  C10 UNK     1      17.771  12.337   8.090  1.00  0.00     0.058 A 
HETATM   12  C12 UNK     1      16.483  12.555   7.594  1.00  0.00     0.014 A 
ENDROOT
BRANCH   6  13
HETATM   13  C8  UNK     1      13.952   7.372   9.684  1.00  0.00     0.258 C 
HETATM   14  O3  UNK     1      13.169   7.497  10.623  1.00  0.00    -0.267 OA
HETATM   15  N1  UNK     1      13.932   6.369   8.731  1.00  0.00    -0.352 N 
HETATM   16  H6  UNK     1      14.653   6.329   8.017  1.00  0.00     0.163 HD
BRANCH  15  17
HETATM   17  C7  UNK     1      12.952   5.306   8.727  1.00  0.00     0.161 C 
BRANCH  17  18
HETATM   18  C11 UNK     1      11.751   5.700   7.913  1.00  0.00    -0.041 A 
HETATM   19  C13 UNK     1      11.909   6.033   6.574  1.00  0.00     0.009 A 
HETATM   20  C16 UNK     1      10.794   6.398   5.819  1.00  0.00     0.001 A 
HETATM   21  C18 UNK     1       9.531   6.428   6.410  1.00  0.00     0.000 A 
HETATM   22  C17 UNK     1       9.383   6.092   7.755  1.00  0.00     0.001 A 
HETATM   23  C14 UNK     1      10.497   5.727   8.510  1.00  0.00     0.009 A 
ENDBRANCH  17  18
ENDBRANCH  15  17
ENDBRANCH   6  13
BRANCH   8  24
HETATM   24  O2  UNK     1      19.309  10.967   9.288  1.00  0.00    -0.349 OA
BRANCH  24  25
HETATM   25  C15 UNK     1      20.051  12.119   9.688  1.00  0.00     0.171 C 
HETATM   26  C19 UNK     1      20.922  11.757  10.873  1.00  0.00     0.034 C 
ENDBRANCH  24  25
ENDBRANCH   8  24
TORSDOF 5
ENDMDL
MODEL 7
REMARK VINA RESULT:      -7.8      3.072      8.131
REMARK  5 active torsions:
REMARK  status: ('A' for Active; 'I' for Inactive)
REMARK    1  A    between atoms: C15_21  and  O2_3 
REMARK    2  A    between atoms: C5_11  and  O2_3 
REMARK    3  A    between atoms: C7_13  and  N1_6 
REMARK       I    between atoms: C8_14  and  N1_6 
REMARK    4  A    between atoms: C3_9  and  C8_14 
REMARK    5  A    between atoms: C11_17  and  C7_13 
ROOT
HETATM    1 Br1  UNK     1      18.825  -8.940  38.118  1.00  0.00    -0.051 Br
HETATM    2  O1  UNK     1      21.601  -3.670  36.963  1.00  0.00    -0.271 OA
HETATM    3  O4  UNK     1      21.581  -1.575  36.053  1.00  0.00    -0.259 OA
HETATM    4  C1  UNK     1      19.626  -5.078  36.780  1.00  0.00     0.003 A 
HETATM    5  C2  UNK     1      20.933  -4.885  37.217  1.00  0.00     0.123 A 
HETATM    6  C3  UNK     1      19.601  -2.855  35.817  1.00  0.00     0.108 A 
HETATM    7  C4  UNK     1      18.961  -4.006  36.056  1.00  0.00     0.037 A 
HETATM    8  C5  UNK     1      21.626  -5.870  37.916  1.00  0.00     0.104 A 
HETATM    9  C6  UNK     1      18.998  -6.296  37.052  1.00  0.00     0.033 A 
HETATM   10  C9  UNK     1      20.991  -2.627  36.272  1.00  0.00     0.304 A 
HETATM   11  C10 UNK     1      20.992  -7.082  38.183  1.00  0.00     0.058 A 
HETATM   12  C12 UNK     1      19.681  -7.294  37.752  1.00  0.00     0.014 A 
ENDROOT
BRANCH   6  13
HETATM   13  C8  UNK     1      18.845  -1.835  35.079  1.00  0.00     0.258 C 
HETATM   14  O3  UNK     1      17.930  -1.215  35.615  1.00  0.00    -0.267 OA
HETATM   15  N1  UNK     1      19.282  -1.683  33.775  1.00  0.00    -0.352 N 
HETATM   16  H6  UNK     1      20.021  -2.277  33.410  1.00  0.00     0.163 HD
BRANCH  15  17
HETATM   17  C7  UNK     1      18.691  -0.741  32.852  1.00  0.00     0.161 C 
BRANCH  17  18
HETATM   18  C11 UNK     1      19.400  -0.785  31.527  1.00  0.00    -0.041 A 
HETATM   19  C13 UNK     1      19.937  -1.983  31.075  1.00  0.00     0.009 A 
HETATM   20  C16 UNK     1      20.595  -2.024  29.846  1.00  0.00     0.001 A 
HETATM   21  C18 UNK     1      20.712  -0.865  29.079  1.00  0.00     0.000 A 
HETATM   22  C17 UNK     1      20.170   0.334  29.541  1.00  0.00     0.001 A 
HETATM   23  C14 UNK     1      19.511   0.375  30.770  1.00  0.00     0.009 A 
ENDBRANCH  17  18
ENDBRANCH  15  17
ENDBRANCH   6  13
BRANCH   8  24
HETATM   24  O2  UNK     1      22.904  -5.668  38.338  1.00  0.00    -0.349 OA
BRANCH  24  25
HETATM   25  C15 UNK     1      23.387  -6.517  39.378  1.00  0.00     0.171 C 
HETATM   26  C19 UNK     1      24.353  -7.521  38.786  1.00  0.00     0.034 C 
ENDBRANCH  24  25
ENDBRANCH   8  24
TORSDOF 5
ENDMDL
MODEL 8
REMARK VINA RESULT:      -7.7      6.410      9.031
REMARK  5 active torsions:
REMARK  status: ('A' for Active; 'I' for Inactive)
REMARK    1  A    between atoms: C15_21  and  O2_3 
REMARK    2  A    between atoms: C5_11  and  O2_3 
REMARK    3  A    between atoms: C7_13  and  N1_6 
REMARK       I    between atoms: C8_14  and  N1_6 
REMARK    4  A    between atoms: C3_9  and  C8_14 
REMARK    5  A    between atoms: C11_17  and  C7_13 
ROOT
HETATM    1 Br1  UNK     1      30.690  -9.462  38.278  1.00  0.00    -0.051 Br
HETATM    2  O1  UNK     1      25.922  -5.761  38.890  1.00  0.00    -0.271 OA
HETATM    3  O4  UNK     1      23.664  -5.440  39.024  1.00  0.00    -0.259 OA
HETATM    4  C1  UNK     1      26.800  -8.011  38.609  1.00  0.00     0.003 A 
HETATM    5  C2  UNK     1      27.011  -6.643  38.747  1.00  0.00     0.123 A 
HETATM    6  C3  UNK     1      24.405  -7.675  38.753  1.00  0.00     0.108 A 
HETATM    7  C4  UNK     1      25.436  -8.517  38.616  1.00  0.00     0.037 A 
HETATM    8  C5  UNK     1      28.292  -6.095  38.748  1.00  0.00     0.104 A 
HETATM    9  C6  UNK     1      27.906  -8.853  38.469  1.00  0.00     0.033 A 
HETATM   10  C9  UNK     1      24.605  -6.215  38.901  1.00  0.00     0.304 A 
HETATM   11  C10 UNK     1      29.389  -6.941  38.608  1.00  0.00     0.058 A 
HETATM   12  C12 UNK     1      29.197  -8.318  38.468  1.00  0.00     0.014 A 
ENDROOT
BRANCH   6  13
HETATM   13  C8  UNK     1      23.068  -8.281  38.748  1.00  0.00     0.258 C 
HETATM   14  O3  UNK     1      22.331  -8.195  39.728  1.00  0.00    -0.267 OA
HETATM   15  N1  UNK     1      22.774  -8.923  37.558  1.00  0.00    -0.352 N 
HETATM   16  H6  UNK     1      23.470  -8.975  36.820  1.00  0.00     0.163 HD
BRANCH  15  17
HETATM   17  C7  UNK     1      21.519  -9.596  37.316  1.00  0.00     0.161 C 
BRANCH  17  18
HETATM   18  C11 UNK     1      20.543  -8.669  36.645  1.00  0.00    -0.041 A 
HETATM   19  C13 UNK     1      20.821  -8.184  35.374  1.00  0.00     0.009 A 
HETATM   20  C16 UNK     1      19.916  -7.324  34.752  1.00  0.00     0.001 A 
HETATM   21  C18 UNK     1      18.740  -6.956  35.407  1.00  0.00     0.000 A 
HETATM   22  C17 UNK     1      18.471  -7.449  36.684  1.00  0.00     0.001 A 
HETATM   23  C14 UNK     1      19.376  -8.309  37.306  1.00  0.00     0.009 A 
ENDBRANCH  17  18
ENDBRANCH  15  17
ENDBRANCH   6  13
BRANCH   8  24
HETATM   24  O2  UNK     1      28.484  -4.755  38.883  1.00  0.00    -0.349 OA
BRANCH  24  25
HETATM   25  C15 UNK     1      29.831  -4.301  39.006  1.00  0.00     0.171 C 
HETATM   26  C19 UNK     1      30.317  -3.829  37.652  1.00  0.00     0.034 C 
ENDBRANCH  24  25
ENDBRANCH   8  24
TORSDOF 5
ENDMDL
MODEL 9
REMARK VINA RESULT:      -7.6      7.376     10.686
REMARK  5 active torsions:
REMARK  status: ('A' for Active; 'I' for Inactive)
REMARK    1  A    between atoms: C15_21  and  O2_3 
REMARK    2  A    between atoms: C5_11  and  O2_3 
REMARK    3  A    between atoms: C7_13  and  N1_6 
REMARK       I    between atoms: C8_14  and  N1_6 
REMARK    4  A    between atoms: C3_9  and  C8_14 
REMARK    5  A    between atoms: C11_17  and  C7_13 
ROOT
HETATM    1 Br1  UNK     1      13.477  10.614  33.270  1.00  0.00    -0.051 Br
HETATM    2  O1  UNK     1      18.937   7.988  33.588  1.00  0.00    -0.271 OA
HETATM    3  O4  UNK     1      20.270   6.147  33.354  1.00  0.00    -0.259 OA
HETATM    4  C1  UNK     1      16.560   7.818  33.106  1.00  0.00     0.003 A 
HETATM    5  C2  UNK     1      17.658   8.572  33.506  1.00  0.00     0.123 A 
HETATM    6  C3  UNK     1      17.972   5.865  32.853  1.00  0.00     0.108 A 
HETATM    7  C4  UNK     1      16.754   6.415  32.773  1.00  0.00     0.037 A 
HETATM    8  C5  UNK     1      17.540   9.920  33.838  1.00  0.00     0.104 A 
HETATM    9  C6  UNK     1      15.308   8.433  33.036  1.00  0.00     0.033 A 
HETATM   10  C9  UNK     1      19.154   6.648  33.277  1.00  0.00     0.304 A 
HETATM   11  C10 UNK     1      16.288  10.527  33.766  1.00  0.00     0.058 A 
HETATM   12  C12 UNK     1      15.174   9.785  33.366  1.00  0.00     0.014 A 
ENDROOT
BRANCH   6  13
HETATM   13  C8  UNK     1      18.065   4.443  32.498  1.00  0.00     0.258 C 
HETATM   14  O3  UNK     1      18.099   4.086  31.323  1.00  0.00    -0.267 OA
HETATM   15  N1  UNK     1      18.105   3.615  33.606  1.00  0.00    -0.352 N 
HETATM   16  H6  UNK     1      18.027   4.006  34.540  1.00  0.00     0.163 HD
BRANCH  15  17
HETATM   17  C7  UNK     1      18.194   2.175  33.509  1.00  0.00     0.161 C 
BRANCH  17  18
HETATM   18  C11 UNK     1      17.762   1.533  34.797  1.00  0.00    -0.041 A 
HETATM   19  C13 UNK     1      18.313   1.963  35.997  1.00  0.00     0.009 A 
HETATM   20  C16 UNK     1      17.912   1.367  37.193  1.00  0.00     0.001 A 
HETATM   21  C18 UNK     1      16.963   0.344  37.178  1.00  0.00     0.000 A 
HETATM   22  C17 UNK     1      16.416  -0.082  35.968  1.00  0.00     0.001 A 
HETATM   23  C14 UNK     1      16.817   0.515  34.773  1.00  0.00     0.009 A 
ENDBRANCH  17  18
ENDBRANCH  15  17
ENDBRANCH   6  13
BRANCH   8  24
HETATM   24  O2  UNK     1      18.622  10.647  34.228  1.00  0.00    -0.349 OA
BRANCH  24  25
HETATM   25  C15 UNK     1      18.637  12.030  33.878  1.00  0.00     0.171 C 
HETATM   26  C19 UNK     1      18.439  12.857  35.131  1.00  0.00     0.034 C 
ENDBRANCH  24  25
ENDBRANCH   8  24
TORSDOF 5
ENDMDL
MODEL 10
REMARK VINA RESULT:      -7.4      2.307      3.263
REMARK  5 active torsions:
REMARK  status: ('A' for Active; 'I' for Inactive)
REMARK    1  A    between atoms: C15_21  and  O2_3 
REMARK    2  A    between atoms: C5_11  and  O2_3 
REMARK    3  A    between atoms: C7_13  and  N1_6 
REMARK       I    between atoms: C8_14  and  N1_6 
REMARK    4  A    between atoms: C3_9  and  C8_14 
REMARK    5  A    between atoms: C11_17  and  C7_13 
ROOT
HETATM    1 Br1  UNK     1      16.677   1.761  37.555  1.00  0.00    -0.051 Br
HETATM    2  O1  UNK     1      19.313  -2.888  34.683  1.00  0.00    -0.271 OA
HETATM    3  O4  UNK     1      20.516  -4.829  34.739  1.00  0.00    -0.259 OA
HETATM    4  C1  UNK     1      18.776  -1.748  36.763  1.00  0.00     0.003 A 
HETATM    5  C2  UNK     1      18.710  -1.819  35.375  1.00  0.00     0.123 A 
HETATM    6  C3  UNK     1      20.050  -3.809  36.826  1.00  0.00     0.108 A 
HETATM    7  C4  UNK     1      19.479  -2.795  37.489  1.00  0.00     0.037 A 
HETATM    8  C5  UNK     1      18.052  -0.850  34.622  1.00  0.00     0.104 A 
HETATM    9  C6  UNK     1      18.165  -0.673  37.413  1.00  0.00     0.033 A 
HETATM   10  C9  UNK     1      19.992  -3.905  35.350  1.00  0.00     0.304 A 
HETATM   11  C10 UNK     1      17.446   0.219  35.277  1.00  0.00     0.058 A 
HETATM   12  C12 UNK     1      17.502   0.308  36.670  1.00  0.00     0.014 A 
ENDROOT
BRANCH   6  13
HETATM   13  C8  UNK     1      20.735  -4.815  37.646  1.00  0.00     0.258 C 
HETATM   14  O3  UNK     1      21.962  -4.896  37.653  1.00  0.00    -0.267 OA
HETATM   15  N1  UNK     1      19.860  -5.610  38.364  1.00  0.00    -0.352 N 
HETATM   16  H6  UNK     1      18.857  -5.492  38.256  1.00  0.00     0.163 HD
BRANCH  15  17
HETATM   17  C7  UNK     1      20.299  -6.672  39.240  1.00  0.00     0.161 C 
BRANCH  17  18
HETATM   18  C11 UNK     1      20.249  -7.996  38.530  1.00  0.00    -0.041 A 
HETATM   19  C13 UNK     1      19.023  -8.611  38.310  1.00  0.00     0.009 A 
HETATM   20  C16 UNK     1      18.977  -9.839  37.652  1.00  0.00     0.001 A 
HETATM   21  C18 UNK     1      20.158 -10.443  37.218  1.00  0.00     0.000 A 
HETATM   22  C17 UNK     1      21.384  -9.818  37.444  1.00  0.00     0.001 A 
HETATM   23  C14 UNK     1      21.430  -8.589  38.103  1.00  0.00     0.009 A 
ENDBRANCH  17  18
ENDBRANCH  15  17
ENDBRANCH   6  13
BRANCH   8  24
HETATM   24  O2  UNK     1      17.995  -0.931  33.265  1.00  0.00    -0.349 OA
BRANCH  24  25
HETATM   25  C15 UNK     1      19.002  -0.237  32.529  1.00  0.00     0.171 C 
HETATM   26  C19 UNK     1      19.729  -1.223  31.638  1.00  0.00     0.034 C 
ENDBRANCH  24  25
ENDBRANCH   8  24
TORSDOF 5
ENDMDL
