MODEL 1
REMARK VINA RESULT:      -8.8      0.000      0.000
REMARK  7 active torsions:
REMARK  status: ('A' for Active; 'I' for Inactive)
REMARK    1  A    between atoms: C1_9  and  O1_2 
REMARK    2  A    between atoms: C24_32  and  O6_7 
REMARK    3  A    between atoms: C6_14  and  N1_8 
REMARK    4  A    between atoms: C1_9  and  C5_13 
REMARK    5  A    between atoms: C5_13  and  C9_17 
REMARK    6  A    between atoms: C10_18  and  C6_14 
REMARK    7  A    between atoms: C13_21  and  C9_17 
ROOT
HETATM    1 Br1  UNK     1      34.973  -6.240  36.299  1.00  0.00    -0.051 Br
HETATM    2  O2  UNK     1      27.438  -6.798  34.807  1.00  0.00    -0.269 OA
HETATM    3  N1  UNK     1      29.467  -6.087  33.833  1.00  0.00    -0.310 N 
HETATM    4  C1  UNK     1      29.567  -7.001  36.017  1.00  0.00     0.175 A 
HETATM    5  C2  UNK     1      30.922  -6.573  35.525  1.00  0.00     0.014 A 
HETATM    6  C3  UNK     1      30.809  -6.045  34.237  1.00  0.00     0.047 A 
HETATM    7  C4  UNK     1      28.649  -6.638  34.831  1.00  0.00     0.264 A 
HETATM    8  C7  UNK     1      32.151  -6.640  36.158  1.00  0.00     0.032 A 
HETATM    9  C8  UNK     1      31.910  -5.572  33.544  1.00  0.00     0.032 A 
HETATM   10  C11 UNK     1      33.273  -6.168  35.472  1.00  0.00     0.011 A 
HETATM   11  C12 UNK     1      33.154  -5.639  34.177  1.00  0.00     0.021 A 
ENDROOT
BRANCH   4  12
HETATM   12  O1  UNK     1      29.189  -6.215  37.130  1.00  0.00    -0.375 OA
HETATM   13  H7  UNK     1      28.530  -6.704  37.650  1.00  0.00     0.211 HD
ENDBRANCH   4  12
BRANCH   4  14
HETATM   14  C5  UNK     1      29.483  -8.484  36.346  1.00  0.00     0.137 C 
BRANCH  14  15
HETATM   15  C9  UNK     1      28.637  -8.753  37.572  1.00  0.00     0.169 C 
HETATM   16  O3  UNK     1      29.076  -8.758  38.718  1.00  0.00    -0.292 OA
BRANCH  15  17
HETATM   17  C13 UNK     1      27.206  -9.021  37.331  1.00  0.00     0.086 A 
HETATM   18  C16 UNK     1      26.910 -10.203  36.778  1.00  0.00     0.035 A 
HETATM   19  C18 UNK     1      25.526 -10.558  36.501  1.00  0.00     0.002 A 
HETATM   20  C19 UNK     1      24.522  -9.650  36.822  1.00  0.00     0.123 A 
HETATM   21  C23 UNK     1      25.171 -11.780  35.927  1.00  0.00     0.014 A 
HETATM   22  O4  UNK     1      24.839  -8.407  37.403  1.00  0.00    -0.271 OA
HETATM   23  C24 UNK     1      23.178  -9.929  36.583  1.00  0.00     0.102 A 
HETATM   24  C17 UNK     1      26.154  -8.040  37.680  1.00  0.00     0.302 A 
HETATM   25  O5  UNK     1      26.420  -6.955  38.188  1.00  0.00    -0.259 OA
HETATM   26  C26 UNK     1      22.833 -11.149  36.009  1.00  0.00     0.040 A 
HETATM   27  C25 UNK     1      23.827 -12.074  35.681  1.00  0.00     0.004 A 
BRANCH  23  28
HETATM   28  O6  UNK     1      22.206  -9.031  36.900  1.00  0.00    -0.353 OA
HETATM   29  C27 UNK     1      21.555  -8.368  35.818  1.00  0.00     0.210 C 
ENDBRANCH  23  28
ENDBRANCH  15  17
ENDBRANCH  14  15
ENDBRANCH   4  14
BRANCH   3  30
HETATM   30  C6  UNK     1      29.011  -5.609  32.550  1.00  0.00     0.170 C 
BRANCH  30  31
HETATM   31  C10 UNK     1      28.831  -6.733  31.564  1.00  0.00    -0.040 A 
HETATM   32  C14 UNK     1      29.915  -7.164  30.813  1.00  0.00     0.009 A 
HETATM   33  C20 UNK     1      29.748  -8.204  29.900  1.00  0.00     0.001 A 
HETATM   34  C22 UNK     1      28.498  -8.804  29.747  1.00  0.00     0.000 A 
HETATM   35  C21 UNK     1      27.415  -8.363  30.507  1.00  0.00     0.001 A 
HETATM   36  C15 UNK     1      27.582  -7.322  31.421  1.00  0.00     0.009 A 
ENDBRANCH  30  31
ENDBRANCH   3  30
TORSDOF 7
ENDMDL
MODEL 2
REMARK VINA RESULT:      -8.5      3.513      4.733
REMARK  7 active torsions:
REMARK  status: ('A' for Active; 'I' for Inactive)
REMARK    1  A    between atoms: C1_9  and  O1_2 
REMARK    2  A    between atoms: C24_32  and  O6_7 
REMARK    3  A    between atoms: C6_14  and  N1_8 
REMARK    4  A    between atoms: C1_9  and  C5_13 
REMARK    5  A    between atoms: C5_13  and  C9_17 
REMARK    6  A    between atoms: C10_18  and  C6_14 
REMARK    7  A    between atoms: C13_21  and  C9_17 
ROOT
HETATM    1 Br1  UNK     1      36.582  -9.708  30.550  1.00  0.00    -0.051 Br
HETATM    2  O2  UNK     1      30.491  -5.890  33.314  1.00  0.00    -0.269 OA
HETATM    3  N1  UNK     1      31.480  -6.568  31.281  1.00  0.00    -0.310 N 
HETATM    4  C1  UNK     1      32.569  -7.201  33.288  1.00  0.00     0.175 A 
HETATM    5  C2  UNK     1      33.311  -7.679  32.072  1.00  0.00     0.014 A 
HETATM    6  C3  UNK     1      32.630  -7.283  30.919  1.00  0.00     0.047 A 
HETATM    7  C4  UNK     1      31.360  -6.463  32.675  1.00  0.00     0.264 A 
HETATM    8  C7  UNK     1      34.490  -8.400  31.985  1.00  0.00     0.032 A 
HETATM    9  C8  UNK     1      33.097  -7.594  29.654  1.00  0.00     0.032 A 
HETATM   10  C11 UNK     1      34.975  -8.723  30.715  1.00  0.00     0.011 A 
HETATM   11  C12 UNK     1      34.284  -8.323  29.560  1.00  0.00     0.021 A 
ENDROOT
BRANCH   4  12
HETATM   12  O1  UNK     1      33.355  -6.260  33.993  1.00  0.00    -0.375 OA
HETATM   13  H7  UNK     1      32.848  -5.436  34.088  1.00  0.00     0.211 HD
ENDBRANCH   4  12
BRANCH   4  14
HETATM   14  C5  UNK     1      32.119  -8.329  34.205  1.00  0.00     0.137 C 
BRANCH  14  15
HETATM   15  C9  UNK     1      32.491  -8.075  35.651  1.00  0.00     0.169 C 
HETATM   16  O3  UNK     1      33.641  -8.113  36.079  1.00  0.00    -0.292 OA
BRANCH  15  17
HETATM   17  C13 UNK     1      31.375  -7.769  36.567  1.00  0.00     0.086 A 
HETATM   18  C16 UNK     1      30.760  -8.819  37.123  1.00  0.00     0.035 A 
HETATM   19  C18 UNK     1      29.648  -8.618  38.040  1.00  0.00     0.002 A 
HETATM   20  C19 UNK     1      29.239  -7.320  38.327  1.00  0.00     0.123 A 
HETATM   21  C23 UNK     1      28.979  -9.685  38.644  1.00  0.00     0.014 A 
HETATM   22  O4  UNK     1      29.890  -6.218  37.739  1.00  0.00    -0.271 OA
HETATM   23  C24 UNK     1      28.183  -7.060  39.196  1.00  0.00     0.102 A 
HETATM   24  C17 UNK     1      30.957  -6.379  36.858  1.00  0.00     0.302 A 
HETATM   25  O5  UNK     1      31.518  -5.413  36.352  1.00  0.00    -0.259 OA
HETATM   26  C26 UNK     1      27.519  -8.128  39.793  1.00  0.00     0.040 A 
HETATM   27  C25 UNK     1      27.916  -9.439  39.517  1.00  0.00     0.004 A 
BRANCH  23  28
HETATM   28  O6  UNK     1      27.792  -5.785  39.467  1.00  0.00    -0.353 OA
HETATM   29  C27 UNK     1      26.718  -5.254  38.691  1.00  0.00     0.210 C 
ENDBRANCH  23  28
ENDBRANCH  15  17
ENDBRANCH  14  15
ENDBRANCH   4  14
BRANCH   3  30
HETATM   30  C6  UNK     1      30.558  -6.012  30.320  1.00  0.00     0.170 C 
BRANCH  30  31
HETATM   31  C10 UNK     1      29.269  -6.788  30.267  1.00  0.00    -0.040 A 
HETATM   32  C14 UNK     1      28.064  -6.130  30.475  1.00  0.00     0.009 A 
HETATM   33  C20 UNK     1      26.872  -6.849  30.425  1.00  0.00     0.001 A 
HETATM   34  C22 UNK     1      26.893  -8.220  30.169  1.00  0.00     0.000 A 
HETATM   35  C21 UNK     1      28.108  -8.872  29.962  1.00  0.00     0.001 A 
HETATM   36  C15 UNK     1      29.303  -8.153  30.011  1.00  0.00     0.009 A 
ENDBRANCH  30  31
ENDBRANCH   3  30
TORSDOF 7
ENDMDL
MODEL 3
REMARK VINA RESULT:      -8.5     10.715     14.308
REMARK  7 active torsions:
REMARK  status: ('A' for Active; 'I' for Inactive)
REMARK    1  A    between atoms: C1_9  and  O1_2 
REMARK    2  A    between atoms: C24_32  and  O6_7 
REMARK    3  A    between atoms: C6_14  and  N1_8 
REMARK    4  A    between atoms: C1_9  and  C5_13 
REMARK    5  A    between atoms: C5_13  and  C9_17 
REMARK    6  A    between atoms: C10_18  and  C6_14 
REMARK    7  A    between atoms: C13_21  and  C9_17 
ROOT
HETATM    1 Br1  UNK     1      20.191  -1.736  29.766  1.00  0.00    -0.051 Br
HETATM    2  O2  UNK     1      18.638  -1.494  37.306  1.00  0.00    -0.269 OA
HETATM    3  N1  UNK     1      20.090  -2.515  35.750  1.00  0.00    -0.310 N 
HETATM    4  C1  UNK     1      18.495  -0.978  34.908  1.00  0.00     0.175 A 
HETATM    5  C2  UNK     1      19.341  -1.566  33.813  1.00  0.00     0.014 A 
HETATM    6  C3  UNK     1      20.262  -2.462  34.360  1.00  0.00     0.047 A 
HETATM    7  C4  UNK     1      19.055  -1.666  36.170  1.00  0.00     0.264 A 
HETATM    8  C7  UNK     1      19.301  -1.336  32.448  1.00  0.00     0.032 A 
HETATM    9  C8  UNK     1      21.168  -3.148  33.570  1.00  0.00     0.032 A 
HETATM   10  C11 UNK     1      20.209  -2.021  31.636  1.00  0.00     0.011 A 
HETATM   11  C12 UNK     1      21.135  -2.919  32.193  1.00  0.00     0.021 A 
ENDROOT
BRANCH   4  12
HETATM   12  O1  UNK     1      17.149  -1.376  34.742  1.00  0.00    -0.375 OA
HETATM   13  H7  UNK     1      16.818  -1.020  33.901  1.00  0.00     0.211 HD
ENDBRANCH   4  12
BRANCH   4  14
HETATM   14  C5  UNK     1      18.606   0.536  35.010  1.00  0.00     0.137 C 
BRANCH  14  15
HETATM   15  C9  UNK     1      17.540   1.245  34.201  1.00  0.00     0.169 C 
HETATM   16  O3  UNK     1      16.389   0.837  34.080  1.00  0.00    -0.292 OA
BRANCH  15  17
HETATM   17  C13 UNK     1      17.951   2.496  33.534  1.00  0.00     0.086 A 
HETATM   18  C16 UNK     1      18.037   3.581  34.312  1.00  0.00     0.035 A 
HETATM   19  C18 UNK     1      18.434   4.861  33.744  1.00  0.00     0.002 A 
HETATM   20  C19 UNK     1      18.721   4.934  32.385  1.00  0.00     0.123 A 
HETATM   21  C23 UNK     1      18.538   6.019  34.519  1.00  0.00     0.014 A 
HETATM   22  O4  UNK     1      18.629   3.789  31.571  1.00  0.00    -0.271 OA
HETATM   23  C24 UNK     1      19.107   6.128  31.781  1.00  0.00     0.102 A 
HETATM   24  C17 UNK     1      18.253   2.550  32.086  1.00  0.00     0.302 A 
HETATM   25  O5  UNK     1      18.176   1.558  31.369  1.00  0.00    -0.259 OA
HETATM   26  C26 UNK     1      19.208   7.279  32.560  1.00  0.00     0.040 A 
HETATM   27  C25 UNK     1      18.923   7.224  33.926  1.00  0.00     0.004 A 
BRANCH  23  28
HETATM   28  O6  UNK     1      19.384   6.186  30.450  1.00  0.00    -0.353 OA
HETATM   29  C27 UNK     1      20.731   5.927  30.054  1.00  0.00     0.210 C 
ENDBRANCH  23  28
ENDBRANCH  15  17
ENDBRANCH  14  15
ENDBRANCH   4  14
BRANCH   3  30
HETATM   30  C6  UNK     1      20.884  -3.353  36.615  1.00  0.00     0.170 C 
BRANCH  30  31
HETATM   31  C10 UNK     1      20.160  -4.620  36.987  1.00  0.00    -0.040 A 
HETATM   32  C14 UNK     1      19.101  -5.058  36.204  1.00  0.00     0.009 A 
HETATM   33  C20 UNK     1      18.431  -6.230  36.550  1.00  0.00     0.001 A 
HETATM   34  C22 UNK     1      18.825  -6.954  37.675  1.00  0.00     0.000 A 
HETATM   35  C21 UNK     1      19.891  -6.505  38.455  1.00  0.00     0.001 A 
HETATM   36  C15 UNK     1      20.562  -5.332  38.109  1.00  0.00     0.009 A 
ENDBRANCH  30  31
ENDBRANCH   3  30
TORSDOF 7
ENDMDL
MODEL 4
REMARK VINA RESULT:      -8.3      4.707      9.091
REMARK  7 active torsions:
REMARK  status: ('A' for Active; 'I' for Inactive)
REMARK    1  A    between atoms: C1_9  and  O1_2 
REMARK    2  A    between atoms: C24_32  and  O6_7 
REMARK    3  A    between atoms: C6_14  and  N1_8 
REMARK    4  A    between atoms: C1_9  and  C5_13 
REMARK    5  A    between atoms: C5_13  and  C9_17 
REMARK    6  A    between atoms: C10_18  and  C6_14 
REMARK    7  A    between atoms: C13_21  and  C9_17 
ROOT
HETATM    1 Br1  UNK     1      32.320 -13.515  30.479  1.00  0.00    -0.051 Br
HETATM    2  O2  UNK     1      27.491  -7.524  30.798  1.00  0.00    -0.269 OA
HETATM    3  N1  UNK     1      28.847  -8.880  32.174  1.00  0.00    -0.310 N 
HETATM    4  C1  UNK     1      28.847  -9.340  29.850  1.00  0.00     0.175 A 
HETATM    5  C2  UNK     1      29.736 -10.286  30.610  1.00  0.00     0.014 A 
HETATM    6  C3  UNK     1      29.702  -9.973  31.970  1.00  0.00     0.047 A 
HETATM    7  C4  UNK     1      28.287  -8.436  30.968  1.00  0.00     0.264 A 
HETATM    8  C7  UNK     1      30.507 -11.337  30.144  1.00  0.00     0.032 A 
HETATM    9  C8  UNK     1      30.432 -10.690  32.902  1.00  0.00     0.032 A 
HETATM   10  C11 UNK     1      31.252 -12.071  31.071  1.00  0.00     0.011 A 
HETATM   11  C12 UNK     1      31.214 -11.750  32.438  1.00  0.00     0.021 A 
ENDROOT
BRANCH   4  12
HETATM   12  O1  UNK     1      27.772 -10.051  29.270  1.00  0.00    -0.375 OA
HETATM   13  H7  UNK     1      27.030  -9.439  29.133  1.00  0.00     0.211 HD
ENDBRANCH   4  12
BRANCH   4  14
HETATM   14  C5  UNK     1      29.589  -8.525  28.801  1.00  0.00     0.137 C 
BRANCH  14  15
HETATM   15  C9  UNK     1      30.461  -7.453  29.419  1.00  0.00     0.169 C 
HETATM   16  O3  UNK     1      30.083  -6.307  29.642  1.00  0.00    -0.292 OA
BRANCH  15  17
HETATM   17  C13 UNK     1      31.843  -7.850  29.756  1.00  0.00     0.086 A 
HETATM   18  C16 UNK     1      32.251  -7.573  31.000  1.00  0.00     0.035 A 
HETATM   19  C18 UNK     1      33.597  -7.926  31.426  1.00  0.00     0.002 A 
HETATM   20  C19 UNK     1      34.446  -8.553  30.521  1.00  0.00     0.123 A 
HETATM   21  C23 UNK     1      34.064  -7.657  32.715  1.00  0.00     0.014 A 
HETATM   22  O4  UNK     1      34.011  -8.842  29.213  1.00  0.00    -0.271 OA
HETATM   23  C24 UNK     1      35.746  -8.917  30.866  1.00  0.00     0.102 A 
HETATM   24  C17 UNK     1      32.729  -8.518  28.777  1.00  0.00     0.302 A 
HETATM   25  O5  UNK     1      32.359  -8.774  27.635  1.00  0.00    -0.259 OA
HETATM   26  C26 UNK     1      36.205  -8.645  32.152  1.00  0.00     0.040 A 
HETATM   27  C25 UNK     1      35.366  -8.015  33.075  1.00  0.00     0.004 A 
BRANCH  23  28
HETATM   28  O6  UNK     1      36.566  -9.530  29.970  1.00  0.00    -0.353 OA
HETATM   29  C27 UNK     1      37.462 -10.518  30.478  1.00  0.00     0.210 C 
ENDBRANCH  23  28
ENDBRANCH  15  17
ENDBRANCH  14  15
ENDBRANCH   4  14
BRANCH   3  30
HETATM   30  C6  UNK     1      28.587  -8.311  33.475  1.00  0.00     0.170 C 
BRANCH  30  31
HETATM   31  C10 UNK     1      29.682  -7.370  33.904  1.00  0.00    -0.040 A 
HETATM   32  C14 UNK     1      29.874  -6.183  33.212  1.00  0.00     0.009 A 
HETATM   33  C20 UNK     1      30.888  -5.313  33.610  1.00  0.00     0.001 A 
HETATM   34  C22 UNK     1      31.700  -5.638  34.696  1.00  0.00     0.000 A 
HETATM   35  C21 UNK     1      31.499  -6.834  35.384  1.00  0.00     0.001 A 
HETATM   36  C15 UNK     1      30.484  -7.705  34.987  1.00  0.00     0.009 A 
ENDBRANCH  30  31
ENDBRANCH   3  30
TORSDOF 7
ENDMDL
MODEL 5
REMARK VINA RESULT:      -8.3      3.356      6.271
REMARK  7 active torsions:
REMARK  status: ('A' for Active; 'I' for Inactive)
REMARK    1  A    between atoms: C1_9  and  O1_2 
REMARK    2  A    between atoms: C24_32  and  O6_7 
REMARK    3  A    between atoms: C6_14  and  N1_8 
REMARK    4  A    between atoms: C1_9  and  C5_13 
REMARK    5  A    between atoms: C5_13  and  C9_17 
REMARK    6  A    between atoms: C10_18  and  C6_14 
REMARK    7  A    between atoms: C13_21  and  C9_17 
ROOT
HETATM    1 Br1  UNK     1      30.984 -12.146  32.622  1.00  0.00    -0.051 Br
HETATM    2  O2  UNK     1      32.080  -8.168  39.125  1.00  0.00    -0.269 OA
HETATM    3  N1  UNK     1      32.883  -8.351  36.913  1.00  0.00    -0.310 N 
HETATM    4  C1  UNK     1      31.107  -9.784  37.550  1.00  0.00     0.175 A 
HETATM    5  C2  UNK     1      31.532 -10.016  36.127  1.00  0.00     0.014 A 
HETATM    6  C3  UNK     1      32.577  -9.149  35.801  1.00  0.00     0.047 A 
HETATM    7  C4  UNK     1      32.061  -8.660  38.007  1.00  0.00     0.264 A 
HETATM    8  C7  UNK     1      31.044 -10.917  35.197  1.00  0.00     0.032 A 
HETATM    9  C8  UNK     1      33.161  -9.151  34.547  1.00  0.00     0.032 A 
HETATM   10  C11 UNK     1      31.621 -10.932  33.925  1.00  0.00     0.011 A 
HETATM   11  C12 UNK     1      32.671 -10.056  33.603  1.00  0.00     0.021 A 
ENDROOT
BRANCH   4  12
HETATM   12  O1  UNK     1      31.372 -10.936  38.326  1.00  0.00    -0.375 OA
HETATM   13  H7  UNK     1      31.322 -11.718  37.751  1.00  0.00     0.211 HD
ENDBRANCH   4  12
BRANCH   4  14
HETATM   14  C5  UNK     1      29.651  -9.360  37.685  1.00  0.00     0.137 C 
BRANCH  14  15
HETATM   15  C9  UNK     1      29.423  -7.937  37.223  1.00  0.00     0.169 C 
HETATM   16  O3  UNK     1      29.433  -6.964  37.972  1.00  0.00    -0.292 OA
BRANCH  15  17
HETATM   17  C13 UNK     1      29.177  -7.751  35.780  1.00  0.00     0.086 A 
HETATM   18  C16 UNK     1      29.872  -6.777  35.182  1.00  0.00     0.035 A 
HETATM   19  C18 UNK     1      29.698  -6.517  33.761  1.00  0.00     0.002 A 
HETATM   20  C19 UNK     1      28.799  -7.297  33.039  1.00  0.00     0.123 A 
HETATM   21  C23 UNK     1      30.403  -5.511  33.095  1.00  0.00     0.014 A 
HETATM   22  O4  UNK     1      28.071  -8.321  33.674  1.00  0.00    -0.271 OA
HETATM   23  C24 UNK     1      28.586  -7.099  31.677  1.00  0.00     0.102 A 
HETATM   24  C17 UNK     1      28.217  -8.593  35.032  1.00  0.00     0.302 A 
HETATM   25  O5  UNK     1      27.578  -9.488  35.576  1.00  0.00    -0.259 OA
HETATM   26  C26 UNK     1      29.293  -6.094  31.021  1.00  0.00     0.040 A 
HETATM   27  C25 UNK     1      30.199  -5.301  31.729  1.00  0.00     0.004 A 
BRANCH  23  28
HETATM   28  O6  UNK     1      27.704  -7.869  30.984  1.00  0.00    -0.353 OA
HETATM   29  C27 UNK     1      28.249  -8.831  30.082  1.00  0.00     0.210 C 
ENDBRANCH  23  28
ENDBRANCH  15  17
ENDBRANCH  14  15
ENDBRANCH   4  14
BRANCH   3  30
HETATM   30  C6  UNK     1      33.924  -7.352  36.908  1.00  0.00     0.170 C 
BRANCH  30  31
HETATM   31  C10 UNK     1      33.408  -6.006  36.474  1.00  0.00    -0.040 A 
HETATM   32  C14 UNK     1      32.549  -5.301  37.307  1.00  0.00     0.009 A 
HETATM   33  C20 UNK     1      32.071  -4.056  36.904  1.00  0.00     0.001 A 
HETATM   34  C22 UNK     1      32.455  -3.525  35.673  1.00  0.00     0.000 A 
HETATM   35  C21 UNK     1      33.318  -4.242  34.843  1.00  0.00     0.001 A 
HETATM   36  C15 UNK     1      33.797  -5.489  35.246  1.00  0.00     0.009 A 
ENDBRANCH  30  31
ENDBRANCH   3  30
TORSDOF 7
ENDMDL
MODEL 6
REMARK VINA RESULT:      -8.2      5.356      8.395
REMARK  7 active torsions:
REMARK  status: ('A' for Active; 'I' for Inactive)
REMARK    1  A    between atoms: C1_9  and  O1_2 
REMARK    2  A    between atoms: C24_32  and  O6_7 
REMARK    3  A    between atoms: C6_14  and  N1_8 
REMARK    4  A    between atoms: C1_9  and  C5_13 
REMARK    5  A    between atoms: C5_13  and  C9_17 
REMARK    6  A    between atoms: C10_18  and  C6_14 
REMARK    7  A    between atoms: C13_21  and  C9_17 
ROOT
HETATM    1 Br1  UNK     1      31.783 -12.491  34.754  1.00  0.00    -0.051 Br
HETATM    2  O2  UNK     1      28.756  -9.612  28.284  1.00  0.00    -0.269 OA
HETATM    3  N1  UNK     1      28.709  -9.337  30.628  1.00  0.00    -0.310 N 
HETATM    4  C1  UNK     1      30.139 -11.012  29.755  1.00  0.00     0.175 A 
HETATM    5  C2  UNK     1      30.192 -10.956  31.256  1.00  0.00     0.014 A 
HETATM    6  C3  UNK     1      29.335  -9.956  31.719  1.00  0.00     0.047 A 
HETATM    7  C4  UNK     1      29.123  -9.903  29.413  1.00  0.00     0.264 A 
HETATM    8  C7  UNK     1      30.929 -11.724  32.142  1.00  0.00     0.032 A 
HETATM    9  C8  UNK     1      29.190  -9.688  33.070  1.00  0.00     0.032 A 
HETATM   10  C11 UNK     1      30.794 -11.467  33.508  1.00  0.00     0.011 A 
HETATM   11  C12 UNK     1      29.932 -10.458  33.968  1.00  0.00     0.021 A 
ENDROOT
BRANCH   4  12
HETATM   12  O1  UNK     1      29.603 -12.253  29.338  1.00  0.00    -0.375 OA
HETATM   13  H7  UNK     1      28.808 -12.443  29.864  1.00  0.00     0.211 HD
ENDBRANCH   4  12
BRANCH   4  14
HETATM   14  C5  UNK     1      31.484 -10.751  29.092  1.00  0.00     0.137 C 
BRANCH  14  15
HETATM   15  C9  UNK     1      31.902  -9.300  29.195  1.00  0.00     0.169 C 
HETATM   16  O3  UNK     1      31.664  -8.456  28.335  1.00  0.00    -0.292 OA
BRANCH  15  17
HETATM   17  C13 UNK     1      32.638  -8.918  30.416  1.00  0.00     0.086 A 
HETATM   18  C16 UNK     1      32.057  -7.997  31.193  1.00  0.00     0.035 A 
HETATM   19  C18 UNK     1      32.706  -7.555  32.419  1.00  0.00     0.002 A 
HETATM   20  C19 UNK     1      33.936  -8.106  32.765  1.00  0.00     0.123 A 
HETATM   21  C23 UNK     1      32.135  -6.597  33.261  1.00  0.00     0.014 A 
HETATM   22  O4  UNK     1      34.542  -9.075  31.943  1.00  0.00    -0.271 OA
HETATM   23  C24 UNK     1      34.609  -7.727  33.924  1.00  0.00     0.102 A 
HETATM   24  C17 UNK     1      33.945  -9.518  30.765  1.00  0.00     0.302 A 
HETATM   25  O5  UNK     1      34.481 -10.363  30.056  1.00  0.00    -0.259 OA
HETATM   26  C26 UNK     1      34.034  -6.770  34.757  1.00  0.00     0.040 A 
HETATM   27  C25 UNK     1      32.799  -6.206  34.426  1.00  0.00     0.004 A 
BRANCH  23  28
HETATM   28  O6  UNK     1      35.811  -8.273  34.249  1.00  0.00    -0.353 OA
HETATM   29  C27 UNK     1      36.961  -7.436  34.125  1.00  0.00     0.210 C 
ENDBRANCH  23  28
ENDBRANCH  15  17
ENDBRANCH  14  15
ENDBRANCH   4  14
BRANCH   3  30
HETATM   30  C6  UNK     1      27.756  -8.263  30.766  1.00  0.00     0.170 C 
BRANCH  30  31
HETATM   31  C10 UNK     1      28.431  -6.948  31.057  1.00  0.00    -0.040 A 
HETATM   32  C14 UNK     1      29.241  -6.367  30.091  1.00  0.00     0.009 A 
HETATM   33  C20 UNK     1      29.865  -5.150  30.362  1.00  0.00     0.001 A 
HETATM   34  C22 UNK     1      29.675  -4.527  31.594  1.00  0.00     0.000 A 
HETATM   35  C21 UNK     1      28.860  -5.120  32.558  1.00  0.00     0.001 A 
HETATM   36  C15 UNK     1      28.234  -6.337  32.288  1.00  0.00     0.009 A 
ENDBRANCH  30  31
ENDBRANCH   3  30
TORSDOF 7
ENDMDL
MODEL 7
REMARK VINA RESULT:      -8.2      4.814      6.725
REMARK  7 active torsions:
REMARK  status: ('A' for Active; 'I' for Inactive)
REMARK    1  A    between atoms: C1_9  and  O1_2 
REMARK    2  A    between atoms: C24_32  and  O6_7 
REMARK    3  A    between atoms: C6_14  and  N1_8 
REMARK    4  A    between atoms: C1_9  and  C5_13 
REMARK    5  A    between atoms: C5_13  and  C9_17 
REMARK    6  A    between atoms: C10_18  and  C6_14 
REMARK    7  A    between atoms: C13_21  and  C9_17 
ROOT
HETATM    1 Br1  UNK     1      30.936 -16.016  32.707  1.00  0.00    -0.051 Br
HETATM    2  O2  UNK     1      31.530  -8.338  32.858  1.00  0.00    -0.269 OA
HETATM    3  N1  UNK     1      31.057 -10.127  31.392  1.00  0.00    -0.310 N 
HETATM    4  C1  UNK     1      31.511 -10.663  33.655  1.00  0.00     0.175 A 
HETATM    5  C2  UNK     1      31.245 -11.891  32.830  1.00  0.00     0.014 A 
HETATM    6  C3  UNK     1      30.982 -11.522  31.509  1.00  0.00     0.047 A 
HETATM    7  C4  UNK     1      31.371  -9.527  32.620  1.00  0.00     0.264 A 
HETATM    8  C7  UNK     1      31.237 -13.222  33.208  1.00  0.00     0.032 A 
HETATM    9  C8  UNK     1      30.703 -12.462  30.531  1.00  0.00     0.032 A 
HETATM   10  C11 UNK     1      30.957 -14.184  32.234  1.00  0.00     0.011 A 
HETATM   11  C12 UNK     1      30.692 -13.807  30.907  1.00  0.00     0.021 A 
ENDROOT
BRANCH   4  12
HETATM   12  O1  UNK     1      32.845 -10.678  34.124  1.00  0.00    -0.375 OA
HETATM   13  H7  UNK     1      33.417 -10.266  33.454  1.00  0.00     0.211 HD
ENDBRANCH   4  12
BRANCH   4  14
HETATM   14  C5  UNK     1      30.532 -10.484  34.806  1.00  0.00     0.137 C 
BRANCH  14  15
HETATM   15  C9  UNK     1      31.235 -10.236  36.123  1.00  0.00     0.169 C 
HETATM   16  O3  UNK     1      31.756 -11.119  36.798  1.00  0.00    -0.292 OA
BRANCH  15  17
HETATM   17  C13 UNK     1      31.275  -8.835  36.589  1.00  0.00     0.086 A 
HETATM   18  C16 UNK     1      30.256  -8.440  37.361  1.00  0.00     0.035 A 
HETATM   19  C18 UNK     1      30.206  -7.076  37.868  1.00  0.00     0.002 A 
HETATM   20  C19 UNK     1      31.233  -6.197  37.536  1.00  0.00     0.123 A 
HETATM   21  C23 UNK     1      29.164  -6.621  38.678  1.00  0.00     0.014 A 
HETATM   22  O4  UNK     1      32.302  -6.619  36.723  1.00  0.00    -0.271 OA
HETATM   23  C24 UNK     1      31.244  -4.880  37.989  1.00  0.00     0.102 A 
HETATM   24  C17 UNK     1      32.377  -7.918  36.224  1.00  0.00     0.302 A 
HETATM   25  O5  UNK     1      33.313  -8.276  35.516  1.00  0.00    -0.259 OA
HETATM   26  C26 UNK     1      30.201  -4.433  38.796  1.00  0.00     0.040 A 
HETATM   27  C25 UNK     1      29.162  -5.302  39.139  1.00  0.00     0.004 A 
BRANCH  23  28
HETATM   28  O6  UNK     1      32.254  -4.031  37.657  1.00  0.00    -0.353 OA
HETATM   29  C27 UNK     1      32.132  -3.329  36.420  1.00  0.00     0.210 C 
ENDBRANCH  23  28
ENDBRANCH  15  17
ENDBRANCH  14  15
ENDBRANCH   4  14
BRANCH   3  30
HETATM   30  C6  UNK     1      30.842  -9.424  30.150  1.00  0.00     0.170 C 
BRANCH  30  31
HETATM   31  C10 UNK     1      29.663  -8.490  30.231  1.00  0.00    -0.040 A 
HETATM   32  C14 UNK     1      28.391  -9.010  30.424  1.00  0.00     0.009 A 
HETATM   33  C20 UNK     1      27.300  -8.145  30.498  1.00  0.00     0.001 A 
HETATM   34  C22 UNK     1      27.492  -6.768  30.380  1.00  0.00     0.000 A 
HETATM   35  C21 UNK     1      28.775  -6.256  30.186  1.00  0.00     0.001 A 
HETATM   36  C15 UNK     1      29.867  -7.122  30.112  1.00  0.00     0.009 A 
ENDBRANCH  30  31
ENDBRANCH   3  30
TORSDOF 7
ENDMDL
MODEL 8
REMARK VINA RESULT:      -8.2      3.634      8.355
REMARK  7 active torsions:
REMARK  status: ('A' for Active; 'I' for Inactive)
REMARK    1  A    between atoms: C1_9  and  O1_2 
REMARK    2  A    between atoms: C24_32  and  O6_7 
REMARK    3  A    between atoms: C6_14  and  N1_8 
REMARK    4  A    between atoms: C1_9  and  C5_13 
REMARK    5  A    between atoms: C5_13  and  C9_17 
REMARK    6  A    between atoms: C10_18  and  C6_14 
REMARK    7  A    between atoms: C13_21  and  C9_17 
ROOT
HETATM    1 Br1  UNK     1      30.877  -7.272  31.331  1.00  0.00    -0.051 Br
HETATM    2  O2  UNK     1      30.333  -5.623  38.835  1.00  0.00    -0.269 OA
HETATM    3  N1  UNK     1      29.028  -6.322  36.997  1.00  0.00    -0.310 N 
HETATM    4  C1  UNK     1      31.341  -5.973  36.622  1.00  0.00     0.175 A 
HETATM    5  C2  UNK     1      30.626  -6.396  35.368  1.00  0.00     0.014 A 
HETATM    6  C3  UNK     1      29.271  -6.590  35.643  1.00  0.00     0.047 A 
HETATM    7  C4  UNK     1      30.203  -5.942  37.663  1.00  0.00     0.264 A 
HETATM    8  C7  UNK     1      31.125  -6.592  34.092  1.00  0.00     0.032 A 
HETATM    9  C8  UNK     1      28.378  -6.985  34.662  1.00  0.00     0.032 A 
HETATM   10  C11 UNK     1      30.237  -6.992  33.090  1.00  0.00     0.011 A 
HETATM   11  C12 UNK     1      28.875  -7.186  33.373  1.00  0.00     0.021 A 
ENDROOT
BRANCH   4  12
HETATM   12  O1  UNK     1      31.842  -4.659  36.469  1.00  0.00    -0.375 OA
HETATM   13  H7  UNK     1      31.141  -4.028  36.702  1.00  0.00     0.211 HD
ENDBRANCH   4  12
BRANCH   4  14
HETATM   14  C5  UNK     1      32.446  -6.931  37.041  1.00  0.00     0.137 C 
BRANCH  14  15
HETATM   15  C9  UNK     1      33.819  -6.430  36.646  1.00  0.00     0.169 C 
HETATM   16  O3  UNK     1      34.560  -5.802  37.396  1.00  0.00    -0.292 OA
BRANCH  15  17
HETATM   17  C13 UNK     1      34.254  -6.735  35.269  1.00  0.00     0.086 A 
HETATM   18  C16 UNK     1      34.391  -8.030  34.964  1.00  0.00     0.035 A 
HETATM   19  C18 UNK     1      34.816  -8.430  33.631  1.00  0.00     0.002 A 
HETATM   20  C19 UNK     1      35.075  -7.444  32.684  1.00  0.00     0.123 A 
HETATM   21  C23 UNK     1      34.972  -9.770  33.269  1.00  0.00     0.014 A 
HETATM   22  O4  UNK     1      34.928  -6.082  33.010  1.00  0.00    -0.271 OA
HETATM   23  C24 UNK     1      35.484  -7.760  31.391  1.00  0.00     0.102 A 
HETATM   24  C17 UNK     1      34.522  -5.670  34.277  1.00  0.00     0.302 A 
HETATM   25  O5  UNK     1      34.397  -4.480  34.551  1.00  0.00    -0.259 OA
HETATM   26  C26 UNK     1      35.638  -9.099  31.038  1.00  0.00     0.040 A 
HETATM   27  C25 UNK     1      35.382 -10.102  31.976  1.00  0.00     0.004 A 
BRANCH  23  28
HETATM   28  O6  UNK     1      35.734  -6.786  30.474  1.00  0.00    -0.353 OA
HETATM   29  C27 UNK     1      34.858  -6.709  29.350  1.00  0.00     0.210 C 
ENDBRANCH  23  28
ENDBRANCH  15  17
ENDBRANCH  14  15
ENDBRANCH   4  14
BRANCH   3  30
HETATM   30  C6  UNK     1      27.721  -6.423  37.602  1.00  0.00     0.170 C 
BRANCH  30  31
HETATM   31  C10 UNK     1      27.473  -7.793  38.174  1.00  0.00    -0.040 A 
HETATM   32  C14 UNK     1      27.832  -8.062  39.488  1.00  0.00     0.009 A 
HETATM   33  C20 UNK     1      27.602  -9.332  40.016  1.00  0.00     0.001 A 
HETATM   34  C22 UNK     1      27.015 -10.320  39.227  1.00  0.00     0.000 A 
HETATM   35  C21 UNK     1      26.658 -10.039  37.908  1.00  0.00     0.001 A 
HETATM   36  C15 UNK     1      26.888  -8.769  37.379  1.00  0.00     0.009 A 
ENDBRANCH  30  31
ENDBRANCH   3  30
TORSDOF 7
ENDMDL
MODEL 9
REMARK VINA RESULT:      -8.2      5.242      7.961
REMARK  7 active torsions:
REMARK  status: ('A' for Active; 'I' for Inactive)
REMARK    1  A    between atoms: C1_9  and  O1_2 
REMARK    2  A    between atoms: C24_32  and  O6_7 
REMARK    3  A    between atoms: C6_14  and  N1_8 
REMARK    4  A    between atoms: C1_9  and  C5_13 
REMARK    5  A    between atoms: C5_13  and  C9_17 
REMARK    6  A    between atoms: C10_18  and  C6_14 
REMARK    7  A    between atoms: C13_21  and  C9_17 
ROOT
HETATM    1 Br1  UNK     1      31.776 -12.595  34.721  1.00  0.00    -0.051 Br
HETATM    2  O2  UNK     1      30.755  -9.127  27.921  1.00  0.00    -0.269 OA
HETATM    3  N1  UNK     1      29.745  -9.373  30.040  1.00  0.00    -0.310 N 
HETATM    4  C1  UNK     1      31.810 -10.477  29.681  1.00  0.00     0.175 A 
HETATM    5  C2  UNK     1      31.270 -10.732  31.061  1.00  0.00     0.014 A 
HETATM    6  C3  UNK     1      30.056 -10.060  31.222  1.00  0.00     0.047 A 
HETATM    7  C4  UNK     1      30.731  -9.566  29.061  1.00  0.00     0.264 A 
HETATM    8  C7  UNK     1      31.799 -11.493  32.089  1.00  0.00     0.032 A 
HETATM    9  C8  UNK     1      29.339 -10.123  32.404  1.00  0.00     0.032 A 
HETATM   10  C11 UNK     1      31.089 -11.567  33.290  1.00  0.00     0.011 A 
HETATM   11  C12 UNK     1      29.869 -10.888  33.446  1.00  0.00     0.021 A 
ENDROOT
BRANCH   4  12
HETATM   12  O1  UNK     1      31.847 -11.687  28.949  1.00  0.00    -0.375 OA
HETATM   13  H7  UNK     1      32.527 -12.264  29.334  1.00  0.00     0.211 HD
ENDBRANCH   4  12
BRANCH   4  14
HETATM   14  C5  UNK     1      33.172  -9.799  29.681  1.00  0.00     0.137 C 
BRANCH  14  15
HETATM   15  C9  UNK     1      33.079  -8.326  30.017  1.00  0.00     0.169 C 
HETATM   16  O3  UNK     1      32.893  -7.444  29.184  1.00  0.00    -0.292 OA
BRANCH  15  17
HETATM   17  C13 UNK     1      33.228  -7.971  31.442  1.00  0.00     0.086 A 
HETATM   18  C16 UNK     1      32.111  -7.609  32.082  1.00  0.00     0.035 A 
HETATM   19  C18 UNK     1      32.157  -7.241  33.489  1.00  0.00     0.002 A 
HETATM   20  C19 UNK     1      33.379  -7.273  34.153  1.00  0.00     0.123 A 
HETATM   21  C23 UNK     1      31.015  -6.858  34.197  1.00  0.00     0.014 A 
HETATM   22  O4  UNK     1      34.552  -7.655  33.475  1.00  0.00    -0.271 OA
HETATM   23  C24 UNK     1      33.491  -6.934  35.499  1.00  0.00     0.102 A 
HETATM   24  C17 UNK     1      34.539  -8.014  32.128  1.00  0.00     0.302 A 
HETATM   25  O5  UNK     1      35.567  -8.345  31.546  1.00  0.00    -0.259 OA
HETATM   26  C26 UNK     1      32.348  -6.552  36.197  1.00  0.00     0.040 A 
HETATM   27  C25 UNK     1      31.112  -6.514  35.547  1.00  0.00     0.004 A 
BRANCH  23  28
HETATM   28  O6  UNK     1      34.693  -6.969  36.136  1.00  0.00    -0.353 OA
HETATM   29  C27 UNK     1      35.300  -5.715  36.449  1.00  0.00     0.210 C 
ENDBRANCH  23  28
ENDBRANCH  15  17
ENDBRANCH  14  15
ENDBRANCH   4  14
BRANCH   3  30
HETATM   30  C6  UNK     1      28.549  -8.583  29.875  1.00  0.00     0.170 C 
BRANCH  30  31
HETATM   31  C10 UNK     1      28.625  -7.285  30.636  1.00  0.00    -0.040 A 
HETATM   32  C14 UNK     1      29.504  -6.297  30.215  1.00  0.00     0.009 A 
HETATM   33  C20 UNK     1      29.574  -5.096  30.920  1.00  0.00     0.001 A 
HETATM   34  C22 UNK     1      28.765  -4.894  32.038  1.00  0.00     0.000 A 
HETATM   35  C21 UNK     1      27.885  -5.895  32.452  1.00  0.00     0.001 A 
HETATM   36  C15 UNK     1      27.814  -7.097  31.747  1.00  0.00     0.009 A 
ENDBRANCH  30  31
ENDBRANCH   3  30
TORSDOF 7
ENDMDL
MODEL 10
REMARK VINA RESULT:      -8.1     32.072     34.633
REMARK  7 active torsions:
REMARK  status: ('A' for Active; 'I' for Inactive)
REMARK    1  A    between atoms: C1_9  and  O1_2 
REMARK    2  A    between atoms: C24_32  and  O6_7 
REMARK    3  A    between atoms: C6_14  and  N1_8 
REMARK    4  A    between atoms: C1_9  and  C5_13 
REMARK    5  A    between atoms: C5_13  and  C9_17 
REMARK    6  A    between atoms: C10_18  and  C6_14 
REMARK    7  A    between atoms: C13_21  and  C9_17 
ROOT
HETATM    1 Br1  UNK     1       7.696  10.669  11.712  1.00  0.00    -0.051 Br
HETATM    2  O2  UNK     1      10.785   5.344   7.084  1.00  0.00    -0.269 OA
HETATM    3  N1  UNK     1      11.275   7.416   8.102  1.00  0.00    -0.310 N 
HETATM    4  C1  UNK     1       9.156   6.455   8.550  1.00  0.00     0.175 A 
HETATM    5  C2  UNK     1       9.330   7.778   9.243  1.00  0.00     0.014 A 
HETATM    6  C3  UNK     1      10.591   8.300   8.949  1.00  0.00     0.047 A 
HETATM    7  C4  UNK     1      10.497   6.288   7.805  1.00  0.00     0.264 A 
HETATM    8  C7  UNK     1       8.452   8.466  10.062  1.00  0.00     0.032 A 
HETATM    9  C8  UNK     1      11.014   9.515   9.460  1.00  0.00     0.032 A 
HETATM   10  C11 UNK     1       8.864   9.694  10.588  1.00  0.00     0.011 A 
HETATM   11  C12 UNK     1      10.134  10.213  10.289  1.00  0.00     0.021 A 
ENDROOT
BRANCH   4  12
HETATM   12  O1  UNK     1       8.121   6.547   7.591  1.00  0.00    -0.375 OA
HETATM   13  H7  UNK     1       8.061   7.467   7.282  1.00  0.00     0.211 HD
ENDBRANCH   4  12
BRANCH   4  14
HETATM   14  C5  UNK     1       8.909   5.298   9.507  1.00  0.00     0.137 C 
BRANCH  14  15
HETATM   15  C9  UNK     1       7.507   4.742   9.384  1.00  0.00     0.169 C 
HETATM   16  O3  UNK     1       7.042   4.280   8.346  1.00  0.00    -0.292 OA
BRANCH  15  17
HETATM   17  C13 UNK     1       6.681   4.776  10.608  1.00  0.00     0.086 A 
HETATM   18  C16 UNK     1       6.690   5.924  11.295  1.00  0.00     0.035 A 
HETATM   19  C18 UNK     1       5.907   6.054  12.515  1.00  0.00     0.002 A 
HETATM   20  C19 UNK     1       5.155   4.969  12.951  1.00  0.00     0.123 A 
HETATM   21  C23 UNK     1       5.885   7.234  13.263  1.00  0.00     0.014 A 
HETATM   22  O4  UNK     1       5.150   3.763  12.224  1.00  0.00    -0.271 OA
HETATM   23  C24 UNK     1       4.385   5.029  14.110  1.00  0.00     0.102 A 
HETATM   24  C17 UNK     1       5.888   3.609  11.052  1.00  0.00     0.302 A 
HETATM   25  O5  UNK     1       5.877   2.554  10.425  1.00  0.00    -0.259 OA
HETATM   26  C26 UNK     1       4.369   6.208  14.851  1.00  0.00     0.040 A 
HETATM   27  C25 UNK     1       5.118   7.308  14.429  1.00  0.00     0.004 A 
BRANCH  23  28
HETATM   28  O6  UNK     1       3.654   3.959  14.525  1.00  0.00    -0.353 OA
HETATM   29  C27 UNK     1       4.175   3.198  15.615  1.00  0.00     0.210 C 
ENDBRANCH  23  28
ENDBRANCH  15  17
ENDBRANCH  14  15
ENDBRANCH   4  14
BRANCH   3  30
HETATM   30  C6  UNK     1      12.606   7.666   7.605  1.00  0.00     0.170 C 
BRANCH  30  31
HETATM   31  C10 UNK     1      13.661   7.117   8.528  1.00  0.00    -0.040 A 
HETATM   32  C14 UNK     1      14.297   7.967   9.423  1.00  0.00     0.009 A 
HETATM   33  C20 UNK     1      15.274   7.458  10.277  1.00  0.00     0.001 A 
HETATM   34  C22 UNK     1      15.607   6.105  10.229  1.00  0.00     0.000 A 
HETATM   35  C21 UNK     1      14.962   5.259   9.326  1.00  0.00     0.001 A 
HETATM   36  C15 UNK     1      13.984   5.768   8.471  1.00  0.00     0.009 A 
ENDBRANCH  30  31
ENDBRANCH   3  30
TORSDOF 7
ENDMDL
