MODEL 1
REMARK VINA RESULT:      -8.1      0.000      0.000
REMARK  2 active torsions:
REMARK  status: ('A' for Active; 'I' for Inactive)
REMARK       I    between atoms: C9_17  and  N1_6 
REMARK    1  A    between atoms: C7_15  and  N2_7 
REMARK    2  A    between atoms: C3_11  and  C9_17 
ROOT
HETATM    1  O1  UNK     1      14.318   6.442  10.345  1.00  0.00    -0.274 OA
HETATM    2  O2  UNK     1      12.287   5.397  10.358  1.00  0.00    -0.259 OA
HETATM    3  C1  UNK     1      14.543   8.617   9.282  1.00  0.00     0.001 A 
HETATM    4  C2  UNK     1      15.105   7.552   9.976  1.00  0.00     0.089 A 
HETATM    5  C3  UNK     1      12.387   7.512   9.294  1.00  0.00     0.110 A 
HETATM    6  C4  UNK     1      13.129   8.568   8.941  1.00  0.00     0.037 A 
HETATM    7  C5  UNK     1      15.355   9.699   8.934  1.00  0.00     0.050 A 
HETATM    8  C6  UNK     1      16.452   7.536  10.332  1.00  0.00     0.041 A 
HETATM    9  C7  UNK     1      16.709   9.697   9.284  1.00  0.00     0.103 A 
HETATM   10  C8  UNK     1      12.963   6.366  10.033  1.00  0.00     0.304 A 
HETATM   11  C10 UNK     1      17.255   8.618   9.982  1.00  0.00     0.039 A 
ENDROOT
BRANCH   5  12
HETATM   12  C9  UNK     1      10.970   7.555   8.905  1.00  0.00     0.284 C 
HETATM   13  O3  UNK     1      10.096   8.060   9.594  1.00  0.00    -0.265 OA
HETATM   14  N1  UNK     1      10.628   6.982   7.680  1.00  0.00    -0.208 N 
HETATM   15  C11 UNK     1       9.367   6.915   7.127  1.00  0.00     0.123 A 
HETATM   16  N3  UNK     1      11.560   6.410   6.879  1.00  0.00    -0.177 NA
HETATM   17  C12 UNK     1       9.496   6.271   5.920  1.00  0.00     0.040 A 
HETATM   18  C13 UNK     1      10.866   5.985   5.822  1.00  0.00     0.141 A 
ENDBRANCH   5  12
BRANCH   9  19
HETATM   19  N2  UNK     1      17.532  10.800   8.928  1.00  0.00    -0.116 N 
HETATM   20  O4  UNK     1      18.679  10.888   9.430  1.00  0.00    -0.532 OA
HETATM   21  O5  UNK     1      17.090  11.653   8.122  1.00  0.00    -0.532 OA
ENDBRANCH   9  19
TORSDOF 2
ENDMDL
MODEL 2
REMARK VINA RESULT:      -8.1      1.821      2.162
REMARK  2 active torsions:
REMARK  status: ('A' for Active; 'I' for Inactive)
REMARK       I    between atoms: C9_17  and  N1_6 
REMARK    1  A    between atoms: C7_15  and  N2_7 
REMARK    2  A    between atoms: C3_11  and  C9_17 
ROOT
HETATM    1  O1  UNK     1      14.118   5.095   9.230  1.00  0.00    -0.274 OA
HETATM    2  O2  UNK     1      12.388   3.978   8.241  1.00  0.00    -0.259 OA
HETATM    3  C1  UNK     1      14.378   7.482   8.852  1.00  0.00     0.001 A 
HETATM    4  C2  UNK     1      14.811   6.302   9.446  1.00  0.00     0.089 A 
HETATM    5  C3  UNK     1      12.542   6.302   7.801  1.00  0.00     0.110 A 
HETATM    6  C4  UNK     1      13.197   7.451   8.003  1.00  0.00     0.037 A 
HETATM    7  C5  UNK     1      15.093   8.659   9.090  1.00  0.00     0.050 A 
HETATM    8  C6  UNK     1      15.935   6.264  10.269  1.00  0.00     0.041 A 
HETATM    9  C7  UNK     1      16.222   8.636   9.915  1.00  0.00     0.103 A 
HETATM   10  C8  UNK     1      12.985   5.034   8.423  1.00  0.00     0.304 A 
HETATM   11  C10 UNK     1      16.642   7.441  10.502  1.00  0.00     0.039 A 
ENDROOT
BRANCH   5  12
HETATM   12  C9  UNK     1      11.362   6.372   6.928  1.00  0.00     0.284 C 
HETATM   13  O3  UNK     1      11.425   6.371   5.707  1.00  0.00    -0.265 OA
HETATM   14  N1  UNK     1      10.114   6.441   7.547  1.00  0.00    -0.208 N 
HETATM   15  C11 UNK     1       8.888   6.512   6.921  1.00  0.00     0.123 A 
HETATM   16  N3  UNK     1       9.992   6.444   8.897  1.00  0.00    -0.177 NA
HETATM   17  C12 UNK     1       7.939   6.563   7.912  1.00  0.00     0.040 A 
HETATM   18  C13 UNK     1       8.676   6.518   9.105  1.00  0.00     0.141 A 
ENDBRANCH   5  12
BRANCH   9  19
HETATM   19  N2  UNK     1      16.946   9.835  10.154  1.00  0.00    -0.116 N 
HETATM   20  O4  UNK     1      18.068   9.986   9.611  1.00  0.00    -0.532 OA
HETATM   21  O5  UNK     1      16.444  10.709  10.901  1.00  0.00    -0.532 OA
ENDBRANCH   9  19
TORSDOF 2
ENDMDL
MODEL 3
REMARK VINA RESULT:      -8.0     24.626     26.494
REMARK  2 active torsions:
REMARK  status: ('A' for Active; 'I' for Inactive)
REMARK       I    between atoms: C9_17  and  N1_6 
REMARK    1  A    between atoms: C7_15  and  N2_7 
REMARK    2  A    between atoms: C3_11  and  C9_17 
ROOT
HETATM    1  O1  UNK     1      18.035   1.933  32.353  1.00  0.00    -0.274 OA
HETATM    2  O2  UNK     1      18.253   3.574  30.778  1.00  0.00    -0.259 OA
HETATM    3  C1  UNK     1      18.223   2.499  34.709  1.00  0.00     0.001 A 
HETATM    4  C2  UNK     1      18.023   1.554  33.709  1.00  0.00     0.089 A 
HETATM    5  C3  UNK     1      18.455   4.241  33.043  1.00  0.00     0.110 A 
HETATM    6  C4  UNK     1      18.445   3.887  34.333  1.00  0.00     0.037 A 
HETATM    7  C5  UNK     1      18.205   2.084  36.043  1.00  0.00     0.050 A 
HETATM    8  C6  UNK     1      17.807   0.209  34.003  1.00  0.00     0.041 A 
HETATM    9  C7  UNK     1      17.988   0.737  36.353  1.00  0.00     0.103 A 
HETATM   10  C8  UNK     1      18.245   3.253  31.961  1.00  0.00     0.304 A 
HETATM   11  C10 UNK     1      17.790  -0.197  35.335  1.00  0.00     0.039 A 
ENDROOT
BRANCH   5  12
HETATM   12  C9  UNK     1      18.687   5.666  32.763  1.00  0.00     0.284 C 
HETATM   13  O3  UNK     1      19.795   6.182  32.764  1.00  0.00    -0.265 OA
HETATM   14  N1  UNK     1      17.568   6.450  32.481  1.00  0.00    -0.208 N 
HETATM   15  C11 UNK     1      17.561   7.799  32.192  1.00  0.00     0.123 A 
HETATM   16  N3  UNK     1      16.319   5.925  32.466  1.00  0.00    -0.177 NA
HETATM   17  C12 UNK     1      16.251   8.152  31.984  1.00  0.00     0.040 A 
HETATM   18  C13 UNK     1      15.533   6.960  32.165  1.00  0.00     0.141 A 
ENDBRANCH   5  12
BRANCH   9  19
HETATM   19  N2  UNK     1      17.971   0.319  37.711  1.00  0.00    -0.116 N 
HETATM   20  O4  UNK     1      17.892   1.188  38.613  1.00  0.00    -0.532 OA
HETATM   21  O5  UNK     1      18.032  -0.907  37.971  1.00  0.00    -0.532 OA
ENDBRANCH   9  19
TORSDOF 2
ENDMDL
MODEL 4
REMARK VINA RESULT:      -7.9      3.181      7.520
REMARK  2 active torsions:
REMARK  status: ('A' for Active; 'I' for Inactive)
REMARK       I    between atoms: C9_17  and  N1_6 
REMARK    1  A    between atoms: C7_15  and  N2_7 
REMARK    2  A    between atoms: C3_11  and  C9_17 
ROOT
HETATM    1  O1  UNK     1      11.581   6.741   6.652  1.00  0.00    -0.274 OA
HETATM    2  O2  UNK     1      13.838   7.069   6.514  1.00  0.00    -0.259 OA
HETATM    3  C1  UNK     1      10.633   5.745   8.656  1.00  0.00     0.001 A 
HETATM    4  C2  UNK     1      10.468   6.286   7.386  1.00  0.00     0.089 A 
HETATM    5  C3  UNK     1      13.026   6.090   8.514  1.00  0.00     0.110 A 
HETATM    6  C4  UNK     1      11.973   5.656   9.216  1.00  0.00     0.037 A 
HETATM    7  C5  UNK     1       9.505   5.304   9.353  1.00  0.00     0.050 A 
HETATM    8  C6  UNK     1       9.212   6.398   6.793  1.00  0.00     0.041 A 
HETATM    9  C7  UNK     1       8.238   5.411   8.770  1.00  0.00     0.103 A 
HETATM   10  C8  UNK     1      12.875   6.669   7.160  1.00  0.00     0.304 A 
HETATM   11  C10 UNK     1       8.092   5.957   7.493  1.00  0.00     0.039 A 
ENDROOT
BRANCH   5  12
HETATM   12  C9  UNK     1      14.338   5.958   9.163  1.00  0.00     0.284 C 
HETATM   13  O3  UNK     1      15.097   5.021   8.966  1.00  0.00    -0.265 OA
HETATM   14  N1  UNK     1      14.717   6.969  10.047  1.00  0.00    -0.208 N 
HETATM   15  C11 UNK     1      15.896   7.042  10.757  1.00  0.00     0.123 A 
HETATM   16  N3  UNK     1      13.911   8.030  10.297  1.00  0.00    -0.177 NA
HETATM   17  C12 UNK     1      15.844   8.199  11.495  1.00  0.00     0.040 A 
HETATM   18  C13 UNK     1      14.601   8.764  11.172  1.00  0.00     0.141 A 
ENDBRANCH   5  12
BRANCH   9  19
HETATM   19  N2  UNK     1       7.093   4.961   9.482  1.00  0.00    -0.116 N 
HETATM   20  O4  UNK     1       6.260   5.807   9.889  1.00  0.00    -0.532 OA
HETATM   21  O5  UNK     1       6.946   3.731   9.683  1.00  0.00    -0.532 OA
ENDBRANCH   9  19
TORSDOF 2
ENDMDL
MODEL 5
REMARK VINA RESULT:      -7.8     25.220     27.095
REMARK  2 active torsions:
REMARK  status: ('A' for Active; 'I' for Inactive)
REMARK       I    between atoms: C9_17  and  N1_6 
REMARK    1  A    between atoms: C7_15  and  N2_7 
REMARK    2  A    between atoms: C3_11  and  C9_17 
ROOT
HETATM    1  O1  UNK     1      20.697  -2.867  33.289  1.00  0.00    -0.274 OA
HETATM    2  O2  UNK     1      20.429  -3.439  35.484  1.00  0.00    -0.259 OA
HETATM    3  C1  UNK     1      19.357  -1.073  32.343  1.00  0.00     0.001 A 
HETATM    4  C2  UNK     1      20.332  -2.053  32.198  1.00  0.00     0.089 A 
HETATM    5  C3  UNK     1      19.069  -1.677  34.671  1.00  0.00     0.110 A 
HETATM    6  C4  UNK     1      18.718  -0.902  33.639  1.00  0.00     0.037 A 
HETATM    7  C5  UNK     1      19.021  -0.287  31.238  1.00  0.00     0.050 A 
HETATM    8  C6  UNK     1      20.981  -2.270  30.984  1.00  0.00     0.041 A 
HETATM    9  C7  UNK     1      19.665  -0.493  30.013  1.00  0.00     0.103 A 
HETATM   10  C8  UNK     1      20.104  -2.726  34.541  1.00  0.00     0.304 A 
HETATM   11  C10 UNK     1      20.642  -1.482  29.887  1.00  0.00     0.039 A 
ENDROOT
BRANCH   5  12
HETATM   12  C9  UNK     1      18.368  -1.427  35.939  1.00  0.00     0.284 C 
HETATM   13  O3  UNK     1      17.824  -2.305  36.593  1.00  0.00    -0.265 OA
HETATM   14  N1  UNK     1      18.335  -0.112  36.401  1.00  0.00    -0.208 N 
HETATM   15  C11 UNK     1      17.736   0.339  37.558  1.00  0.00     0.123 A 
HETATM   16  N3  UNK     1      18.923   0.896  35.712  1.00  0.00    -0.177 NA
HETATM   17  C12 UNK     1      17.949   1.695  37.613  1.00  0.00     0.040 A 
HETATM   18  C13 UNK     1      18.684   1.980  36.452  1.00  0.00     0.141 A 
ENDBRANCH   5  12
BRANCH   9  19
HETATM   19  N2  UNK     1      19.321   0.310  28.892  1.00  0.00    -0.116 N 
HETATM   20  O4  UNK     1      19.222  -0.233  27.764  1.00  0.00    -0.532 OA
HETATM   21  O5  UNK     1      19.124   1.537  29.060  1.00  0.00    -0.532 OA
ENDBRANCH   9  19
TORSDOF 2
ENDMDL
MODEL 6
REMARK VINA RESULT:      -7.8      3.539      5.232
REMARK  2 active torsions:
REMARK  status: ('A' for Active; 'I' for Inactive)
REMARK       I    between atoms: C9_17  and  N1_6 
REMARK    1  A    between atoms: C7_15  and  N2_7 
REMARK    2  A    between atoms: C3_11  and  C9_17 
ROOT
HETATM    1  O1  UNK     1      10.438   6.808   6.958  1.00  0.00    -0.274 OA
HETATM    2  O2  UNK     1       8.173   6.717   6.680  1.00  0.00    -0.259 OA
HETATM    3  C1  UNK     1      11.454   5.749   8.896  1.00  0.00     0.001 A 
HETATM    4  C2  UNK     1      11.577   6.478   7.718  1.00  0.00     0.089 A 
HETATM    5  C3  UNK     1       9.051   5.651   8.606  1.00  0.00     0.110 A 
HETATM    6  C4  UNK     1      10.130   5.335   9.332  1.00  0.00     0.037 A 
HETATM    7  C5  UNK     1      12.607   5.442   9.623  1.00  0.00     0.050 A 
HETATM    8  C6  UNK     1      12.817   6.906   7.246  1.00  0.00     0.041 A 
HETATM    9  C7  UNK     1      13.858   5.865   9.161  1.00  0.00     0.103 A 
HETATM   10  C8  UNK     1       9.158   6.425   7.349  1.00  0.00     0.304 A 
HETATM   11  C10 UNK     1      13.962   6.596   7.976  1.00  0.00     0.039 A 
ENDROOT
BRANCH   5  12
HETATM   12  C9  UNK     1       7.757   5.187   9.128  1.00  0.00     0.284 C 
HETATM   13  O3  UNK     1       7.250   4.118   8.821  1.00  0.00    -0.265 OA
HETATM   14  N1  UNK     1       7.092   6.027  10.020  1.00  0.00    -0.208 N 
HETATM   15  C11 UNK     1       5.877   5.788  10.626  1.00  0.00     0.123 A 
HETATM   16  N3  UNK     1       7.614   7.221  10.393  1.00  0.00    -0.177 NA
HETATM   17  C12 UNK     1       5.607   6.876  11.419  1.00  0.00     0.040 A 
HETATM   18  C13 UNK     1       6.710   7.724  11.236  1.00  0.00     0.141 A 
ENDBRANCH   5  12
BRANCH   9  19
HETATM   19  N2  UNK     1      15.028   5.550   9.903  1.00  0.00    -0.116 N 
HETATM   20  O4  UNK     1      15.780   4.635   9.490  1.00  0.00    -0.532 OA
HETATM   21  O5  UNK     1      15.277   6.196  10.949  1.00  0.00    -0.532 OA
ENDBRANCH   9  19
TORSDOF 2
ENDMDL
MODEL 7
REMARK VINA RESULT:      -7.6     24.322     26.204
REMARK  2 active torsions:
REMARK  status: ('A' for Active; 'I' for Inactive)
REMARK       I    between atoms: C9_17  and  N1_6 
REMARK    1  A    between atoms: C7_15  and  N2_7 
REMARK    2  A    between atoms: C3_11  and  C9_17 
ROOT
HETATM    1  O1  UNK     1      20.747  -2.587  30.908  1.00  0.00    -0.274 OA
HETATM    2  O2  UNK     1      21.272  -4.006  32.620  1.00  0.00    -0.259 OA
HETATM    3  C1  UNK     1      19.620  -0.488  31.392  1.00  0.00     0.001 A 
HETATM    4  C2  UNK     1      20.178  -1.373  30.476  1.00  0.00     0.089 A 
HETATM    5  C3  UNK     1      20.175  -1.990  33.209  1.00  0.00     0.110 A 
HETATM    6  C4  UNK     1      19.632  -0.836  32.804  1.00  0.00     0.037 A 
HETATM    7  C5  UNK     1      19.064   0.706  30.924  1.00  0.00     0.050 A 
HETATM    8  C6  UNK     1      20.196  -1.100  29.109  1.00  0.00     0.041 A 
HETATM    9  C7  UNK     1      19.076   0.993  29.555  1.00  0.00     0.103 A 
HETATM   10  C8  UNK     1      20.774  -2.947  32.253  1.00  0.00     0.304 A 
HETATM   11  C10 UNK     1      19.641   0.091  28.650  1.00  0.00     0.039 A 
ENDROOT
BRANCH   5  12
HETATM   12  C9  UNK     1      20.140  -2.252  34.656  1.00  0.00     0.284 C 
HETATM   13  O3  UNK     1      21.016  -2.860  35.252  1.00  0.00    -0.265 OA
HETATM   14  N1  UNK     1      19.039  -1.770  35.364  1.00  0.00    -0.208 N 
HETATM   15  C11 UNK     1      18.809  -1.903  36.717  1.00  0.00     0.123 A 
HETATM   16  N3  UNK     1      18.042  -1.090  34.748  1.00  0.00    -0.177 NA
HETATM   17  C12 UNK     1      17.613  -1.282  36.979  1.00  0.00     0.040 A 
HETATM   18  C13 UNK     1      17.188  -0.801  35.731  1.00  0.00     0.141 A 
ENDBRANCH   5  12
BRANCH   9  19
HETATM   19  N2  UNK     1      18.510   2.208  29.084  1.00  0.00    -0.116 N 
HETATM   20  O4  UNK     1      17.851   2.196  28.015  1.00  0.00    -0.532 OA
HETATM   21  O5  UNK     1      18.683   3.257  29.748  1.00  0.00    -0.532 OA
ENDBRANCH   9  19
TORSDOF 2
ENDMDL
MODEL 8
REMARK VINA RESULT:      -7.6     25.080     26.819
REMARK  2 active torsions:
REMARK  status: ('A' for Active; 'I' for Inactive)
REMARK       I    between atoms: C9_17  and  N1_6 
REMARK    1  A    between atoms: C7_15  and  N2_7 
REMARK    2  A    between atoms: C3_11  and  C9_17 
ROOT
HETATM    1  O1  UNK     1      18.466   0.812  31.871  1.00  0.00    -0.274 OA
HETATM    2  O2  UNK     1      18.301  -1.388  32.465  1.00  0.00    -0.259 OA
HETATM    3  C1  UNK     1      18.190   2.537  33.561  1.00  0.00     0.001 A 
HETATM    4  C2  UNK     1      18.430   2.170  32.242  1.00  0.00     0.089 A 
HETATM    5  C3  UNK     1      18.013   0.206  34.196  1.00  0.00     0.110 A 
HETATM    6  C4  UNK     1      17.977   1.494  34.554  1.00  0.00     0.037 A 
HETATM    7  C5  UNK     1      18.161   3.894  33.890  1.00  0.00     0.050 A 
HETATM    8  C6  UNK     1      18.640   3.119  31.243  1.00  0.00     0.041 A 
HETATM    9  C7  UNK     1      18.371   4.858  32.898  1.00  0.00     0.103 A 
HETATM   10  C8  UNK     1      18.266  -0.208  32.798  1.00  0.00     0.304 A 
HETATM   11  C10 UNK     1      18.610   4.471  31.578  1.00  0.00     0.039 A 
ENDROOT
BRANCH   5  12
HETATM   12  C9  UNK     1      17.786  -0.773  35.269  1.00  0.00     0.284 C 
HETATM   13  O3  UNK     1      16.692  -0.982  35.772  1.00  0.00    -0.265 OA
HETATM   14  N1  UNK     1      18.893  -1.491  35.721  1.00  0.00    -0.208 N 
HETATM   15  C11 UNK     1      18.903  -2.451  36.711  1.00  0.00     0.123 A 
HETATM   16  N3  UNK     1      20.127  -1.297  35.195  1.00  0.00    -0.177 NA
HETATM   17  C12 UNK     1      20.199  -2.890  36.825  1.00  0.00     0.040 A 
HETATM   18  C13 UNK     1      20.906  -2.146  35.869  1.00  0.00     0.141 A 
ENDBRANCH   5  12
BRANCH   9  19
HETATM   19  N2  UNK     1      18.340   6.237  33.237  1.00  0.00    -0.116 N 
HETATM   20  O4  UNK     1      19.320   6.960  32.930  1.00  0.00    -0.532 OA
HETATM   21  O5  UNK     1      17.335   6.696  33.831  1.00  0.00    -0.532 OA
ENDBRANCH   9  19
TORSDOF 2
ENDMDL
MODEL 9
REMARK VINA RESULT:      -7.6     22.876     25.003
REMARK  2 active torsions:
REMARK  status: ('A' for Active; 'I' for Inactive)
REMARK       I    between atoms: C9_17  and  N1_6 
REMARK    1  A    between atoms: C7_15  and  N2_7 
REMARK    2  A    between atoms: C3_11  and  C9_17 
ROOT
HETATM    1  O1  UNK     1      18.985   4.007  30.025  1.00  0.00    -0.274 OA
HETATM    2  O2  UNK     1      18.658   6.251  29.754  1.00  0.00    -0.259 OA
HETATM    3  C1  UNK     1      18.319   2.939  32.105  1.00  0.00     0.001 A 
HETATM    4  C2  UNK     1      18.871   2.857  30.831  1.00  0.00     0.089 A 
HETATM    5  C3  UNK     1      17.970   5.319  31.821  1.00  0.00     0.110 A 
HETATM    6  C4  UNK     1      17.861   4.231  32.592  1.00  0.00     0.037 A 
HETATM    7  C5  UNK     1      18.224   1.777  32.875  1.00  0.00     0.050 A 
HETATM    8  C6  UNK     1      19.331   1.651  30.306  1.00  0.00     0.041 A 
HETATM    9  C7  UNK     1      18.681   0.559  32.360  1.00  0.00     0.103 A 
HETATM   10  C8  UNK     1      18.555   5.257  30.463  1.00  0.00     0.304 A 
HETATM   11  C10 UNK     1      19.232   0.497  31.079  1.00  0.00     0.039 A 
ENDROOT
BRANCH   5  12
HETATM   12  C9  UNK     1      17.479   6.578  32.401  1.00  0.00     0.284 C 
HETATM   13  O3  UNK     1      16.321   6.955  32.310  1.00  0.00    -0.265 OA
HETATM   14  N1  UNK     1      18.403   7.365  33.089  1.00  0.00    -0.208 N 
HETATM   15  C11 UNK     1      18.155   8.574  33.705  1.00  0.00     0.123 A 
HETATM   16  N3  UNK     1      19.698   6.989  33.218  1.00  0.00    -0.177 NA
HETATM   17  C12 UNK     1      19.344   8.990  34.253  1.00  0.00     0.040 A 
HETATM   18  C13 UNK     1      20.255   7.977  33.922  1.00  0.00     0.141 A 
ENDBRANCH   5  12
BRANCH   9  19
HETATM   19  N2  UNK     1      18.582  -0.621  33.146  1.00  0.00    -0.116 N 
HETATM   20  O4  UNK     1      19.574  -1.386  33.220  1.00  0.00    -0.532 OA
HETATM   21  O5  UNK     1      17.508  -0.864  33.746  1.00  0.00    -0.532 OA
ENDBRANCH   9  19
TORSDOF 2
ENDMDL
MODEL 10
REMARK VINA RESULT:      -7.5     23.072     24.856
REMARK  2 active torsions:
REMARK  status: ('A' for Active; 'I' for Inactive)
REMARK       I    between atoms: C9_17  and  N1_6 
REMARK    1  A    between atoms: C7_15  and  N2_7 
REMARK    2  A    between atoms: C3_11  and  C9_17 
ROOT
HETATM    1  O1  UNK     1      19.664   7.734  32.835  1.00  0.00    -0.274 OA
HETATM    2  O2  UNK     1      19.134   9.448  34.249  1.00  0.00    -0.259 OA
HETATM    3  C1  UNK     1      18.071   5.933  32.480  1.00  0.00     0.001 A 
HETATM    4  C2  UNK     1      19.304   6.519  32.219  1.00  0.00     0.089 A 
HETATM    5  C3  UNK     1      17.505   7.748  33.981  1.00  0.00     0.110 A 
HETATM    6  C4  UNK     1      17.157   6.594  33.400  1.00  0.00     0.037 A 
HETATM    7  C5  UNK     1      17.750   4.727  31.851  1.00  0.00     0.050 A 
HETATM    8  C6  UNK     1      20.225   5.937  31.350  1.00  0.00     0.041 A 
HETATM    9  C7  UNK     1      18.664   4.132  30.976  1.00  0.00     0.103 A 
HETATM   10  C8  UNK     1      18.812   8.391  33.719  1.00  0.00     0.304 A 
HETATM   11  C10 UNK     1      19.898   4.735  30.726  1.00  0.00     0.039 A 
ENDROOT
BRANCH   5  12
HETATM   12  C9  UNK     1      16.515   8.339  34.894  1.00  0.00     0.284 C 
HETATM   13  O3  UNK     1      16.447   8.066  36.083  1.00  0.00    -0.265 OA
HETATM   14  N1  UNK     1      15.617   9.258  34.352  1.00  0.00    -0.208 N 
HETATM   15  C11 UNK     1      14.617   9.926  35.025  1.00  0.00     0.123 A 
HETATM   16  N3  UNK     1      15.653   9.595  33.040  1.00  0.00    -0.177 NA
HETATM   17  C12 UNK     1      13.983  10.725  34.105  1.00  0.00     0.040 A 
HETATM   18  C13 UNK     1      14.663  10.480  32.903  1.00  0.00     0.141 A 
ENDBRANCH   5  12
BRANCH   9  19
HETATM   19  N2  UNK     1      18.334   2.906  30.338  1.00  0.00    -0.116 N 
HETATM   20  O4  UNK     1      19.222   2.301  29.688  1.00  0.00    -0.532 OA
HETATM   21  O5  UNK     1      17.166   2.460  30.443  1.00  0.00    -0.532 OA
ENDBRANCH   9  19
TORSDOF 2
ENDMDL
