MODEL 1
REMARK VINA RESULT:      -7.0      0.000      0.000
REMARK  2 active torsions:
REMARK  status: ('A' for Active; 'I' for Inactive)
REMARK    1  A    between atoms: C10_14  and  O2_2 
REMARK    2  A    between atoms: C10_14  and  C4_8 
ROOT
HETATM    1  O1  UNK     1      18.805   1.235  31.599  1.00  0.00    -0.274 OA
HETATM    2  O3  UNK     1      17.765   2.074  33.452  1.00  0.00    -0.259 OA
HETATM    3  C1  UNK     1      19.540  -1.083  31.580  1.00  0.00    -0.001 A 
HETATM    4  C2  UNK     1      19.420   0.149  30.945  1.00  0.00     0.089 A 
HETATM    5  C3  UNK     1      19.020  -1.231  32.930  1.00  0.00     0.038 A 
HETATM    6  C4  UNK     1      18.436  -0.196  33.547  1.00  0.00     0.115 A 
HETATM    7  C5  UNK     1      20.155  -2.136  30.900  1.00  0.00     0.014 A 
HETATM    8  C6  UNK     1      19.898   0.358  29.653  1.00  0.00     0.038 A 
HETATM    9  C7  UNK     1      18.298   1.123  32.890  1.00  0.00     0.304 A 
HETATM   10  C8  UNK     1      20.639  -1.941  29.602  1.00  0.00     0.001 A 
HETATM   11  C9  UNK     1      20.511  -0.698  28.981  1.00  0.00     0.003 A 
ENDROOT
BRANCH   6  12
HETATM   12  C10 UNK     1      17.944  -0.445  34.907  1.00  0.00     0.299 C 
HETATM   13  O4  UNK     1      18.638  -0.338  35.904  1.00  0.00    -0.259 OA
BRANCH  12  14
HETATM   14  O2  UNK     1      16.636  -0.797  34.835  1.00  0.00    -0.322 OA
HETATM   15  C11 UNK     1      15.725   0.107  35.469  1.00  0.00     0.213 C 
ENDBRANCH  12  14
ENDBRANCH   6  12
TORSDOF 2
ENDMDL
MODEL 2
REMARK VINA RESULT:      -7.0      2.219      4.129
REMARK  2 active torsions:
REMARK  status: ('A' for Active; 'I' for Inactive)
REMARK    1  A    between atoms: C10_14  and  O2_2 
REMARK    2  A    between atoms: C10_14  and  C4_8 
ROOT
HETATM    1  O1  UNK     1      18.759   0.476  32.636  1.00  0.00    -0.274 OA
HETATM    2  O3  UNK     1      17.867   2.326  33.636  1.00  0.00    -0.259 OA
HETATM    3  C1  UNK     1      19.520   0.607  30.331  1.00  0.00    -0.001 A 
HETATM    4  C2  UNK     1      19.330  -0.126  31.497  1.00  0.00     0.089 A 
HETATM    5  C3  UNK     1      19.119   2.005  30.305  1.00  0.00     0.038 A 
HETATM    6  C4  UNK     1      18.576   2.572  31.389  1.00  0.00     0.115 A 
HETATM    7  C5  UNK     1      20.090  -0.024  29.223  1.00  0.00     0.014 A 
HETATM    8  C6  UNK     1      19.692  -1.468  31.588  1.00  0.00     0.038 A 
HETATM    9  C7  UNK     1      18.364   1.811  32.641  1.00  0.00     0.304 A 
HETATM   10  C8  UNK     1      20.459  -1.371  29.299  1.00  0.00     0.001 A 
HETATM   11  C9  UNK     1      20.260  -2.091  30.478  1.00  0.00     0.003 A 
ENDROOT
BRANCH   6  12
HETATM   12  C10 UNK     1      18.204   3.986  31.265  1.00  0.00     0.299 C 
HETATM   13  O4  UNK     1      17.430   4.548  32.022  1.00  0.00    -0.259 OA
BRANCH  12  14
HETATM   14  O2  UNK     1      18.856   4.511  30.198  1.00  0.00    -0.322 OA
HETATM   15  C11 UNK     1      19.424   5.809  30.410  1.00  0.00     0.213 C 
ENDBRANCH  12  14
ENDBRANCH   6  12
TORSDOF 2
ENDMDL
MODEL 3
REMARK VINA RESULT:      -6.8     23.788     26.106
REMARK  2 active torsions:
REMARK  status: ('A' for Active; 'I' for Inactive)
REMARK    1  A    between atoms: C10_14  and  O2_2 
REMARK    2  A    between atoms: C10_14  and  C4_8 
ROOT
HETATM    1  O1  UNK     1      11.203   7.203   9.506  1.00  0.00    -0.274 OA
HETATM    2  O3  UNK     1      12.906   7.533  10.993  1.00  0.00    -0.259 OA
HETATM    3  C1  UNK     1      11.708   6.448   7.250  1.00  0.00    -0.001 A 
HETATM    4  C2  UNK     1      10.781   6.830   8.214  1.00  0.00     0.089 A 
HETATM    5  C3  UNK     1      13.120   6.440   7.597  1.00  0.00     0.038 A 
HETATM    6  C4  UNK     1      13.517   6.796   8.826  1.00  0.00     0.115 A 
HETATM    7  C5  UNK     1      11.252   6.084   5.982  1.00  0.00     0.014 A 
HETATM    8  C6  UNK     1       9.414   6.860   7.947  1.00  0.00     0.038 A 
HETATM    9  C7  UNK     1      12.547   7.206   9.867  1.00  0.00     0.304 A 
HETATM   10  C8  UNK     1       9.882   6.108   5.699  1.00  0.00     0.001 A 
HETATM   11  C9  UNK     1       8.966   6.496   6.679  1.00  0.00     0.003 A 
ENDROOT
BRANCH   6  12
HETATM   12  C10 UNK     1      14.962   6.756   9.079  1.00  0.00     0.299 C 
HETATM   13  O4  UNK     1      15.605   7.720   9.457  1.00  0.00    -0.259 OA
BRANCH  12  14
HETATM   14  O2  UNK     1      15.410   5.503   8.822  1.00  0.00    -0.322 OA
HETATM   15  C11 UNK     1      15.315   4.585   9.917  1.00  0.00     0.213 C 
ENDBRANCH  12  14
ENDBRANCH   6  12
TORSDOF 2
ENDMDL
MODEL 4
REMARK VINA RESULT:      -6.8      3.352      6.214
REMARK  2 active torsions:
REMARK  status: ('A' for Active; 'I' for Inactive)
REMARK    1  A    between atoms: C10_14  and  O2_2 
REMARK    2  A    between atoms: C10_14  and  C4_8 
ROOT
HETATM    1  O1  UNK     1      18.264   2.729  32.661  1.00  0.00    -0.274 OA
HETATM    2  O3  UNK     1      18.464   0.559  31.976  1.00  0.00    -0.259 OA
HETATM    3  C1  UNK     1      18.587   4.529  31.058  1.00  0.00    -0.001 A 
HETATM    4  C2  UNK     1      18.305   4.104  32.352  1.00  0.00     0.089 A 
HETATM    5  C3  UNK     1      18.839   3.532  30.030  1.00  0.00     0.038 A 
HETATM    6  C4  UNK     1      18.799   2.228  30.328  1.00  0.00     0.115 A 
HETATM    7  C5  UNK     1      18.619   5.899  30.790  1.00  0.00     0.014 A 
HETATM    8  C6  UNK     1      18.055   5.006  33.384  1.00  0.00     0.038 A 
HETATM    9  C7  UNK     1      18.501   1.753  31.698  1.00  0.00     0.304 A 
HETATM   10  C8  UNK     1      18.369   6.817  31.816  1.00  0.00     0.001 A 
HETATM   11  C9  UNK     1      18.089   6.372  33.108  1.00  0.00     0.003 A 
ENDROOT
BRANCH   6  12
HETATM   12  C10 UNK     1      19.068   1.300  29.223  1.00  0.00     0.299 C 
HETATM   13  O4  UNK     1      18.342   1.185  28.250  1.00  0.00    -0.259 OA
BRANCH  12  14
HETATM   14  O2  UNK     1      20.220   0.636  29.488  1.00  0.00    -0.322 OA
HETATM   15  C11 UNK     1      20.273  -0.710  29.003  1.00  0.00     0.213 C 
ENDBRANCH  12  14
ENDBRANCH   6  12
TORSDOF 2
ENDMDL
MODEL 5
REMARK VINA RESULT:      -6.7     14.791     16.742
REMARK  2 active torsions:
REMARK  status: ('A' for Active; 'I' for Inactive)
REMARK    1  A    between atoms: C10_14  and  O2_2 
REMARK    2  A    between atoms: C10_14  and  C4_8 
ROOT
HETATM    1  O1  UNK     1      19.280   1.026  15.330  1.00  0.00    -0.274 OA
HETATM    2  O3  UNK     1      19.280  -0.539  13.666  1.00  0.00    -0.259 OA
HETATM    3  C1  UNK     1      18.900   0.333  17.630  1.00  0.00    -0.001 A 
HETATM    4  C2  UNK     1      19.149   1.335  16.699  1.00  0.00     0.089 A 
HETATM    5  C3  UNK     1      18.775  -1.041  17.168  1.00  0.00     0.038 A 
HETATM    6  C4  UNK     1      18.900  -1.330  15.867  1.00  0.00     0.115 A 
HETATM    7  C5  UNK     1      18.777   0.678  18.977  1.00  0.00     0.014 A 
HETATM    8  C6  UNK     1      19.279   2.671  17.075  1.00  0.00     0.038 A 
HETATM    9  C7  UNK     1      19.165  -0.279  14.859  1.00  0.00     0.304 A 
HETATM   10  C8  UNK     1      18.905   2.015  19.370  1.00  0.00     0.001 A 
HETATM   11  C9  UNK     1      19.155   3.008  18.421  1.00  0.00     0.003 A 
ENDROOT
BRANCH   6  12
HETATM   12  C10 UNK     1      18.758  -2.744  15.499  1.00  0.00     0.299 C 
HETATM   13  O4  UNK     1      17.744  -3.214  15.012  1.00  0.00    -0.259 OA
BRANCH  12  14
HETATM   14  O2  UNK     1      19.916  -3.384  15.794  1.00  0.00    -0.322 OA
HETATM   15  C11 UNK     1      20.732  -3.720  14.665  1.00  0.00     0.213 C 
ENDBRANCH  12  14
ENDBRANCH   6  12
TORSDOF 2
ENDMDL
MODEL 6
REMARK VINA RESULT:      -6.6      1.327      2.217
REMARK  2 active torsions:
REMARK  status: ('A' for Active; 'I' for Inactive)
REMARK    1  A    between atoms: C10_14  and  O2_2 
REMARK    2  A    between atoms: C10_14  and  C4_8 
ROOT
HETATM    1  O1  UNK     1      19.636  -1.744  32.870  1.00  0.00    -0.274 OA
HETATM    2  O3  UNK     1      18.832  -1.530  34.998  1.00  0.00    -0.259 OA
HETATM    3  C1  UNK     1      19.331   0.073  31.283  1.00  0.00    -0.001 A 
HETATM    4  C2  UNK     1      19.812  -1.197  31.583  1.00  0.00     0.089 A 
HETATM    5  C3  UNK     1      18.643   0.827  32.319  1.00  0.00     0.038 A 
HETATM    6  C4  UNK     1      18.478   0.303  33.540  1.00  0.00     0.115 A 
HETATM    7  C5  UNK     1      19.525   0.581  29.997  1.00  0.00     0.014 A 
HETATM    8  C6  UNK     1      20.479  -1.972  30.637  1.00  0.00     0.038 A 
HETATM    9  C7  UNK     1      18.981  -1.047  33.881  1.00  0.00     0.304 A 
HETATM   10  C8  UNK     1      20.193  -0.185  29.036  1.00  0.00     0.001 A 
HETATM   11  C9  UNK     1      20.669  -1.458  29.356  1.00  0.00     0.003 A 
ENDROOT
BRANCH   6  12
HETATM   12  C10 UNK     1      17.770   1.141  34.515  1.00  0.00     0.299 C 
HETATM   13  O4  UNK     1      18.336   1.874  35.308  1.00  0.00    -0.259 OA
BRANCH  12  14
HETATM   14  O2  UNK     1      16.437   0.946  34.365  1.00  0.00    -0.322 OA
HETATM   15  C11 UNK     1      15.802   0.224  35.426  1.00  0.00     0.213 C 
ENDBRANCH  12  14
ENDBRANCH   6  12
TORSDOF 2
ENDMDL
MODEL 7
REMARK VINA RESULT:      -6.5      3.150      4.577
REMARK  2 active torsions:
REMARK  status: ('A' for Active; 'I' for Inactive)
REMARK    1  A    between atoms: C10_14  and  O2_2 
REMARK    2  A    between atoms: C10_14  and  C4_8 
ROOT
HETATM    1  O1  UNK     1      18.934   2.518  30.694  1.00  0.00    -0.274 OA
HETATM    2  O3  UNK     1      18.815   0.367  31.453  1.00  0.00    -0.259 OA
HETATM    3  C1  UNK     1      18.387   4.352  32.194  1.00  0.00    -0.001 A 
HETATM    4  C2  UNK     1      18.788   3.898  30.943  1.00  0.00     0.089 A 
HETATM    5  C3  UNK     1      18.120   3.380  33.243  1.00  0.00     0.038 A 
HETATM    6  C4  UNK     1      18.260   2.071  33.002  1.00  0.00     0.115 A 
HETATM    7  C5  UNK     1      18.253   5.727  32.402  1.00  0.00     0.014 A 
HETATM    8  C6  UNK     1      19.058   4.776  29.895  1.00  0.00     0.038 A 
HETATM    9  C7  UNK     1      18.686   1.565  31.678  1.00  0.00     0.304 A 
HETATM   10  C8  UNK     1      18.522   6.620  31.361  1.00  0.00     0.001 A 
HETATM   11  C9  UNK     1      18.923   6.146  30.110  1.00  0.00     0.003 A 
ENDROOT
BRANCH   6  12
HETATM   12  C10 UNK     1      17.968   1.170  34.123  1.00  0.00     0.299 C 
HETATM   13  O4  UNK     1      18.810   0.789  34.918  1.00  0.00    -0.259 OA
BRANCH  12  14
HETATM   14  O2  UNK     1      16.647   0.865  34.097  1.00  0.00    -0.322 OA
HETATM   15  C11 UNK     1      16.152   0.197  35.263  1.00  0.00     0.213 C 
ENDBRANCH  12  14
ENDBRANCH   6  12
TORSDOF 2
ENDMDL
MODEL 8
REMARK VINA RESULT:      -6.5      6.954      8.037
REMARK  2 active torsions:
REMARK  status: ('A' for Active; 'I' for Inactive)
REMARK    1  A    between atoms: C10_14  and  O2_2 
REMARK    2  A    between atoms: C10_14  and  C4_8 
ROOT
HETATM    1  O1  UNK     1      18.720   7.068  33.974  1.00  0.00    -0.274 OA
HETATM    2  O3  UNK     1      17.092   7.844  35.376  1.00  0.00    -0.259 OA
HETATM    3  C1  UNK     1      18.201   6.677  31.630  1.00  0.00    -0.001 A 
HETATM    4  C2  UNK     1      19.111   6.663  32.682  1.00  0.00     0.089 A 
HETATM    5  C3  UNK     1      16.838   7.117  31.886  1.00  0.00     0.038 A 
HETATM    6  C4  UNK     1      16.471   7.501  33.115  1.00  0.00     0.115 A 
HETATM    7  C5  UNK     1      18.625   6.268  30.364  1.00  0.00     0.014 A 
HETATM    8  C6  UNK     1      20.431   6.253  32.504  1.00  0.00     0.038 A 
HETATM    9  C7  UNK     1      17.424   7.493  34.249  1.00  0.00     0.304 A 
HETATM   10  C8  UNK     1      19.947   5.855  30.171  1.00  0.00     0.001 A 
HETATM   11  C9  UNK     1      20.847   5.847  31.238  1.00  0.00     0.003 A 
ENDROOT
BRANCH   6  12
HETATM   12  C10 UNK     1      15.076   7.926  33.273  1.00  0.00     0.299 C 
HETATM   13  O4  UNK     1      14.237   7.275  33.873  1.00  0.00    -0.259 OA
BRANCH  12  14
HETATM   14  O2  UNK     1      14.917   9.122  32.653  1.00  0.00    -0.322 OA
HETATM   15  C11 UNK     1      15.066  10.270  33.495  1.00  0.00     0.213 C 
ENDBRANCH  12  14
ENDBRANCH   6  12
TORSDOF 2
ENDMDL
MODEL 9
REMARK VINA RESULT:      -6.4      3.857      6.095
REMARK  2 active torsions:
REMARK  status: ('A' for Active; 'I' for Inactive)
REMARK    1  A    between atoms: C10_14  and  O2_2 
REMARK    2  A    between atoms: C10_14  and  C4_8 
ROOT
HETATM    1  O1  UNK     1      19.591  -0.974  34.766  1.00  0.00    -0.274 OA
HETATM    2  O3  UNK     1      20.628  -2.902  34.116  1.00  0.00    -0.259 OA
HETATM    3  C1  UNK     1      18.500  -0.869  36.937  1.00  0.00    -0.001 A 
HETATM    4  C2  UNK     1      18.854  -0.264  35.736  1.00  0.00     0.089 A 
HETATM    5  C3  UNK     1      18.901  -2.246  37.175  1.00  0.00     0.038 A 
HETATM    6  C4  UNK     1      19.600  -2.916  36.251  1.00  0.00     0.115 A 
HETATM    7  C5  UNK     1      17.771  -0.133  37.873  1.00  0.00     0.014 A 
HETATM    8  C6  UNK     1      18.501   1.052  35.444  1.00  0.00     0.038 A 
HETATM    9  C7  UNK     1      19.988  -2.292  34.966  1.00  0.00     0.304 A 
HETATM   10  C8  UNK     1      17.409   1.189  37.595  1.00  0.00     0.001 A 
HETATM   11  C9  UNK     1      17.773   1.779  36.384  1.00  0.00     0.003 A 
ENDROOT
BRANCH   6  12
HETATM   12  C10 UNK     1      19.957  -4.300  36.584  1.00  0.00     0.299 C 
HETATM   13  O4  UNK     1      19.182  -5.237  36.490  1.00  0.00    -0.259 OA
BRANCH  12  14
HETATM   14  O2  UNK     1      21.250  -4.325  36.994  1.00  0.00    -0.322 OA
HETATM   15  C11 UNK     1      21.550  -5.292  38.007  1.00  0.00     0.213 C 
ENDBRANCH  12  14
ENDBRANCH   6  12
TORSDOF 2
ENDMDL
MODEL 10
REMARK VINA RESULT:      -6.2     13.717     16.348
REMARK  2 active torsions:
REMARK  status: ('A' for Active; 'I' for Inactive)
REMARK    1  A    between atoms: C10_14  and  O2_2 
REMARK    2  A    between atoms: C10_14  and  C4_8 
ROOT
HETATM    1  O1  UNK     1      19.472   0.271  14.625  1.00  0.00    -0.274 OA
HETATM    2  O3  UNK     1      19.837   2.201  15.791  1.00  0.00    -0.259 OA
HETATM    3  C1  UNK     1      18.692  -1.711  15.797  1.00  0.00    -0.001 A 
HETATM    4  C2  UNK     1      19.078  -1.082  14.619  1.00  0.00     0.089 A 
HETATM    5  C3  UNK     1      18.701  -0.950  17.037  1.00  0.00     0.038 A 
HETATM    6  C4  UNK     1      19.077   0.335  17.037  1.00  0.00     0.115 A 
HETATM    7  C5  UNK     1      18.307  -3.053  15.752  1.00  0.00     0.014 A 
HETATM    8  C6  UNK     1      19.092  -1.754  13.398  1.00  0.00     0.038 A 
HETATM    9  C7  UNK     1      19.492   1.024  15.795  1.00  0.00     0.304 A 
HETATM   10  C8  UNK     1      18.315  -3.741  14.534  1.00  0.00     0.001 A 
HETATM   11  C9  UNK     1      18.707  -3.093  13.361  1.00  0.00     0.003 A 
ENDROOT
BRANCH   6  12
HETATM   12  C10 UNK     1      19.054   1.017  18.337  1.00  0.00     0.299 C 
HETATM   13  O4  UNK     1      18.569   2.123  18.508  1.00  0.00    -0.259 OA
BRANCH  12  14
HETATM   14  O2  UNK     1      19.646   0.215  19.255  1.00  0.00    -0.322 OA
HETATM   15  C11 UNK     1      19.342   0.522  20.620  1.00  0.00     0.213 C 
ENDBRANCH  12  14
ENDBRANCH   6  12
TORSDOF 2
ENDMDL
