MODEL 1
REMARK VINA RESULT:      -8.1      0.000      0.000
REMARK  2 active torsions:
REMARK  status: ('A' for Active; 'I' for Inactive)
REMARK    1  A    between atoms: C1_8  and  N1_7 
REMARK    2  A    between atoms: C5_12  and  C9_16 
ROOT
HETATM    1  O3  UNK     1      31.824  -9.424  35.493  1.00  0.00    -0.303 OA
HETATM    2  O4  UNK     1      33.520  -9.440  33.097  1.00  0.00    -0.265 OA
HETATM    3  O5  UNK     1      28.959  -6.505  35.112  1.00  0.00    -0.287 OA
HETATM    4  N1  UNK     1      32.102  -7.705  32.340  1.00  0.00    -0.328 N 
HETATM    5  C5  UNK     1      30.932  -6.995  32.854  1.00  0.00     0.161 A 
HETATM    6  C6  UNK     1      30.785  -7.671  34.176  1.00  0.00     0.060 A 
HETATM    7  C7  UNK     1      32.573  -8.684  33.217  1.00  0.00     0.279 A 
HETATM    8  C8  UNK     1      31.688  -8.631  34.392  1.00  0.00     0.156 A 
HETATM    9  C10 UNK     1      29.800  -7.385  35.224  1.00  0.00     0.196 A 
HETATM   10  C11 UNK     1      29.903  -8.240  36.430  1.00  0.00     0.049 A 
HETATM   11  C14 UNK     1      30.909  -9.215  36.503  1.00  0.00     0.090 A 
HETATM   12  C17 UNK     1      29.007  -8.076  37.488  1.00  0.00     0.018 A 
HETATM   13  C18 UNK     1      31.017 -10.025  37.633  1.00  0.00     0.038 A 
HETATM   14  C20 UNK     1      29.119  -8.890  38.616  1.00  0.00     0.001 A 
HETATM   15  C21 UNK     1      30.120  -9.861  38.689  1.00  0.00     0.003 A 
ENDROOT
BRANCH   4  16
HETATM   16  C1  UNK     1      32.730  -7.352  31.091  1.00  0.00     0.103 C 
HETATM   17  C2  UNK     1      34.244  -7.233  31.254  1.00  0.00     0.165 C 
HETATM   18  S1  UNK     1      34.910  -7.461  29.611  1.00  0.00     0.146 S 
HETATM   19  C4  UNK     1      33.412  -8.093  28.870  1.00  0.00     0.142 C 
HETATM   20  O1  UNK     1      35.198  -6.162  29.038  1.00  0.00    -0.228 OA
HETATM   21  O2  UNK     1      35.894  -8.523  29.654  1.00  0.00    -0.228 OA
HETATM   22  C3  UNK     1      32.502  -8.441  30.042  1.00  0.00     0.041 C 
ENDBRANCH   4  16
BRANCH   5  23
HETATM   23  C9  UNK     1      29.737  -7.171  31.981  1.00  0.00    -0.031 A 
HETATM   24  C12 UNK     1      29.152  -6.063  31.366  1.00  0.00     0.009 A 
HETATM   25  C15 UNK     1      28.034  -6.228  30.549  1.00  0.00     0.001 A 
HETATM   26  C19 UNK     1      27.499  -7.499  30.346  1.00  0.00     0.000 A 
HETATM   27  C16 UNK     1      28.083  -8.607  30.961  1.00  0.00     0.001 A 
HETATM   28  C13 UNK     1      29.201  -8.443  31.778  1.00  0.00     0.009 A 
ENDBRANCH   5  23
TORSDOF 2
ENDMDL
MODEL 2
REMARK VINA RESULT:      -8.1      2.431      3.920
REMARK  2 active torsions:
REMARK  status: ('A' for Active; 'I' for Inactive)
REMARK    1  A    between atoms: C1_8  and  N1_7 
REMARK    2  A    between atoms: C5_12  and  C9_16 
ROOT
HETATM    1  O3  UNK     1      28.312  -8.890  34.783  1.00  0.00    -0.303 OA
HETATM    2  O4  UNK     1      28.763  -8.350  31.933  1.00  0.00    -0.265 OA
HETATM    3  O5  UNK     1      31.899  -8.747  36.780  1.00  0.00    -0.287 OA
HETATM    4  N1  UNK     1      31.031  -8.098  32.558  1.00  0.00    -0.328 N 
HETATM    5  C5  UNK     1      31.802  -8.173  33.798  1.00  0.00     0.161 A 
HETATM    6  C6  UNK     1      30.709  -8.514  34.755  1.00  0.00     0.060 A 
HETATM    7  C7  UNK     1      29.669  -8.334  32.749  1.00  0.00     0.279 A 
HETATM    8  C8  UNK     1      29.503  -8.595  34.188  1.00  0.00     0.156 A 
HETATM    9  C10 UNK     1      30.828  -8.776  36.194  1.00  0.00     0.196 A 
HETATM   10  C11 UNK     1      29.550  -9.081  36.881  1.00  0.00     0.049 A 
HETATM   11  C14 UNK     1      28.359  -9.123  36.141  1.00  0.00     0.090 A 
HETATM   12  C17 UNK     1      29.532  -9.329  38.255  1.00  0.00     0.018 A 
HETATM   13  C18 UNK     1      27.151  -9.410  36.777  1.00  0.00     0.038 A 
HETATM   14  C20 UNK     1      28.321  -9.615  38.886  1.00  0.00     0.001 A 
HETATM   15  C21 UNK     1      27.135  -9.656  38.151  1.00  0.00     0.003 A 
ENDROOT
BRANCH   4  16
HETATM   16  C1  UNK     1      31.655  -7.882  31.276  1.00  0.00     0.103 C 
HETATM   17  C2  UNK     1      31.529  -9.120  30.391  1.00  0.00     0.165 C 
HETATM   18  S1  UNK     1      31.713  -8.518  28.717  1.00  0.00     0.146 S 
HETATM   19  C4  UNK     1      31.520  -6.785  29.102  1.00  0.00     0.142 C 
HETATM   20  O1  UNK     1      33.076  -8.748  28.284  1.00  0.00    -0.228 OA
HETATM   21  O2  UNK     1      30.571  -8.954  27.941  1.00  0.00    -0.228 OA
HETATM   22  C3  UNK     1      30.960  -6.749  30.518  1.00  0.00     0.041 C 
ENDBRANCH   4  16
BRANCH   5  23
HETATM   23  C9  UNK     1      32.472  -6.883  34.126  1.00  0.00    -0.031 A 
HETATM   24  C12 UNK     1      33.864  -6.820  34.204  1.00  0.00     0.009 A 
HETATM   25  C15 UNK     1      34.492  -5.613  34.510  1.00  0.00     0.001 A 
HETATM   26  C19 UNK     1      33.729  -4.468  34.738  1.00  0.00     0.000 A 
HETATM   27  C16 UNK     1      32.337  -4.530  34.660  1.00  0.00     0.001 A 
HETATM   28  C13 UNK     1      31.709  -5.738  34.353  1.00  0.00     0.009 A 
ENDBRANCH   5  23
TORSDOF 2
ENDMDL
MODEL 3
REMARK VINA RESULT:      -8.1      3.695      6.859
REMARK  2 active torsions:
REMARK  status: ('A' for Active; 'I' for Inactive)
REMARK    1  A    between atoms: C1_8  and  N1_7 
REMARK    2  A    between atoms: C5_12  and  C9_16 
ROOT
HETATM    1  O3  UNK     1      34.480  -6.206  35.719  1.00  0.00    -0.303 OA
HETATM    2  O4  UNK     1      32.579  -4.657  37.333  1.00  0.00    -0.265 OA
HETATM    3  O5  UNK     1      32.415  -8.870  33.369  1.00  0.00    -0.287 OA
HETATM    4  N1  UNK     1      30.923  -5.915  36.206  1.00  0.00    -0.328 N 
HETATM    5  C5  UNK     1      30.901  -6.958  35.182  1.00  0.00     0.161 A 
HETATM    6  C6  UNK     1      32.366  -7.122  34.955  1.00  0.00     0.060 A 
HETATM    7  C7  UNK     1      32.215  -5.495  36.527  1.00  0.00     0.279 A 
HETATM    8  C8  UNK     1      33.120  -6.301  35.690  1.00  0.00     0.156 A 
HETATM    9  C10 UNK     1      33.034  -8.069  34.055  1.00  0.00     0.196 A 
HETATM   10  C11 UNK     1      34.513  -7.983  34.042  1.00  0.00     0.049 A 
HETATM   11  C14 UNK     1      35.160  -7.057  34.874  1.00  0.00     0.090 A 
HETATM   12  C17 UNK     1      35.260  -8.820  33.210  1.00  0.00     0.018 A 
HETATM   13  C18 UNK     1      36.552  -6.969  34.872  1.00  0.00     0.038 A 
HETATM   14  C20 UNK     1      36.652  -8.727  33.211  1.00  0.00     0.001 A 
HETATM   15  C21 UNK     1      37.297  -7.805  34.039  1.00  0.00     0.003 A 
ENDROOT
BRANCH   4  16
HETATM   16  C1  UNK     1      29.723  -5.448  36.855  1.00  0.00     0.103 C 
HETATM   17  C2  UNK     1      28.916  -6.615  37.417  1.00  0.00     0.165 C 
HETATM   18  S1  UNK     1      27.896  -5.902  38.701  1.00  0.00     0.146 S 
HETATM   19  C4  UNK     1      28.757  -4.341  38.802  1.00  0.00     0.142 C 
HETATM   20  O1  UNK     1      26.569  -5.666  38.168  1.00  0.00    -0.228 OA
HETATM   21  O2  UNK     1      28.117  -6.638  39.929  1.00  0.00    -0.228 OA
HETATM   22  C3  UNK     1      30.065  -4.556  38.051  1.00  0.00     0.041 C 
ENDBRANCH   4  16
BRANCH   5  23
HETATM   23  C9  UNK     1      30.173  -6.529  33.954  1.00  0.00    -0.031 A 
HETATM   24  C12 UNK     1      28.978  -7.155  33.596  1.00  0.00     0.009 A 
HETATM   25  C15 UNK     1      28.296  -6.752  32.448  1.00  0.00     0.001 A 
HETATM   26  C19 UNK     1      28.809  -5.725  31.656  1.00  0.00     0.000 A 
HETATM   27  C16 UNK     1      30.003  -5.099  32.013  1.00  0.00     0.001 A 
HETATM   28  C13 UNK     1      30.685  -5.501  33.162  1.00  0.00     0.009 A 
ENDBRANCH   5  23
TORSDOF 2
ENDMDL
MODEL 4
REMARK VINA RESULT:      -8.1      2.530      3.289
REMARK  2 active torsions:
REMARK  status: ('A' for Active; 'I' for Inactive)
REMARK    1  A    between atoms: C1_8  and  N1_7 
REMARK    2  A    between atoms: C5_12  and  C9_16 
ROOT
HETATM    1  O3  UNK     1      30.106  -9.136  37.958  1.00  0.00    -0.303 OA
HETATM    2  O4  UNK     1      32.651  -8.652  36.576  1.00  0.00    -0.265 OA
HETATM    3  O5  UNK     1      27.198  -6.732  36.331  1.00  0.00    -0.287 OA
HETATM    4  N1  UNK     1      31.405  -7.129  35.263  1.00  0.00    -0.328 N 
HETATM    5  C5  UNK     1      30.016  -6.678  35.197  1.00  0.00     0.161 A 
HETATM    6  C6  UNK     1      29.436  -7.481  36.313  1.00  0.00     0.060 A 
HETATM    7  C7  UNK     1      31.621  -8.083  36.258  1.00  0.00     0.279 A 
HETATM    8  C8  UNK     1      30.318  -8.286  36.912  1.00  0.00     0.156 A 
HETATM    9  C10 UNK     1      28.056  -7.460  36.809  1.00  0.00     0.196 A 
HETATM   10  C11 UNK     1      27.781  -8.386  37.933  1.00  0.00     0.049 A 
HETATM   11  C14 UNK     1      28.819  -9.175  38.449  1.00  0.00     0.090 A 
HETATM   12  C17 UNK     1      26.498  -8.471  38.478  1.00  0.00     0.018 A 
HETATM   13  C18 UNK     1      28.573 -10.049  39.508  1.00  0.00     0.038 A 
HETATM   14  C20 UNK     1      26.257  -9.347  39.536  1.00  0.00     0.001 A 
HETATM   15  C21 UNK     1      27.290 -10.133  40.051  1.00  0.00     0.003 A 
ENDROOT
BRANCH   4  16
HETATM   16  C1  UNK     1      32.438  -6.566  34.428  1.00  0.00     0.103 C 
HETATM   17  C2  UNK     1      33.559  -5.967  35.273  1.00  0.00     0.165 C 
HETATM   18  S1  UNK     1      34.988  -5.934  34.198  1.00  0.00     0.146 S 
HETATM   19  C4  UNK     1      34.316  -7.002  32.934  1.00  0.00     0.142 C 
HETATM   20  O1  UNK     1      35.131  -4.601  33.650  1.00  0.00    -0.228 OA
HETATM   21  O2  UNK     1      36.079  -6.621  34.858  1.00  0.00    -0.228 OA
HETATM   22  C3  UNK     1      33.090  -7.650  33.567  1.00  0.00     0.041 C 
ENDBRANCH   4  16
BRANCH   5  23
HETATM   23  C9  UNK     1      29.386  -6.982  33.882  1.00  0.00    -0.031 A 
HETATM   24  C12 UNK     1      29.269  -8.306  33.453  1.00  0.00     0.009 A 
HETATM   25  C15 UNK     1      28.677  -8.591  32.223  1.00  0.00     0.001 A 
HETATM   26  C19 UNK     1      28.203  -7.554  31.419  1.00  0.00     0.000 A 
HETATM   27  C16 UNK     1      28.320  -6.232  31.847  1.00  0.00     0.001 A 
HETATM   28  C13 UNK     1      28.911  -5.946  33.078  1.00  0.00     0.009 A 
ENDBRANCH   5  23
TORSDOF 2
ENDMDL
MODEL 5
REMARK VINA RESULT:      -8.0      2.598      4.819
REMARK  2 active torsions:
REMARK  status: ('A' for Active; 'I' for Inactive)
REMARK    1  A    between atoms: C1_8  and  N1_7 
REMARK    2  A    between atoms: C5_12  and  C9_16 
ROOT
HETATM    1  O3  UNK     1      27.330  -7.530  36.277  1.00  0.00    -0.303 OA
HETATM    2  O4  UNK     1      27.663  -6.152  33.707  1.00  0.00    -0.265 OA
HETATM    3  O5  UNK     1      30.896  -9.253  37.370  1.00  0.00    -0.287 OA
HETATM    4  N1  UNK     1      29.914  -6.865  33.858  1.00  0.00    -0.328 N 
HETATM    5  C5  UNK     1      30.722  -7.626  34.810  1.00  0.00     0.161 A 
HETATM    6  C6  UNK     1      29.681  -7.936  35.834  1.00  0.00     0.060 A 
HETATM    7  C7  UNK     1      28.587  -6.719  34.264  1.00  0.00     0.279 A 
HETATM    8  C8  UNK     1      28.480  -7.424  35.553  1.00  0.00     0.156 A 
HETATM    9  C10 UNK     1      29.837  -8.729  37.057  1.00  0.00     0.196 A 
HETATM   10  C11 UNK     1      28.612  -8.852  37.883  1.00  0.00     0.049 A 
HETATM   11  C14 UNK     1      27.423  -8.247  37.452  1.00  0.00     0.090 A 
HETATM   12  C17 UNK     1      28.641  -9.567  39.083  1.00  0.00     0.018 A 
HETATM   13  C18 UNK     1      26.264  -8.356  38.220  1.00  0.00     0.038 A 
HETATM   14  C20 UNK     1      27.479  -9.672  39.848  1.00  0.00     0.001 A 
HETATM   15  C21 UNK     1      26.294  -9.070  39.419  1.00  0.00     0.003 A 
ENDROOT
BRANCH   4  16
HETATM   16  C1  UNK     1      30.442  -6.400  32.599  1.00  0.00     0.103 C 
HETATM   17  C2  UNK     1      30.463  -7.524  31.565  1.00  0.00     0.165 C 
HETATM   18  S1  UNK     1      30.483  -6.699  29.979  1.00  0.00     0.146 S 
HETATM   19  C4  UNK     1      30.052  -5.076  30.588  1.00  0.00     0.142 C 
HETATM   20  O1  UNK     1      31.845  -6.663  29.487  1.00  0.00    -0.228 OA
HETATM   21  O2  UNK     1      29.385  -7.205  29.181  1.00  0.00    -0.228 OA
HETATM   22  C3  UNK     1      29.555  -5.301  32.011  1.00  0.00     0.041 C 
ENDBRANCH   4  16
BRANCH   5  23
HETATM   23  C9  UNK     1      31.849  -6.823  35.361  1.00  0.00    -0.031 A 
HETATM   24  C12 UNK     1      33.160  -7.291  35.249  1.00  0.00     0.009 A 
HETATM   25  C15 UNK     1      34.216  -6.540  35.763  1.00  0.00     0.001 A 
HETATM   26  C19 UNK     1      33.964  -5.321  36.391  1.00  0.00     0.000 A 
HETATM   27  C16 UNK     1      32.654  -4.852  36.504  1.00  0.00     0.001 A 
HETATM   28  C13 UNK     1      31.598  -5.603  35.988  1.00  0.00     0.009 A 
ENDBRANCH   5  23
TORSDOF 2
ENDMDL
MODEL 6
REMARK VINA RESULT:      -7.9      4.007      6.526
REMARK  2 active torsions:
REMARK  status: ('A' for Active; 'I' for Inactive)
REMARK    1  A    between atoms: C1_8  and  N1_7 
REMARK    2  A    between atoms: C5_12  and  C9_16 
ROOT
HETATM    1  O3  UNK     1      30.895 -10.830  35.224  1.00  0.00    -0.303 OA
HETATM    2  O4  UNK     1      30.419  -8.831  37.321  1.00  0.00    -0.265 OA
HETATM    3  O5  UNK     1      28.745  -9.823  31.871  1.00  0.00    -0.287 OA
HETATM    4  N1  UNK     1      29.054  -7.772  35.705  1.00  0.00    -0.328 N 
HETATM    5  C5  UNK     1      28.665  -8.023  34.319  1.00  0.00     0.161 A 
HETATM    6  C6  UNK     1      29.402  -9.299  34.077  1.00  0.00     0.060 A 
HETATM    7  C7  UNK     1      29.919  -8.742  36.213  1.00  0.00     0.279 A 
HETATM    8  C8  UNK     1      30.121  -9.711  35.123  1.00  0.00     0.156 A 
HETATM    9  C10 UNK     1      29.398 -10.119  32.861  1.00  0.00     0.196 A 
HETATM   10  C11 UNK     1      30.244 -11.334  32.924  1.00  0.00     0.049 A 
HETATM   11  C14 UNK     1      30.948 -11.627  34.101  1.00  0.00     0.090 A 
HETATM   12  C17 UNK     1      30.337 -12.185  31.819  1.00  0.00     0.018 A 
HETATM   13  C18 UNK     1      31.746 -12.769  34.172  1.00  0.00     0.038 A 
HETATM   14  C20 UNK     1      31.137 -13.325  31.896  1.00  0.00     0.001 A 
HETATM   15  C21 UNK     1      31.839 -13.617  33.068  1.00  0.00     0.003 A 
ENDROOT
BRANCH   4  16
HETATM   16  C1  UNK     1      28.517  -6.672  36.468  1.00  0.00     0.103 C 
HETATM   17  C2  UNK     1      27.621  -7.174  37.597  1.00  0.00     0.165 C 
HETATM   18  S1  UNK     1      27.589  -5.846  38.794  1.00  0.00     0.146 S 
HETATM   19  C4  UNK     1      28.955  -4.922  38.109  1.00  0.00     0.142 C 
HETATM   20  O1  UNK     1      26.373  -5.080  38.610  1.00  0.00    -0.228 OA
HETATM   21  O2  UNK     1      27.982  -6.376  40.083  1.00  0.00    -0.228 OA
HETATM   22  C3  UNK     1      29.639  -5.878  37.139  1.00  0.00     0.041 C 
ENDBRANCH   4  16
BRANCH   5  23
HETATM   23  C9  UNK     1      29.096  -6.929  33.404  1.00  0.00    -0.031 A 
HETATM   24  C12 UNK     1      30.400  -6.435  33.472  1.00  0.00     0.009 A 
HETATM   25  C15 UNK     1      30.805  -5.411  32.615  1.00  0.00     0.001 A 
HETATM   26  C19 UNK     1      29.906  -4.879  31.691  1.00  0.00     0.000 A 
HETATM   27  C16 UNK     1      28.602  -5.372  31.623  1.00  0.00     0.001 A 
HETATM   28  C13 UNK     1      28.198  -6.396  32.480  1.00  0.00     0.009 A 
ENDBRANCH   5  23
TORSDOF 2
ENDMDL
MODEL 7
REMARK VINA RESULT:      -7.8      2.626      3.988
REMARK  2 active torsions:
REMARK  status: ('A' for Active; 'I' for Inactive)
REMARK    1  A    between atoms: C1_8  and  N1_7 
REMARK    2  A    between atoms: C5_12  and  C9_16 
ROOT
HETATM    1  O3  UNK     1      29.973  -5.868  35.103  1.00  0.00    -0.303 OA
HETATM    2  O4  UNK     1      30.670  -5.591  32.264  1.00  0.00    -0.265 OA
HETATM    3  O5  UNK     1      28.438  -9.621  35.766  1.00  0.00    -0.287 OA
HETATM    4  N1  UNK     1      29.933  -7.832  32.083  1.00  0.00    -0.328 N 
HETATM    5  C5  UNK     1      29.397  -8.846  32.989  1.00  0.00     0.161 A 
HETATM    6  C6  UNK     1      29.385  -8.068  34.262  1.00  0.00     0.060 A 
HETATM    7  C7  UNK     1      30.223  -6.627  32.725  1.00  0.00     0.279 A 
HETATM    8  C8  UNK     1      29.857  -6.825  34.137  1.00  0.00     0.156 A 
HETATM    9  C10 UNK     1      28.908  -8.509  35.577  1.00  0.00     0.196 A 
HETATM   10  C11 UNK     1      29.036  -7.503  36.658  1.00  0.00     0.049 A 
HETATM   11  C14 UNK     1      29.561  -6.236  36.366  1.00  0.00     0.090 A 
HETATM   12  C17 UNK     1      28.634  -7.813  37.959  1.00  0.00     0.018 A 
HETATM   13  C18 UNK     1      29.685  -5.281  37.375  1.00  0.00     0.038 A 
HETATM   14  C20 UNK     1      28.760  -6.854  38.965  1.00  0.00     0.001 A 
HETATM   15  C21 UNK     1      29.284  -5.592  38.675  1.00  0.00     0.003 A 
ENDROOT
BRANCH   4  16
HETATM   16  C1  UNK     1      30.058  -8.056  30.663  1.00  0.00     0.103 C 
HETATM   17  C2  UNK     1      31.328  -8.839  30.343  1.00  0.00     0.165 C 
HETATM   18  S1  UNK     1      31.023  -9.593  28.750  1.00  0.00     0.146 S 
HETATM   19  C4  UNK     1      29.263  -9.291  28.716  1.00  0.00     0.142 C 
HETATM   20  O1  UNK     1      31.651  -8.787  27.723  1.00  0.00    -0.228 OA
HETATM   21  O2  UNK     1      31.250 -11.019  28.862  1.00  0.00    -0.228 OA
HETATM   22  C3  UNK     1      28.895  -8.904  30.144  1.00  0.00     0.041 C 
ENDBRANCH   4  16
BRANCH   5  23
HETATM   23  C9  UNK     1      30.268 -10.054  33.061  1.00  0.00    -0.031 A 
HETATM   24  C12 UNK     1      29.827 -11.266  32.527  1.00  0.00     0.009 A 
HETATM   25  C15 UNK     1      30.642 -12.396  32.594  1.00  0.00     0.001 A 
HETATM   26  C19 UNK     1      31.897 -12.316  33.195  1.00  0.00     0.000 A 
HETATM   27  C16 UNK     1      32.339 -11.105  33.730  1.00  0.00     0.001 A 
HETATM   28  C13 UNK     1      31.524  -9.974  33.662  1.00  0.00     0.009 A 
ENDBRANCH   5  23
TORSDOF 2
ENDMDL
MODEL 8
REMARK VINA RESULT:      -7.7     31.411     34.054
REMARK  2 active torsions:
REMARK  status: ('A' for Active; 'I' for Inactive)
REMARK    1  A    between atoms: C1_8  and  N1_7 
REMARK    2  A    between atoms: C5_12  and  C9_16 
ROOT
HETATM    1  O3  UNK     1      18.603  10.493   8.811  1.00  0.00    -0.303 OA
HETATM    2  O4  UNK     1      17.864   7.871   9.905  1.00  0.00    -0.265 OA
HETATM    3  O5  UNK     1      15.197  12.673   8.084  1.00  0.00    -0.287 OA
HETATM    4  N1  UNK     1      15.642   8.666   9.742  1.00  0.00    -0.328 N 
HETATM    5  C5  UNK     1      14.988   9.898   9.305  1.00  0.00     0.161 A 
HETATM    6  C6  UNK     1      16.185  10.689   8.895  1.00  0.00     0.060 A 
HETATM    7  C7  UNK     1      17.032   8.720   9.634  1.00  0.00     0.279 A 
HETATM    8  C8  UNK     1      17.342  10.050   9.085  1.00  0.00     0.156 A 
HETATM    9  C10 UNK     1      16.214  12.034   8.312  1.00  0.00     0.196 A 
HETATM   10  C11 UNK     1      17.568  12.560   8.018  1.00  0.00     0.049 A 
HETATM   11  C14 UNK     1      18.692  11.764   8.282  1.00  0.00     0.090 A 
HETATM   12  C17 UNK     1      17.725  13.839   7.479  1.00  0.00     0.018 A 
HETATM   13  C18 UNK     1      19.971  12.247   8.008  1.00  0.00     0.038 A 
HETATM   14  C20 UNK     1      19.007  14.318   7.208  1.00  0.00     0.001 A 
HETATM   15  C21 UNK     1      20.127  13.525   7.471  1.00  0.00     0.003 A 
ENDROOT
BRANCH   4  16
HETATM   16  C1  UNK     1      14.895   7.504  10.158  1.00  0.00     0.103 C 
HETATM   17  C2  UNK     1      13.648   7.318   9.298  1.00  0.00     0.165 C 
HETATM   18  S1  UNK     1      13.226   5.588   9.454  1.00  0.00     0.146 S 
HETATM   19  C4  UNK     1      14.767   5.069  10.194  1.00  0.00     0.142 C 
HETATM   20  O1  UNK     1      12.171   5.451  10.438  1.00  0.00    -0.228 OA
HETATM   21  O2  UNK     1      13.127   5.014   8.128  1.00  0.00    -0.228 OA
HETATM   22  C3  UNK     1      15.727   6.232   9.977  1.00  0.00     0.041 C 
ENDBRANCH   4  16
BRANCH   5  23
HETATM   23  C9  UNK     1      14.217  10.548  10.402  1.00  0.00    -0.031 A 
HETATM   24  C12 UNK     1      14.868  10.941  11.574  1.00  0.00     0.009 A 
HETATM   25  C15 UNK     1      14.147  11.551  12.601  1.00  0.00     0.001 A 
HETATM   26  C19 UNK     1      12.777  11.767  12.459  1.00  0.00     0.000 A 
HETATM   27  C16 UNK     1      12.127  11.375  11.289  1.00  0.00     0.001 A 
HETATM   28  C13 UNK     1      12.847  10.766  10.261  1.00  0.00     0.009 A 
ENDBRANCH   5  23
TORSDOF 2
ENDMDL
MODEL 9
REMARK VINA RESULT:      -7.7     31.928     34.776
REMARK  2 active torsions:
REMARK  status: ('A' for Active; 'I' for Inactive)
REMARK    1  A    between atoms: C1_8  and  N1_7 
REMARK    2  A    between atoms: C5_12  and  C9_16 
ROOT
HETATM    1  O3  UNK     1      10.221   8.240   9.424  1.00  0.00    -0.303 OA
HETATM    2  O4  UNK     1      10.889  10.006  11.672  1.00  0.00    -0.265 OA
HETATM    3  O5  UNK     1      13.480   7.902   6.945  1.00  0.00    -0.287 OA
HETATM    4  N1  UNK     1      13.026  10.129  10.665  1.00  0.00    -0.328 N 
HETATM    5  C5  UNK     1      13.672   9.564   9.481  1.00  0.00     0.161 A 
HETATM    6  C6  UNK     1      12.535   8.776   8.923  1.00  0.00     0.060 A 
HETATM    7  C7  UNK     1      11.700   9.718  10.809  1.00  0.00     0.279 A 
HETATM    8  C8  UNK     1      11.424   8.838   9.661  1.00  0.00     0.156 A 
HETATM    9  C10 UNK     1      12.513   7.987   7.687  1.00  0.00     0.196 A 
HETATM   10  C11 UNK     1      11.228   7.304   7.404  1.00  0.00     0.049 A 
HETATM   11  C14 UNK     1      10.149   7.465   8.286  1.00  0.00     0.090 A 
HETATM   12  C17 UNK     1      11.091   6.507   6.265  1.00  0.00     0.018 A 
HETATM   13  C18 UNK     1       8.935   6.828   8.029  1.00  0.00     0.038 A 
HETATM   14  C20 UNK     1       9.874   5.871   6.014  1.00  0.00     0.001 A 
HETATM   15  C21 UNK     1       8.800   6.031   6.891  1.00  0.00     0.003 A 
ENDROOT
BRANCH   4  16
HETATM   16  C1  UNK     1      13.690  11.075  11.527  1.00  0.00     0.103 C 
HETATM   17  C2  UNK     1      13.045  12.455  11.426  1.00  0.00     0.165 C 
HETATM   18  S1  UNK     1      13.484  13.288  12.945  1.00  0.00     0.146 S 
HETATM   19  C4  UNK     1      14.062  11.838  13.814  1.00  0.00     0.142 C 
HETATM   20  O1  UNK     1      14.615  14.158  12.693  1.00  0.00    -0.228 OA
HETATM   21  O2  UNK     1      12.271  13.761  13.581  1.00  0.00    -0.228 OA
HETATM   22  C3  UNK     1      13.563  10.655  12.993  1.00  0.00     0.041 C 
ENDBRANCH   4  16
BRANCH   5  23
HETATM   23  C9  UNK     1      14.845   8.714   9.831  1.00  0.00    -0.031 A 
HETATM   24  C12 UNK     1      16.140   9.202   9.650  1.00  0.00     0.009 A 
HETATM   25  C15 UNK     1      17.238   8.407   9.979  1.00  0.00     0.001 A 
HETATM   26  C19 UNK     1      17.042   7.123  10.486  1.00  0.00     0.000 A 
HETATM   27  C16 UNK     1      15.748   6.634  10.666  1.00  0.00     0.001 A 
HETATM   28  C13 UNK     1      14.650   7.429  10.339  1.00  0.00     0.009 A 
ENDBRANCH   5  23
TORSDOF 2
ENDMDL
MODEL 10
REMARK VINA RESULT:      -7.7      1.871      2.563
REMARK  2 active torsions:
REMARK  status: ('A' for Active; 'I' for Inactive)
REMARK    1  A    between atoms: C1_8  and  N1_7 
REMARK    2  A    between atoms: C5_12  and  C9_16 
ROOT
HETATM    1  O3  UNK     1      29.617  -9.771  36.719  1.00  0.00    -0.303 OA
HETATM    2  O4  UNK     1      31.005 -11.209  34.569  1.00  0.00    -0.265 OA
HETATM    3  O5  UNK     1      29.698  -5.739  35.931  1.00  0.00    -0.287 OA
HETATM    4  N1  UNK     1      31.299  -9.066  33.612  1.00  0.00    -0.328 N 
HETATM    5  C5  UNK     1      30.935  -7.693  33.959  1.00  0.00     0.161 A 
HETATM    6  C6  UNK     1      30.239  -7.935  35.257  1.00  0.00     0.060 A 
HETATM    7  C7  UNK     1      30.863  -9.999  34.554  1.00  0.00     0.279 A 
HETATM    8  C8  UNK     1      30.176  -9.224  35.601  1.00  0.00     0.156 A 
HETATM    9  C10 UNK     1      29.658  -6.939  36.162  1.00  0.00     0.196 A 
HETATM   10  C11 UNK     1      29.022  -7.495  37.380  1.00  0.00     0.049 A 
HETATM   11  C14 UNK     1      29.033  -8.881  37.595  1.00  0.00     0.090 A 
HETATM   12  C17 UNK     1      28.416  -6.645  38.308  1.00  0.00     0.018 A 
HETATM   13  C18 UNK     1      28.439  -9.415  38.738  1.00  0.00     0.038 A 
HETATM   14  C20 UNK     1      27.822  -7.186  39.449  1.00  0.00     0.001 A 
HETATM   15  C21 UNK     1      27.834  -8.565  39.665  1.00  0.00     0.003 A 
ENDROOT
BRANCH   4  16
HETATM   16  C1  UNK     1      32.099  -9.381  32.454  1.00  0.00     0.103 C 
HETATM   17  C2  UNK     1      31.230  -9.492  31.204  1.00  0.00     0.165 C 
HETATM   18  S1  UNK     1      32.346  -9.215  29.834  1.00  0.00     0.146 S 
HETATM   19  C4  UNK     1      33.703  -8.575  30.803  1.00  0.00     0.142 C 
HETATM   20  O1  UNK     1      32.735 -10.496  29.281  1.00  0.00    -0.228 OA
HETATM   21  O2  UNK     1      31.813  -8.148  29.013  1.00  0.00    -0.228 OA
HETATM   22  C3  UNK     1      33.106  -8.265  32.171  1.00  0.00     0.041 C 
ENDBRANCH   4  16
BRANCH   5  23
HETATM   23  C9  UNK     1      30.046  -7.070  32.938  1.00  0.00    -0.031 A 
HETATM   24  C12 UNK     1      28.775  -7.598  32.704  1.00  0.00     0.009 A 
HETATM   25  C15 UNK     1      27.942  -7.015  31.749  1.00  0.00     0.001 A 
HETATM   26  C19 UNK     1      28.379  -5.905  31.027  1.00  0.00     0.000 A 
HETATM   27  C16 UNK     1      29.649  -5.377  31.260  1.00  0.00     0.001 A 
HETATM   28  C13 UNK     1      30.482  -5.960  32.216  1.00  0.00     0.009 A 
ENDBRANCH   5  23
TORSDOF 2
ENDMDL
