MODEL 1
REMARK VINA RESULT:     -10.1      0.000      0.000
REMARK  3 active torsions:
REMARK  status: ('A' for Active; 'I' for Inactive)
REMARK       I    between atoms: C11_17  and  N1_5 
REMARK    1  A    between atoms: C13_19  and  N1_5 
REMARK    2  A    between atoms: C2_8  and  C6_12 
REMARK    3  A    between atoms: C11_17  and  C4_10 
ROOT
HETATM    1  O2  UNK     1      20.558  -4.083  37.823  1.00  0.00    -0.267 OA
HETATM    2  N1  UNK     1      19.497  -4.936  35.901  1.00  0.00    -0.301 N 
HETATM    3  C11 UNK     1      19.925  -3.948  36.778  1.00  0.00     0.263 C 
HETATM    4  H8  UNK     1      18.995  -4.675  35.056  1.00  0.00     0.171 HD
ENDROOT
BRANCH   2   5
HETATM    5  C13 UNK     1      19.694  -6.334  36.014  1.00  0.00     0.173 A 
HETATM    6  S1  UNK     1      18.276  -7.222  36.294  1.00  0.00    -0.061 SA
HETATM    7  C17 UNK     1      19.244  -8.637  36.303  1.00  0.00     0.085 A 
HETATM    8  C6  UNK     1      20.564  -8.297  36.093  1.00  0.00     0.076 A 
HETATM    9  N2  UNK     1      20.819  -6.950  35.924  1.00  0.00    -0.223 NA
BRANCH   8  10
HETATM   10  C2  UNK     1      21.614  -9.271  36.049  1.00  0.00    -0.007 A 
HETATM   11  C8  UNK     1      22.833  -9.015  36.680  1.00  0.00     0.014 A 
HETATM   12  C14 UNK     1      23.855  -9.963  36.636  1.00  0.00     0.007 A 
HETATM   13  C7  UNK     1      23.661 -11.168  35.962  1.00  0.00    -0.062 A 
HETATM   14  C15 UNK     1      22.444 -11.426  35.331  1.00  0.00     0.007 A 
HETATM   15  C20 UNK     1      24.753 -12.182  35.916  1.00  0.00     0.048 C 
HETATM   16  C9  UNK     1      21.420 -10.478  35.374  1.00  0.00     0.014 A 
ENDBRANCH   8  10
ENDBRANCH   2   5
BRANCH   3  17
HETATM   17  C4  UNK     1      19.536  -2.605  36.330  1.00  0.00     0.108 A 
HETATM   18  C12 UNK     1      19.939  -2.070  35.010  1.00  0.00     0.304 A 
HETATM   19  O1  UNK     1      19.508  -0.783  34.699  1.00  0.00    -0.274 OA
HETATM   20  O3  UNK     1      20.617  -2.724  34.225  1.00  0.00    -0.259 OA
HETATM   21  C3  UNK     1      18.729  -0.024  35.594  1.00  0.00     0.089 A 
HETATM   22  C1  UNK     1      18.362  -0.545  36.830  1.00  0.00    -0.001 A 
HETATM   23  C16 UNK     1      18.345   1.254  35.194  1.00  0.00     0.038 A 
HETATM   24  C5  UNK     1      18.796  -1.888  37.184  1.00  0.00     0.037 A 
HETATM   25  C10 UNK     1      17.589   0.238  37.690  1.00  0.00     0.014 A 
HETATM   26  C18 UNK     1      17.197   1.523  37.303  1.00  0.00     0.001 A 
HETATM   27  C19 UNK     1      17.574   2.029  36.058  1.00  0.00     0.003 A 
ENDBRANCH   3  17
TORSDOF 3
ENDMDL
MODEL 2
REMARK VINA RESULT:      -9.5      8.444     14.362
REMARK  3 active torsions:
REMARK  status: ('A' for Active; 'I' for Inactive)
REMARK       I    between atoms: C11_17  and  N1_5 
REMARK    1  A    between atoms: C13_19  and  N1_5 
REMARK    2  A    between atoms: C2_8  and  C6_12 
REMARK    3  A    between atoms: C11_17  and  C4_10 
ROOT
HETATM    1  O2  UNK     1      17.585   3.135  32.889  1.00  0.00    -0.267 OA
HETATM    2  N1  UNK     1      18.772   4.647  31.529  1.00  0.00    -0.301 N 
HETATM    3  C11 UNK     1      18.292   3.404  31.920  1.00  0.00     0.263 C 
HETATM    4  H8  UNK     1      19.337   4.725  30.687  1.00  0.00     0.171 HD
ENDROOT
BRANCH   2   5
HETATM    5  C13 UNK     1      18.555   5.895  32.163  1.00  0.00     0.173 A 
HETATM    6  S1  UNK     1      19.953   6.608  32.808  1.00  0.00    -0.061 SA
HETATM    7  C17 UNK     1      18.967   7.911  33.327  1.00  0.00     0.085 A 
HETATM    8  C6  UNK     1      17.658   7.677  32.960  1.00  0.00     0.076 A 
HETATM    9  N2  UNK     1      17.425   6.498  32.279  1.00  0.00    -0.223 NA
BRANCH   8  10
HETATM   10  C2  UNK     1      16.597   8.594  33.258  1.00  0.00    -0.007 A 
HETATM   11  C8  UNK     1      16.881   9.817  33.868  1.00  0.00     0.014 A 
HETATM   12  C14 UNK     1      15.849  10.708  34.159  1.00  0.00     0.007 A 
HETATM   13  C7  UNK     1      14.532  10.379  33.841  1.00  0.00    -0.062 A 
HETATM   14  C15 UNK     1      14.246   9.157  33.231  1.00  0.00     0.007 A 
HETATM   15  C20 UNK     1      13.428  11.333  34.151  1.00  0.00     0.048 C 
HETATM   16  C9  UNK     1      15.279   8.265  32.940  1.00  0.00     0.014 A 
ENDBRANCH   8  10
ENDBRANCH   2   5
BRANCH   3  17
HETATM   17  C4  UNK     1      18.725   2.334  31.014  1.00  0.00     0.108 A 
HETATM   18  C12 UNK     1      18.700   2.493  29.542  1.00  0.00     0.304 A 
HETATM   19  O1  UNK     1      19.136   1.406  28.789  1.00  0.00    -0.274 OA
HETATM   20  O3  UNK     1      18.317   3.528  29.008  1.00  0.00    -0.259 OA
HETATM   21  C3  UNK     1      19.578   0.213  29.392  1.00  0.00     0.089 A 
HETATM   22  C1  UNK     1      19.592   0.084  30.777  1.00  0.00    -0.001 A 
HETATM   23  C16 UNK     1      19.995  -0.820  28.555  1.00  0.00     0.038 A 
HETATM   24  C5  UNK     1      19.144   1.202  31.592  1.00  0.00     0.037 A 
HETATM   25  C10 UNK     1      20.037  -1.115  31.338  1.00  0.00     0.014 A 
HETATM   26  C18 UNK     1      20.459  -2.161  30.511  1.00  0.00     0.001 A 
HETATM   27  C19 UNK     1      20.438  -2.013  29.123  1.00  0.00     0.003 A 
ENDBRANCH   3  17
TORSDOF 3
ENDMDL
MODEL 3
REMARK VINA RESULT:      -9.3      3.823      6.148
REMARK  3 active torsions:
REMARK  status: ('A' for Active; 'I' for Inactive)
REMARK       I    between atoms: C11_17  and  N1_5 
REMARK    1  A    between atoms: C13_19  and  N1_5 
REMARK    2  A    between atoms: C2_8  and  C6_12 
REMARK    3  A    between atoms: C11_17  and  C4_10 
ROOT
HETATM    1  O2  UNK     1      16.654   0.733  34.191  1.00  0.00    -0.267 OA
HETATM    2  N1  UNK     1      18.949   0.239  34.375  1.00  0.00    -0.301 N 
HETATM    3  C11 UNK     1      17.831   0.897  33.879  1.00  0.00     0.263 C 
HETATM    4  H8  UNK     1      19.873   0.493  34.035  1.00  0.00     0.171 HD
ENDROOT
BRANCH   2   5
HETATM    5  C13 UNK     1      18.986  -0.778  35.360  1.00  0.00     0.173 A 
HETATM    6  S1  UNK     1      18.095  -0.429  36.762  1.00  0.00    -0.061 SA
HETATM    7  C17 UNK     1      18.588  -1.954  37.372  1.00  0.00     0.085 A 
HETATM    8  C6  UNK     1      19.390  -2.587  36.446  1.00  0.00     0.076 A 
HETATM    9  N2  UNK     1      19.618  -1.894  35.273  1.00  0.00    -0.223 NA
BRANCH   8  10
HETATM   10  C2  UNK     1      19.957  -3.884  36.674  1.00  0.00    -0.007 A 
HETATM   11  C8  UNK     1      19.584  -4.961  35.869  1.00  0.00     0.014 A 
HETATM   12  C14 UNK     1      20.135  -6.223  36.092  1.00  0.00     0.007 A 
HETATM   13  C7  UNK     1      21.060  -6.409  37.119  1.00  0.00    -0.062 A 
HETATM   14  C15 UNK     1      21.434  -5.333  37.924  1.00  0.00     0.007 A 
HETATM   15  C20 UNK     1      21.650  -7.758  37.356  1.00  0.00     0.048 C 
HETATM   16  C9  UNK     1      20.883  -4.071  37.702  1.00  0.00     0.014 A 
ENDBRANCH   8  10
ENDBRANCH   2   5
BRANCH   3  17
HETATM   17  C4  UNK     1      18.183   1.895  32.862  1.00  0.00     0.108 A 
HETATM   18  C12 UNK     1      18.703   1.511  31.530  1.00  0.00     0.304 A 
HETATM   19  O1  UNK     1      19.000   2.551  30.652  1.00  0.00    -0.274 OA
HETATM   20  O3  UNK     1      18.865   0.339  31.211  1.00  0.00    -0.259 OA
HETATM   21  C3  UNK     1      18.817   3.901  31.009  1.00  0.00     0.089 A 
HETATM   22  C1  UNK     1      18.328   4.240  32.266  1.00  0.00    -0.001 A 
HETATM   23  C16 UNK     1      19.142   4.870  30.063  1.00  0.00     0.038 A 
HETATM   24  C5  UNK     1      18.007   3.177  33.206  1.00  0.00     0.037 A 
HETATM   25  C10 UNK     1      18.161   5.590  32.583  1.00  0.00     0.014 A 
HETATM   26  C18 UNK     1      18.483   6.574  31.644  1.00  0.00     0.001 A 
HETATM   27  C19 UNK     1      18.972   6.214  30.386  1.00  0.00     0.003 A 
ENDBRANCH   3  17
TORSDOF 3
ENDMDL
MODEL 4
REMARK VINA RESULT:      -9.3      3.814      5.398
REMARK  3 active torsions:
REMARK  status: ('A' for Active; 'I' for Inactive)
REMARK       I    between atoms: C11_17  and  N1_5 
REMARK    1  A    between atoms: C13_19  and  N1_5 
REMARK    2  A    between atoms: C2_8  and  C6_12 
REMARK    3  A    between atoms: C11_17  and  C4_10 
ROOT
HETATM    1  O2  UNK     1      22.119  -2.284  33.213  1.00  0.00    -0.267 OA
HETATM    2  N1  UNK     1      19.880  -2.507  33.910  1.00  0.00    -0.301 N 
HETATM    3  C11 UNK     1      20.908  -2.152  33.047  1.00  0.00     0.263 C 
HETATM    4  H8  UNK     1      18.914  -2.356  33.631  1.00  0.00     0.171 HD
ENDROOT
BRANCH   2   5
HETATM    5  C13 UNK     1      19.995  -3.105  35.189  1.00  0.00     0.173 A 
HETATM    6  S1  UNK     1      20.256  -2.008  36.456  1.00  0.00    -0.061 SA
HETATM    7  C17 UNK     1      20.277  -3.350  37.523  1.00  0.00     0.085 A 
HETATM    8  C6  UNK     1      20.086  -4.513  36.809  1.00  0.00     0.076 A 
HETATM    9  N2  UNK     1      19.921  -4.363  35.446  1.00  0.00    -0.223 NA
BRANCH   8  10
HETATM   10  C2  UNK     1      20.055  -5.805  37.430  1.00  0.00    -0.007 A 
HETATM   11  C8  UNK     1      19.304  -6.836  36.865  1.00  0.00     0.014 A 
HETATM   12  C14 UNK     1      19.274  -8.092  37.470  1.00  0.00     0.007 A 
HETATM   13  C7  UNK     1      19.995  -8.319  38.642  1.00  0.00    -0.062 A 
HETATM   14  C15 UNK     1      20.747  -7.290  39.209  1.00  0.00     0.007 A 
HETATM   15  C20 UNK     1      19.964  -9.662  39.289  1.00  0.00     0.048 C 
HETATM   16  C9  UNK     1      20.777  -6.033  38.603  1.00  0.00     0.014 A 
ENDBRANCH   8  10
ENDBRANCH   2   5
BRANCH   3  17
HETATM   17  C4  UNK     1      20.405  -1.554  31.804  1.00  0.00     0.108 A 
HETATM   18  C12 UNK     1      20.511  -2.247  30.500  1.00  0.00     0.304 A 
HETATM   19  O1  UNK     1      19.996  -1.577  29.393  1.00  0.00    -0.274 OA
HETATM   20  O3  UNK     1      21.024  -3.355  30.395  1.00  0.00    -0.259 OA
HETATM   21  C3  UNK     1      19.404  -0.304  29.503  1.00  0.00     0.089 A 
HETATM   22  C1  UNK     1      19.315   0.330  30.738  1.00  0.00    -0.001 A 
HETATM   23  C16 UNK     1      18.917   0.286  28.339  1.00  0.00     0.038 A 
HETATM   24  C5  UNK     1      19.843  -0.344  31.914  1.00  0.00     0.037 A 
HETATM   25  C10 UNK     1      18.722   1.592  30.807  1.00  0.00     0.014 A 
HETATM   26  C18 UNK     1      18.229   2.198  29.647  1.00  0.00     0.001 A 
HETATM   27  C19 UNK     1      18.326   1.546  28.417  1.00  0.00     0.003 A 
ENDBRANCH   3  17
TORSDOF 3
ENDMDL
MODEL 5
REMARK VINA RESULT:      -9.3      3.137      4.667
REMARK  3 active torsions:
REMARK  status: ('A' for Active; 'I' for Inactive)
REMARK       I    between atoms: C11_17  and  N1_5 
REMARK    1  A    between atoms: C13_19  and  N1_5 
REMARK    2  A    between atoms: C2_8  and  C6_12 
REMARK    3  A    between atoms: C11_17  and  C4_10 
ROOT
HETATM    1  O2  UNK     1      18.220  -1.500  35.770  1.00  0.00    -0.267 OA
HETATM    2  N1  UNK     1      19.845  -2.922  34.831  1.00  0.00    -0.301 N 
HETATM    3  C11 UNK     1      18.975  -1.840  34.862  1.00  0.00     0.263 C 
HETATM    4  H8  UNK     1      20.430  -3.073  34.013  1.00  0.00     0.171 HD
ENDROOT
BRANCH   2   5
HETATM    5  C13 UNK     1      20.060  -3.887  35.846  1.00  0.00     0.173 A 
HETATM    6  S1  UNK     1      20.617  -3.247  37.315  1.00  0.00    -0.061 SA
HETATM    7  C17 UNK     1      20.624  -4.848  37.931  1.00  0.00     0.085 A 
HETATM    8  C6  UNK     1      20.201  -5.722  36.952  1.00  0.00     0.076 A 
HETATM    9  N2  UNK     1      19.873  -5.154  35.737  1.00  0.00    -0.223 NA
BRANCH   8  10
HETATM   10  C2  UNK     1      20.103  -7.136  37.171  1.00  0.00    -0.007 A 
HETATM   11  C8  UNK     1      19.235  -7.634  38.144  1.00  0.00     0.014 A 
HETATM   12  C14 UNK     1      19.140  -9.009  38.357  1.00  0.00     0.007 A 
HETATM   13  C7  UNK     1      19.913  -9.888  37.599  1.00  0.00    -0.062 A 
HETATM   14  C15 UNK     1      20.781  -9.392  36.626  1.00  0.00     0.007 A 
HETATM   15  C20 UNK     1      19.811 -11.358  37.826  1.00  0.00     0.048 C 
HETATM   16  C9  UNK     1      20.876  -8.016  36.413  1.00  0.00     0.014 A 
ENDBRANCH   8  10
ENDBRANCH   2   5
BRANCH   3  17
HETATM   17  C4  UNK     1      19.024  -1.055  33.623  1.00  0.00     0.108 A 
HETATM   18  C12 UNK     1      18.468   0.315  33.539  1.00  0.00     0.304 A 
HETATM   19  O1  UNK     1      18.575   0.957  32.308  1.00  0.00    -0.274 OA
HETATM   20  O3  UNK     1      17.940   0.860  34.501  1.00  0.00    -0.259 OA
HETATM   21  C3  UNK     1      19.180   0.339  31.197  1.00  0.00     0.089 A 
HETATM   22  C1  UNK     1      19.695  -0.949  31.297  1.00  0.00    -0.001 A 
HETATM   23  C16 UNK     1      19.241   1.062  30.007  1.00  0.00     0.038 A 
HETATM   24  C5  UNK     1      19.600  -1.647  32.570  1.00  0.00     0.037 A 
HETATM   25  C10 UNK     1      20.287  -1.528  30.173  1.00  0.00     0.014 A 
HETATM   26  C18 UNK     1      20.355  -0.815  28.972  1.00  0.00     0.001 A 
HETATM   27  C19 UNK     1      19.833   0.478  28.890  1.00  0.00     0.003 A 
ENDBRANCH   3  17
TORSDOF 3
ENDMDL
MODEL 6
REMARK VINA RESULT:      -9.3      7.352     10.237
REMARK  3 active torsions:
REMARK  status: ('A' for Active; 'I' for Inactive)
REMARK       I    between atoms: C11_17  and  N1_5 
REMARK    1  A    between atoms: C13_19  and  N1_5 
REMARK    2  A    between atoms: C2_8  and  C6_12 
REMARK    3  A    between atoms: C11_17  and  C4_10 
ROOT
HETATM    1  O2  UNK     1      19.862   5.544  30.021  1.00  0.00    -0.267 OA
HETATM    2  N1  UNK     1      18.450   4.131  31.268  1.00  0.00    -0.301 N 
HETATM    3  C11 UNK     1      19.043   5.335  30.915  1.00  0.00     0.263 C 
HETATM    4  H8  UNK     1      17.769   4.110  32.023  1.00  0.00     0.171 HD
ENDROOT
BRANCH   2   5
HETATM    5  C13 UNK     1      18.654   2.861  30.676  1.00  0.00     0.173 A 
HETATM    6  S1  UNK     1      18.067   2.723  29.090  1.00  0.00    -0.061 SA
HETATM    7  C17 UNK     1      18.633   1.104  29.094  1.00  0.00     0.085 A 
HETATM    8  C6  UNK     1      19.216   0.820  30.311  1.00  0.00     0.076 A 
HETATM    9  N2  UNK     1      19.226   1.851  31.230  1.00  0.00    -0.223 NA
BRANCH   8  10
HETATM   10  C2  UNK     1      19.783  -0.462  30.614  1.00  0.00    -0.007 A 
HETATM   11  C8  UNK     1      19.801  -0.924  31.930  1.00  0.00     0.014 A 
HETATM   12  C14 UNK     1      20.353  -2.170  32.225  1.00  0.00     0.007 A 
HETATM   13  C7  UNK     1      20.888  -2.956  31.205  1.00  0.00    -0.062 A 
HETATM   14  C15 UNK     1      20.870  -2.496  29.888  1.00  0.00     0.007 A 
HETATM   15  C20 UNK     1      21.477  -4.289  31.520  1.00  0.00     0.048 C 
HETATM   16  C9  UNK     1      20.318  -1.248  29.593  1.00  0.00     0.014 A 
ENDBRANCH   8  10
ENDBRANCH   2   5
BRANCH   3  17
HETATM   17  C4  UNK     1      18.584   6.447  31.756  1.00  0.00     0.108 A 
HETATM   18  C12 UNK     1      19.424   7.013  32.837  1.00  0.00     0.304 A 
HETATM   19  O1  UNK     1      18.877   8.066  33.566  1.00  0.00    -0.274 OA
HETATM   20  O3  UNK     1      20.544   6.580  33.081  1.00  0.00    -0.259 OA
HETATM   21  C3  UNK     1      17.591   8.570  33.293  1.00  0.00     0.089 A 
HETATM   22  C1  UNK     1      16.818   8.024  32.273  1.00  0.00    -0.001 A 
HETATM   23  C16 UNK     1      17.130   9.626  34.076  1.00  0.00     0.038 A 
HETATM   24  C5  UNK     1      17.361   6.923  31.492  1.00  0.00     0.037 A 
HETATM   25  C10 UNK     1      15.548   8.551  32.033  1.00  0.00     0.014 A 
HETATM   26  C18 UNK     1      15.071   9.611  32.811  1.00  0.00     0.001 A 
HETATM   27  C19 UNK     1      15.861  10.146  33.830  1.00  0.00     0.003 A 
ENDBRANCH   3  17
TORSDOF 3
ENDMDL
MODEL 7
REMARK VINA RESULT:      -9.3      3.229      9.409
REMARK  3 active torsions:
REMARK  status: ('A' for Active; 'I' for Inactive)
REMARK       I    between atoms: C11_17  and  N1_5 
REMARK    1  A    between atoms: C13_19  and  N1_5 
REMARK    2  A    between atoms: C2_8  and  C6_12 
REMARK    3  A    between atoms: C11_17  and  C4_10 
ROOT
HETATM    1  O2  UNK     1      20.456  -3.819  35.078  1.00  0.00    -0.267 OA
HETATM    2  N1  UNK     1      18.899  -3.004  36.645  1.00  0.00    -0.301 N 
HETATM    3  C11 UNK     1      19.785  -3.925  36.102  1.00  0.00     0.263 C 
HETATM    4  H8  UNK     1      18.422  -3.220  37.518  1.00  0.00     0.171 HD
ENDROOT
BRANCH   2   5
HETATM    5  C13 UNK     1      18.564  -1.725  36.138  1.00  0.00     0.173 A 
HETATM    6  S1  UNK     1      17.775  -0.713  37.248  1.00  0.00    -0.061 SA
HETATM    7  C17 UNK     1      17.725   0.482  36.020  1.00  0.00     0.085 A 
HETATM    8  C6  UNK     1      18.315  -0.006  34.874  1.00  0.00     0.076 A 
HETATM    9  N2  UNK     1      18.804  -1.295  34.949  1.00  0.00    -0.223 NA
BRANCH   8  10
HETATM   10  C2  UNK     1      18.423   0.768  33.671  1.00  0.00    -0.007 A 
HETATM   11  C8  UNK     1      18.073   2.119  33.676  1.00  0.00     0.014 A 
HETATM   12  C14 UNK     1      18.177   2.872  32.507  1.00  0.00     0.007 A 
HETATM   13  C7  UNK     1      18.630   2.275  31.331  1.00  0.00    -0.062 A 
HETATM   14  C15 UNK     1      18.980   0.925  31.324  1.00  0.00     0.007 A 
HETATM   15  C20 UNK     1      18.742   3.079  30.081  1.00  0.00     0.048 C 
HETATM   16  C9  UNK     1      18.876   0.171  32.494  1.00  0.00     0.014 A 
ENDBRANCH   8  10
ENDBRANCH   2   5
BRANCH   3  17
HETATM   17  C4  UNK     1      19.877  -5.147  36.910  1.00  0.00     0.108 A 
HETATM   18  C12 UNK     1      18.742  -6.089  37.041  1.00  0.00     0.304 A 
HETATM   19  O1  UNK     1      18.953  -7.214  37.835  1.00  0.00    -0.274 OA
HETATM   20  O3  UNK     1      17.670  -5.895  36.480  1.00  0.00    -0.259 OA
HETATM   21  C3  UNK     1      20.181  -7.446  38.484  1.00  0.00     0.089 A 
HETATM   22  C1  UNK     1      21.234  -6.548  38.348  1.00  0.00    -0.001 A 
HETATM   23  C16 UNK     1      20.296  -8.600  39.257  1.00  0.00     0.038 A 
HETATM   24  C5  UNK     1      21.046  -5.363  37.525  1.00  0.00     0.037 A 
HETATM   25  C10 UNK     1      22.436  -6.813  39.007  1.00  0.00     0.014 A 
HETATM   26  C18 UNK     1      22.567  -7.966  39.787  1.00  0.00     0.001 A 
HETATM   27  C19 UNK     1      21.499  -8.857  39.911  1.00  0.00     0.003 A 
ENDBRANCH   3  17
TORSDOF 3
ENDMDL
MODEL 8
REMARK VINA RESULT:      -9.3      7.965     14.228
REMARK  3 active torsions:
REMARK  status: ('A' for Active; 'I' for Inactive)
REMARK       I    between atoms: C11_17  and  N1_5 
REMARK    1  A    between atoms: C13_19  and  N1_5 
REMARK    2  A    between atoms: C2_8  and  C6_12 
REMARK    3  A    between atoms: C11_17  and  C4_10 
ROOT
HETATM    1  O2  UNK     1      17.157   4.123  31.129  1.00  0.00    -0.267 OA
HETATM    2  N1  UNK     1      18.698   4.461  32.878  1.00  0.00    -0.301 N 
HETATM    3  C11 UNK     1      18.030   3.733  31.902  1.00  0.00     0.263 C 
HETATM    4  H8  UNK     1      19.418   4.009  33.436  1.00  0.00     0.171 HD
ENDROOT
BRANCH   2   5
HETATM    5  C13 UNK     1      18.521   5.826  33.209  1.00  0.00     0.173 A 
HETATM    6  S1  UNK     1      19.965   6.707  33.348  1.00  0.00    -0.061 SA
HETATM    7  C17 UNK     1      19.010   8.083  33.717  1.00  0.00     0.085 A 
HETATM    8  C6  UNK     1      17.675   7.738  33.702  1.00  0.00     0.076 A 
HETATM    9  N2  UNK     1      17.397   6.419  33.403  1.00  0.00    -0.223 NA
BRANCH   8  10
HETATM   10  C2  UNK     1      16.631   8.683  33.975  1.00  0.00    -0.007 A 
HETATM   11  C8  UNK     1      16.942  10.027  34.186  1.00  0.00     0.014 A 
HETATM   12  C14 UNK     1      15.927  10.945  34.452  1.00  0.00     0.007 A 
HETATM   13  C7  UNK     1      14.600  10.522  34.508  1.00  0.00    -0.062 A 
HETATM   14  C15 UNK     1      14.287   9.179  34.297  1.00  0.00     0.007 A 
HETATM   15  C20 UNK     1      13.514  11.503  34.791  1.00  0.00     0.048 C 
HETATM   16  C9  UNK     1      15.303   8.259  34.030  1.00  0.00     0.014 A 
ENDBRANCH   8  10
ENDBRANCH   2   5
BRANCH   3  17
HETATM   17  C4  UNK     1      18.481   2.338  31.847  1.00  0.00     0.108 A 
HETATM   18  C12 UNK     1      18.360   1.426  33.007  1.00  0.00     0.304 A 
HETATM   19  O1  UNK     1      18.823   0.125  32.831  1.00  0.00    -0.274 OA
HETATM   20  O3  UNK     1      17.876   1.793  34.072  1.00  0.00    -0.259 OA
HETATM   21  C3  UNK     1      19.381  -0.307  31.612  1.00  0.00     0.089 A 
HETATM   22  C1  UNK     1      19.487   0.566  30.534  1.00  0.00    -0.001 A 
HETATM   23  C16 UNK     1      19.817  -1.628  31.531  1.00  0.00     0.038 A 
HETATM   24  C5  UNK     1      19.010   1.932  30.686  1.00  0.00     0.037 A 
HETATM   25  C10 UNK     1      20.046   0.101  29.342  1.00  0.00     0.014 A 
HETATM   26  C18 UNK     1      20.488  -1.223  29.246  1.00  0.00     0.001 A 
HETATM   27  C19 UNK     1      20.373  -2.084  30.339  1.00  0.00     0.003 A 
ENDBRANCH   3  17
TORSDOF 3
ENDMDL
MODEL 9
REMARK VINA RESULT:      -9.2      2.681      9.576
REMARK  3 active torsions:
REMARK  status: ('A' for Active; 'I' for Inactive)
REMARK       I    between atoms: C11_17  and  N1_5 
REMARK    1  A    between atoms: C13_19  and  N1_5 
REMARK    2  A    between atoms: C2_8  and  C6_12 
REMARK    3  A    between atoms: C11_17  and  C4_10 
ROOT
HETATM    1  O2  UNK     1      21.288  -3.537  36.852  1.00  0.00    -0.267 OA
HETATM    2  N1  UNK     1      18.950  -3.513  36.574  1.00  0.00    -0.301 N 
HETATM    3  C11 UNK     1      20.200  -4.096  36.735  1.00  0.00     0.263 C 
HETATM    4  H8  UNK     1      18.125  -4.104  36.510  1.00  0.00     0.171 HD
ENDROOT
BRANCH   2   5
HETATM    5  C13 UNK     1      18.644  -2.132  36.506  1.00  0.00     0.173 A 
HETATM    6  S1  UNK     1      18.116  -1.457  37.970  1.00  0.00    -0.061 SA
HETATM    7  C17 UNK     1      17.973   0.042  37.149  1.00  0.00     0.085 A 
HETATM    8  C6  UNK     1      18.341  -0.116  35.830  1.00  0.00     0.076 A 
HETATM    9  N2  UNK     1      18.732  -1.388  35.461  1.00  0.00    -0.223 NA
BRANCH   8  10
HETATM   10  C2  UNK     1      18.324   0.967  34.890  1.00  0.00    -0.007 A 
HETATM   11  C8  UNK     1      18.296   0.703  33.520  1.00  0.00     0.014 A 
HETATM   12  C14 UNK     1      18.280   1.755  32.605  1.00  0.00     0.007 A 
HETATM   13  C7  UNK     1      18.292   3.074  33.059  1.00  0.00    -0.062 A 
HETATM   14  C15 UNK     1      18.320   3.340  34.428  1.00  0.00     0.007 A 
HETATM   15  C20 UNK     1      18.274   4.200  32.082  1.00  0.00     0.048 C 
HETATM   16  C9  UNK     1      18.336   2.287  35.343  1.00  0.00     0.014 A 
ENDBRANCH   8  10
ENDBRANCH   2   5
BRANCH   3  17
HETATM   17  C4  UNK     1      20.128  -5.561  36.762  1.00  0.00     0.108 A 
HETATM   18  C12 UNK     1      20.140  -6.371  35.523  1.00  0.00     0.304 A 
HETATM   19  O1  UNK     1      20.066  -7.753  35.679  1.00  0.00    -0.274 OA
HETATM   20  O3  UNK     1      20.211  -5.856  34.413  1.00  0.00    -0.259 OA
HETATM   21  C3  UNK     1      19.984  -8.355  36.949  1.00  0.00     0.089 A 
HETATM   22  C1  UNK     1      19.973  -7.575  38.101  1.00  0.00    -0.001 A 
HETATM   23  C16 UNK     1      19.915  -9.745  37.004  1.00  0.00     0.038 A 
HETATM   24  C5  UNK     1      20.050  -6.128  37.972  1.00  0.00     0.037 A 
HETATM   25  C10 UNK     1      19.890  -8.208  39.343  1.00  0.00     0.014 A 
HETATM   26  C18 UNK     1      19.820  -9.603  39.414  1.00  0.00     0.001 A 
HETATM   27  C19 UNK     1      19.833 -10.369  38.247  1.00  0.00     0.003 A 
ENDBRANCH   3  17
TORSDOF 3
ENDMDL
MODEL 10
REMARK VINA RESULT:      -9.1      2.511      3.741
REMARK  3 active torsions:
REMARK  status: ('A' for Active; 'I' for Inactive)
REMARK       I    between atoms: C11_17  and  N1_5 
REMARK    1  A    between atoms: C13_19  and  N1_5 
REMARK    2  A    between atoms: C2_8  and  C6_12 
REMARK    3  A    between atoms: C11_17  and  C4_10 
ROOT
HETATM    1  O2  UNK     1      17.534  -1.372  35.775  1.00  0.00    -0.267 OA
HETATM    2  N1  UNK     1      19.604  -2.105  34.923  1.00  0.00    -0.301 N 
HETATM    3  C11 UNK     1      18.478  -1.295  34.991  1.00  0.00     0.263 C 
HETATM    4  H8  UNK     1      20.321  -1.911  34.228  1.00  0.00     0.171 HD
ENDROOT
BRANCH   2   5
HETATM    5  C13 UNK     1      19.921  -3.212  35.747  1.00  0.00     0.173 A 
HETATM    6  S1  UNK     1      19.895  -2.879  37.411  1.00  0.00    -0.061 SA
HETATM    7  C17 UNK     1      20.329  -4.517  37.676  1.00  0.00     0.085 A 
HETATM    8  C6  UNK     1      20.456  -5.165  36.466  1.00  0.00     0.076 A 
HETATM    9  N2  UNK     1      20.216  -4.397  35.343  1.00  0.00    -0.223 NA
BRANCH   8  10
HETATM   10  C2  UNK     1      20.813  -6.550  36.366  1.00  0.00    -0.007 A 
HETATM   11  C8  UNK     1      21.426  -7.193  37.442  1.00  0.00     0.014 A 
HETATM   12  C14 UNK     1      21.773  -8.540  37.344  1.00  0.00     0.007 A 
HETATM   13  C7  UNK     1      21.510  -9.246  36.171  1.00  0.00    -0.062 A 
HETATM   14  C15 UNK     1      20.899  -8.604  35.094  1.00  0.00     0.007 A 
HETATM   15  C20 UNK     1      21.881 -10.686  36.066  1.00  0.00     0.048 C 
HETATM   16  C9  UNK     1      20.550  -7.256  35.191  1.00  0.00     0.014 A 
ENDBRANCH   8  10
ENDBRANCH   2   5
BRANCH   3  17
HETATM   17  C4  UNK     1      18.493  -0.241  33.970  1.00  0.00     0.108 A 
HETATM   18  C12 UNK     1      18.696  -0.541  32.534  1.00  0.00     0.304 A 
HETATM   19  O1  UNK     1      18.689   0.545  31.662  1.00  0.00    -0.274 OA
HETATM   20  O3  UNK     1      18.861  -1.685  32.128  1.00  0.00    -0.259 OA
HETATM   21  C3  UNK     1      18.499   1.864  32.118  1.00  0.00     0.089 A 
HETATM   22  C1  UNK     1      18.311   2.124  33.472  1.00  0.00    -0.001 A 
HETATM   23  C16 UNK     1      18.508   2.885  31.170  1.00  0.00     0.038 A 
HETATM   24  C5  UNK     1      18.312   1.011  34.408  1.00  0.00     0.037 A 
HETATM   25  C10 UNK     1      18.126   3.445  33.885  1.00  0.00     0.014 A 
HETATM   26  C18 UNK     1      18.133   4.480  32.945  1.00  0.00     0.001 A 
HETATM   27  C19 UNK     1      18.323   4.199  31.591  1.00  0.00     0.003 A 
ENDBRANCH   3  17
TORSDOF 3
ENDMDL
