MODEL 1
REMARK VINA RESULT:      -8.0      0.000      0.000
REMARK  4 active torsions:
REMARK  status: ('A' for Active; 'I' for Inactive)
REMARK    1  A    between atoms: C2_6  and  N1_4 
REMARK    2  A    between atoms: C4_8  and  N1_4 
REMARK    3  A    between atoms: C1_5  and  C2_6 
REMARK    4  A    between atoms: C1_5  and  C3_7 
ROOT
HETATM    1  O1  UNK     1      20.005  -2.650  35.081  1.00  0.00    -0.274 OA
HETATM    2  O2  UNK     1      17.881   0.331  33.221  1.00  0.00    -0.286 OA
HETATM    3  O3  UNK     1      20.999  -3.280  33.126  1.00  0.00    -0.259 OA
HETATM    4  C4  UNK     1      19.614  -1.286  31.732  1.00  0.00     0.021 C 
HETATM    5  C5  UNK     1      19.455  -1.458  33.053  1.00  0.00     0.112 A 
HETATM    6  C6  UNK     1      18.394  -0.805  35.211  1.00  0.00     0.049 A 
HETATM    7  C7  UNK     1      18.519  -0.559  33.769  1.00  0.00     0.203 A 
HETATM    8  C9  UNK     1      19.128  -1.822  35.807  1.00  0.00     0.093 A 
HETATM    9  C10 UNK     1      20.550  -2.168  30.952  1.00  0.00     0.069 C 
HETATM   10  C11 UNK     1      20.223  -2.535  33.713  1.00  0.00     0.304 A 
HETATM   11  C12 UNK     1      17.541  -0.021  35.993  1.00  0.00     0.018 A 
HETATM   12  C13 UNK     1      19.024  -2.075  37.176  1.00  0.00     0.038 A 
HETATM   13  C14 UNK     1      17.433  -0.268  37.363  1.00  0.00     0.001 A 
HETATM   14  C15 UNK     1      18.173  -1.292  37.954  1.00  0.00     0.003 A 
ENDROOT
BRANCH   4  15
HETATM   15  N1  UNK     1      18.958  -0.327  31.011  1.00  0.00    -0.393 N 
HETATM   16  H7  UNK     1      17.947  -0.296  31.059  1.00  0.00     0.159 HD
BRANCH  15  17
HETATM   17  C2  UNK     1      19.622   0.568  30.102  1.00  0.00     0.119 C 
BRANCH  17  18
HETATM   18  C1  UNK     1      18.802   0.752  28.828  1.00  0.00     0.019 C 
BRANCH  18  19
HETATM   19  C3  UNK     1      17.964   2.033  28.845  1.00  0.00    -0.003 C 
HETATM   20  C8  UNK     1      18.529   3.053  29.821  1.00  0.00     0.005 C 
ENDBRANCH  18  19
ENDBRANCH  17  18
ENDBRANCH  15  17
ENDBRANCH   4  15
TORSDOF 4
ENDMDL
MODEL 2
REMARK VINA RESULT:      -7.7      2.701      5.403
REMARK  4 active torsions:
REMARK  status: ('A' for Active; 'I' for Inactive)
REMARK    1  A    between atoms: C2_6  and  N1_4 
REMARK    2  A    between atoms: C4_8  and  N1_4 
REMARK    3  A    between atoms: C1_5  and  C2_6 
REMARK    4  A    between atoms: C1_5  and  C3_7 
ROOT
HETATM    1  O1  UNK     1      19.369  -0.926  32.771  1.00  0.00    -0.274 OA
HETATM    2  O2  UNK     1      18.738   2.574  30.720  1.00  0.00    -0.286 OA
HETATM    3  O3  UNK     1      18.632  -0.013  34.727  1.00  0.00    -0.259 OA
HETATM    4  C4  UNK     1      18.155   2.433  33.454  1.00  0.00     0.021 C 
HETATM    5  C5  UNK     1      18.640   1.377  32.785  1.00  0.00     0.112 A 
HETATM    6  C6  UNK     1      19.451   0.338  30.671  1.00  0.00     0.049 A 
HETATM    7  C7  UNK     1      18.922   1.533  31.338  1.00  0.00     0.203 A 
HETATM    8  C9  UNK     1      19.653  -0.830  31.395  1.00  0.00     0.093 A 
HETATM    9  C10 UNK     1      17.849   2.335  34.923  1.00  0.00     0.069 C 
HETATM   10  C11 UNK     1      18.864   0.122  33.532  1.00  0.00     0.304 A 
HETATM   11  C12 UNK     1      19.756   0.364  29.306  1.00  0.00     0.018 A 
HETATM   12  C13 UNK     1      20.156  -1.978  30.782  1.00  0.00     0.038 A 
HETATM   13  C14 UNK     1      20.260  -0.782  28.686  1.00  0.00     0.001 A 
HETATM   14  C15 UNK     1      20.459  -1.950  29.422  1.00  0.00     0.003 A 
ENDROOT
BRANCH   4  15
HETATM   15  N1  UNK     1      17.906   3.647  32.873  1.00  0.00    -0.393 N 
HETATM   16  H7  UNK     1      17.402   3.665  31.996  1.00  0.00     0.159 HD
BRANCH  15  17
HETATM   17  C2  UNK     1      18.422   4.887  33.386  1.00  0.00     0.119 C 
BRANCH  17  18
HETATM   18  C1  UNK     1      18.528   5.930  32.277  1.00  0.00     0.019 C 
BRANCH  18  19
HETATM   19  C3  UNK     1      19.916   5.968  31.633  1.00  0.00    -0.003 C 
HETATM   20  C8  UNK     1      19.827   5.901  30.117  1.00  0.00     0.005 C 
ENDBRANCH  18  19
ENDBRANCH  17  18
ENDBRANCH  15  17
ENDBRANCH   4  15
TORSDOF 4
ENDMDL
MODEL 3
REMARK VINA RESULT:      -7.6      3.355      5.912
REMARK  4 active torsions:
REMARK  status: ('A' for Active; 'I' for Inactive)
REMARK    1  A    between atoms: C2_6  and  N1_4 
REMARK    2  A    between atoms: C4_8  and  N1_4 
REMARK    3  A    between atoms: C1_5  and  C2_6 
REMARK    4  A    between atoms: C1_5  and  C3_7 
ROOT
HETATM    1  O1  UNK     1      19.023   0.341  32.747  1.00  0.00    -0.274 OA
HETATM    2  O2  UNK     1      18.885   2.981  29.606  1.00  0.00    -0.286 OA
HETATM    3  O3  UNK     1      18.310   1.927  34.224  1.00  0.00    -0.259 OA
HETATM    4  C4  UNK     1      18.170   3.830  32.176  1.00  0.00     0.021 C 
HETATM    5  C5  UNK     1      18.561   2.569  31.937  1.00  0.00     0.112 A 
HETATM    6  C6  UNK     1      19.341   0.805  30.360  1.00  0.00     0.049 A 
HETATM    7  C7  UNK     1      18.922   2.199  30.548  1.00  0.00     0.203 A 
HETATM    8  C9  UNK     1      19.376  -0.062  31.445  1.00  0.00     0.093 A 
HETATM    9  C10 UNK     1      17.791   4.264  33.564  1.00  0.00     0.069 C 
HETATM   10  C11 UNK     1      18.608   1.626  33.074  1.00  0.00     0.304 A 
HETATM   11  C12 UNK     1      19.706   0.338  29.093  1.00  0.00     0.018 A 
HETATM   12  C13 UNK     1      19.772  -1.391  31.290  1.00  0.00     0.038 A 
HETATM   13  C14 UNK     1      20.103  -0.992  28.932  1.00  0.00     0.001 A 
HETATM   14  C15 UNK     1      20.136  -1.854  30.027  1.00  0.00     0.003 A 
ENDROOT
BRANCH   4  15
HETATM   15  N1  UNK     1      18.087   4.792  31.207  1.00  0.00    -0.393 N 
HETATM   16  H7  UNK     1      17.624   4.559  30.337  1.00  0.00     0.159 HD
BRANCH  15  17
HETATM   17  C2  UNK     1      18.720   6.078  31.316  1.00  0.00     0.119 C 
BRANCH  17  18
HETATM   18  C1  UNK     1      20.238   5.942  31.248  1.00  0.00     0.019 C 
BRANCH  18  19
HETATM   19  C3  UNK     1      20.927   6.361  32.548  1.00  0.00    -0.003 C 
HETATM   20  C8  UNK     1      20.000   7.187  33.427  1.00  0.00     0.005 C 
ENDBRANCH  18  19
ENDBRANCH  17  18
ENDBRANCH  15  17
ENDBRANCH   4  15
TORSDOF 4
ENDMDL
MODEL 4
REMARK VINA RESULT:      -7.5      1.933      3.832
REMARK  4 active torsions:
REMARK  status: ('A' for Active; 'I' for Inactive)
REMARK    1  A    between atoms: C2_6  and  N1_4 
REMARK    2  A    between atoms: C4_8  and  N1_4 
REMARK    3  A    between atoms: C1_5  and  C2_6 
REMARK    4  A    between atoms: C1_5  and  C3_7 
ROOT
HETATM    1  O1  UNK     1      18.120   2.791  35.247  1.00  0.00    -0.274 OA
HETATM    2  O2  UNK     1      18.335  -0.461  32.750  1.00  0.00    -0.286 OA
HETATM    3  O3  UNK     1      18.295   4.250  33.502  1.00  0.00    -0.259 OA
HETATM    4  C4  UNK     1      18.452   2.126  31.687  1.00  0.00     0.021 C 
HETATM    5  C5  UNK     1      18.326   1.914  33.005  1.00  0.00     0.112 A 
HETATM    6  C6  UNK     1      18.132   0.358  34.941  1.00  0.00     0.049 A 
HETATM    7  C7  UNK     1      18.270   0.514  33.489  1.00  0.00     0.203 A 
HETATM    8  C9  UNK     1      18.063   1.480  35.756  1.00  0.00     0.093 A 
HETATM    9  C10 UNK     1      18.513   3.524  31.138  1.00  0.00     0.069 C 
HETATM   10  C11 UNK     1      18.250   3.092  33.896  1.00  0.00     0.304 A 
HETATM   11  C12 UNK     1      18.069  -0.916  35.515  1.00  0.00     0.018 A 
HETATM   12  C13 UNK     1      17.932   1.355  37.140  1.00  0.00     0.038 A 
HETATM   13  C14 UNK     1      17.939  -1.048  36.899  1.00  0.00     0.001 A 
HETATM   14  C15 UNK     1      17.870   0.085  37.711  1.00  0.00     0.003 A 
ENDROOT
BRANCH   4  15
HETATM   15  N1  UNK     1      18.533   1.119  30.764  1.00  0.00    -0.393 N 
HETATM   16  H7  UNK     1      18.309   0.177  31.060  1.00  0.00     0.159 HD
BRANCH  15  17
HETATM   17  C2  UNK     1      19.026   1.311  29.427  1.00  0.00     0.119 C 
BRANCH  17  18
HETATM   18  C1  UNK     1      19.775   0.073  28.943  1.00  0.00     0.019 C 
BRANCH  18  19
HETATM   19  C3  UNK     1      20.619  -0.574  30.044  1.00  0.00    -0.003 C 
HETATM   20  C8  UNK     1      20.467  -2.087  30.042  1.00  0.00     0.005 C 
ENDBRANCH  18  19
ENDBRANCH  17  18
ENDBRANCH  15  17
ENDBRANCH   4  15
TORSDOF 4
ENDMDL
MODEL 5
REMARK VINA RESULT:      -7.5      0.896      1.102
REMARK  4 active torsions:
REMARK  status: ('A' for Active; 'I' for Inactive)
REMARK    1  A    between atoms: C2_6  and  N1_4 
REMARK    2  A    between atoms: C4_8  and  N1_4 
REMARK    3  A    between atoms: C1_5  and  C2_6 
REMARK    4  A    between atoms: C1_5  and  C3_7 
ROOT
HETATM    1  O1  UNK     1      19.554  -2.071  34.923  1.00  0.00    -0.274 OA
HETATM    2  O2  UNK     1      17.614   1.173  33.322  1.00  0.00    -0.286 OA
HETATM    3  O3  UNK     1      20.501  -2.603  32.918  1.00  0.00    -0.259 OA
HETATM    4  C4  UNK     1      19.239  -0.424  31.696  1.00  0.00     0.021 C 
HETATM    5  C5  UNK     1      19.073  -0.690  33.000  1.00  0.00     0.112 A 
HETATM    6  C6  UNK     1      18.062  -0.146  35.211  1.00  0.00     0.049 A 
HETATM    7  C7  UNK     1      18.197   0.205  33.793  1.00  0.00     0.203 A 
HETATM    8  C9  UNK     1      18.732  -1.251  35.720  1.00  0.00     0.093 A 
HETATM    9  C10 UNK     1      20.116  -1.297  30.842  1.00  0.00     0.069 C 
HETATM   10  C11 UNK     1      19.776  -1.861  33.567  1.00  0.00     0.304 A 
HETATM   11  C12 UNK     1      17.261   0.625  36.060  1.00  0.00     0.018 A 
HETATM   12  C13 UNK     1      18.617  -1.604  37.065  1.00  0.00     0.038 A 
HETATM   13  C14 UNK     1      17.142   0.276  37.407  1.00  0.00     0.001 A 
HETATM   14  C15 UNK     1      17.818  -0.835  37.909  1.00  0.00     0.003 A 
ENDROOT
BRANCH   4  15
HETATM   15  N1  UNK     1      18.642   0.628  31.058  1.00  0.00    -0.393 N 
HETATM   16  H7  UNK     1      17.889   1.112  31.531  1.00  0.00     0.159 HD
BRANCH  15  17
HETATM   17  C2  UNK     1      18.953   1.011  29.707  1.00  0.00     0.119 C 
BRANCH  17  18
HETATM   18  C1  UNK     1      18.561   2.464  29.452  1.00  0.00     0.019 C 
BRANCH  18  19
HETATM   19  C3  UNK     1      18.668   3.333  30.707  1.00  0.00    -0.003 C 
HETATM   20  C8  UNK     1      19.164   4.731  30.374  1.00  0.00     0.005 C 
ENDBRANCH  18  19
ENDBRANCH  17  18
ENDBRANCH  15  17
ENDBRANCH   4  15
TORSDOF 4
ENDMDL
MODEL 6
REMARK VINA RESULT:      -7.4      1.601      5.757
REMARK  4 active torsions:
REMARK  status: ('A' for Active; 'I' for Inactive)
REMARK    1  A    between atoms: C2_6  and  N1_4 
REMARK    2  A    between atoms: C4_8  and  N1_4 
REMARK    3  A    between atoms: C1_5  and  C2_6 
REMARK    4  A    between atoms: C1_5  and  C3_7 
ROOT
HETATM    1  O1  UNK     1      20.672  -2.419  31.803  1.00  0.00    -0.274 OA
HETATM    2  O2  UNK     1      18.269   0.640  33.115  1.00  0.00    -0.286 OA
HETATM    3  O3  UNK     1      20.718  -3.384  33.869  1.00  0.00    -0.259 OA
HETATM    4  C4  UNK     1      19.081  -1.359  34.897  1.00  0.00     0.021 C 
HETATM    5  C5  UNK     1      19.458  -1.371  33.610  1.00  0.00     0.112 A 
HETATM    6  C6  UNK     1      19.436  -0.353  31.336  1.00  0.00     0.049 A 
HETATM    7  C7  UNK     1      18.984  -0.276  32.730  1.00  0.00     0.203 A 
HETATM    8  C9  UNK     1      20.249  -1.402  30.927  1.00  0.00     0.093 A 
HETATM    9  C10 UNK     1      19.530  -2.444  35.837  1.00  0.00     0.069 C 
HETATM   10  C11 UNK     1      20.324  -2.477  33.148  1.00  0.00     0.304 A 
HETATM   11  C12 UNK     1      19.054   0.625  30.412  1.00  0.00     0.018 A 
HETATM   12  C13 UNK     1      20.691  -1.494  29.606  1.00  0.00     0.038 A 
HETATM   13  C14 UNK     1      19.493   0.538  29.089  1.00  0.00     0.001 A 
HETATM   14  C15 UNK     1      20.309  -0.519  28.686  1.00  0.00     0.003 A 
ENDROOT
BRANCH   4  15
HETATM   15  N1  UNK     1      18.283  -0.391  35.442  1.00  0.00    -0.393 N 
HETATM   16  H7  UNK     1      18.499   0.577  35.243  1.00  0.00     0.159 HD
BRANCH  15  17
HETATM   17  C2  UNK     1      17.223  -0.673  36.372  1.00  0.00     0.119 C 
BRANCH  17  18
HETATM   18  C1  UNK     1      16.215   0.472  36.408  1.00  0.00     0.019 C 
BRANCH  18  19
HETATM   19  C3  UNK     1      16.700   1.658  37.245  1.00  0.00    -0.003 C 
HETATM   20  C8  UNK     1      17.653   1.211  38.343  1.00  0.00     0.005 C 
ENDBRANCH  18  19
ENDBRANCH  17  18
ENDBRANCH  15  17
ENDBRANCH   4  15
TORSDOF 4
ENDMDL
MODEL 7
REMARK VINA RESULT:      -7.4      2.607      5.473
REMARK  4 active torsions:
REMARK  status: ('A' for Active; 'I' for Inactive)
REMARK    1  A    between atoms: C2_6  and  N1_4 
REMARK    2  A    between atoms: C4_8  and  N1_4 
REMARK    3  A    between atoms: C1_5  and  C2_6 
REMARK    4  A    between atoms: C1_5  and  C3_7 
ROOT
HETATM    1  O1  UNK     1      18.360   3.491  34.764  1.00  0.00    -0.274 OA
HETATM    2  O2  UNK     1      18.408   1.573  31.135  1.00  0.00    -0.286 OA
HETATM    3  O3  UNK     1      18.332   1.516  35.905  1.00  0.00    -0.259 OA
HETATM    4  C4  UNK     1      18.363   0.080  33.502  1.00  0.00     0.021 C 
HETATM    5  C5  UNK     1      18.370   1.421  33.518  1.00  0.00     0.112 A 
HETATM    6  C6  UNK     1      18.401   3.603  32.314  1.00  0.00     0.049 A 
HETATM    7  C7  UNK     1      18.395   2.138  32.221  1.00  0.00     0.203 A 
HETATM    8  C9  UNK     1      18.384   4.219  33.559  1.00  0.00     0.093 A 
HETATM    9  C10 UNK     1      18.339  -0.701  34.786  1.00  0.00     0.069 C 
HETATM   10  C11 UNK     1      18.352   2.103  34.830  1.00  0.00     0.304 A 
HETATM   11  C12 UNK     1      18.424   4.387  31.157  1.00  0.00     0.018 A 
HETATM   12  C13 UNK     1      18.388   5.610  33.672  1.00  0.00     0.038 A 
HETATM   13  C14 UNK     1      18.428   5.780  31.263  1.00  0.00     0.001 A 
HETATM   14  C15 UNK     1      18.410   6.391  32.517  1.00  0.00     0.003 A 
ENDROOT
BRANCH   4  15
HETATM   15  N1  UNK     1      18.378  -0.662  32.353  1.00  0.00    -0.393 N 
HETATM   16  H7  UNK     1      17.625  -0.533  31.688  1.00  0.00     0.159 HD
BRANCH  15  17
HETATM   17  C2  UNK     1      19.345  -1.694  32.092  1.00  0.00     0.119 C 
BRANCH  17  18
HETATM   18  C1  UNK     1      20.461  -1.174  31.191  1.00  0.00     0.019 C 
BRANCH  18  19
HETATM   19  C3  UNK     1      20.384  -1.739  29.770  1.00  0.00    -0.003 C 
HETATM   20  C8  UNK     1      20.211  -0.632  28.741  1.00  0.00     0.005 C 
ENDBRANCH  18  19
ENDBRANCH  17  18
ENDBRANCH  15  17
ENDBRANCH   4  15
TORSDOF 4
ENDMDL
MODEL 8
REMARK VINA RESULT:      -7.4      1.828      6.732
REMARK  4 active torsions:
REMARK  status: ('A' for Active; 'I' for Inactive)
REMARK    1  A    between atoms: C2_6  and  N1_4 
REMARK    2  A    between atoms: C4_8  and  N1_4 
REMARK    3  A    between atoms: C1_5  and  C2_6 
REMARK    4  A    between atoms: C1_5  and  C3_7 
ROOT
HETATM    1  O1  UNK     1      18.521   1.144  31.883  1.00  0.00    -0.274 OA
HETATM    2  O2  UNK     1      19.779  -2.490  33.320  1.00  0.00    -0.286 OA
HETATM    3  O3  UNK     1      17.499   1.666  33.855  1.00  0.00    -0.259 OA
HETATM    4  C4  UNK     1      18.291  -0.780  34.961  1.00  0.00     0.021 C 
HETATM    5  C5  UNK     1      18.610  -0.443  33.703  1.00  0.00     0.112 A 
HETATM    6  C6  UNK     1      19.713  -0.970  31.532  1.00  0.00     0.049 A 
HETATM    7  C7  UNK     1      19.401  -1.404  32.899  1.00  0.00     0.203 A 
HETATM    8  C9  UNK     1      19.271   0.266  31.078  1.00  0.00     0.093 A 
HETATM    9  C10 UNK     1      17.491   0.155  35.825  1.00  0.00     0.069 C 
HETATM   10  C11 UNK     1      18.152   0.868  33.195  1.00  0.00     0.304 A 
HETATM   11  C12 UNK     1      20.454  -1.793  30.678  1.00  0.00     0.018 A 
HETATM   12  C13 UNK     1      19.555   0.699  29.782  1.00  0.00     0.038 A 
HETATM   13  C14 UNK     1      20.741  -1.366  29.379  1.00  0.00     0.001 A 
HETATM   14  C15 UNK     1      20.293  -0.123  28.932  1.00  0.00     0.003 A 
ENDROOT
BRANCH   4  15
HETATM   15  N1  UNK     1      18.657  -1.963  35.542  1.00  0.00    -0.393 N 
HETATM   16  H7  UNK     1      18.651  -2.799  34.973  1.00  0.00     0.159 HD
BRANCH  15  17
HETATM   17  C2  UNK     1      18.939  -2.099  36.946  1.00  0.00     0.119 C 
BRANCH  17  18
HETATM   18  C1  UNK     1      20.195  -2.937  37.167  1.00  0.00     0.019 C 
BRANCH  18  19
HETATM   19  C3  UNK     1      20.010  -4.398  36.752  1.00  0.00    -0.003 C 
HETATM   20  C8  UNK     1      20.927  -5.320  37.540  1.00  0.00     0.005 C 
ENDBRANCH  18  19
ENDBRANCH  17  18
ENDBRANCH  15  17
ENDBRANCH   4  15
TORSDOF 4
ENDMDL
MODEL 9
REMARK VINA RESULT:      -7.3      3.625      6.245
REMARK  4 active torsions:
REMARK  status: ('A' for Active; 'I' for Inactive)
REMARK    1  A    between atoms: C2_6  and  N1_4 
REMARK    2  A    between atoms: C4_8  and  N1_4 
REMARK    3  A    between atoms: C1_5  and  C2_6 
REMARK    4  A    between atoms: C1_5  and  C3_7 
ROOT
HETATM    1  O1  UNK     1      19.267   1.376  28.936  1.00  0.00    -0.274 OA
HETATM    2  O2  UNK     1      18.838   1.240  33.017  1.00  0.00    -0.286 OA
HETATM    3  O3  UNK     1      18.526   3.531  28.844  1.00  0.00    -0.259 OA
HETATM    4  C4  UNK     1      18.185   3.577  31.622  1.00  0.00     0.021 C 
HETATM    5  C5  UNK     1      18.641   2.486  30.988  1.00  0.00     0.112 A 
HETATM    6  C6  UNK     1      19.457   0.132  31.042  1.00  0.00     0.049 A 
HETATM    7  C7  UNK     1      18.965   1.288  31.800  1.00  0.00     0.203 A 
HETATM    8  C9  UNK     1      19.590   0.213  29.661  1.00  0.00     0.093 A 
HETATM    9  C10 UNK     1      17.840   4.821  30.852  1.00  0.00     0.069 C 
HETATM   10  C11 UNK     1      18.791   2.545  29.519  1.00  0.00     0.304 A 
HETATM   11  C12 UNK     1      19.796  -1.055  31.698  1.00  0.00     0.018 A 
HETATM   12  C13 UNK     1      20.055  -0.874  28.920  1.00  0.00     0.038 A 
HETATM   13  C14 UNK     1      20.262  -2.146  30.962  1.00  0.00     0.001 A 
HETATM   14  C15 UNK     1      20.392  -2.057  29.576  1.00  0.00     0.003 A 
ENDROOT
BRANCH   4  15
HETATM   15  N1  UNK     1      18.003   3.644  32.976  1.00  0.00    -0.393 N 
HETATM   16  H7  UNK     1      17.790   2.789  33.475  1.00  0.00     0.159 HD
BRANCH  15  17
HETATM   17  C2  UNK     1      17.988   4.881  33.710  1.00  0.00     0.119 C 
BRANCH  17  18
HETATM   18  C1  UNK     1      19.400   5.278  34.129  1.00  0.00     0.019 C 
BRANCH  18  19
HETATM   19  C3  UNK     1      19.855   6.596  33.497  1.00  0.00    -0.003 C 
HETATM   20  C8  UNK     1      20.945   6.368  32.461  1.00  0.00     0.005 C 
ENDBRANCH  18  19
ENDBRANCH  17  18
ENDBRANCH  15  17
ENDBRANCH   4  15
TORSDOF 4
ENDMDL
MODEL 10
REMARK VINA RESULT:      -7.2      2.566      3.598
REMARK  4 active torsions:
REMARK  status: ('A' for Active; 'I' for Inactive)
REMARK    1  A    between atoms: C2_6  and  N1_4 
REMARK    2  A    between atoms: C4_8  and  N1_4 
REMARK    3  A    between atoms: C1_5  and  C2_6 
REMARK    4  A    between atoms: C1_5  and  C3_7 
ROOT
HETATM    1  O1  UNK     1      18.971  -0.438  33.214  1.00  0.00    -0.274 OA
HETATM    2  O2  UNK     1      17.900   3.522  33.369  1.00  0.00    -0.286 OA
HETATM    3  O3  UNK     1      19.378  -0.329  30.972  1.00  0.00    -0.259 OA
HETATM    4  C4  UNK     1      18.674   2.380  30.934  1.00  0.00     0.021 C 
HETATM    5  C5  UNK     1      18.643   1.662  32.067  1.00  0.00     0.112 A 
HETATM    6  C6  UNK     1      18.210   1.497  34.515  1.00  0.00     0.049 A 
HETATM    7  C7  UNK     1      18.222   2.342  33.316  1.00  0.00     0.203 A 
HETATM    8  C9  UNK     1      18.579   0.160  34.426  1.00  0.00     0.093 A 
HETATM    9  C10 UNK     1      19.093   1.745  29.637  1.00  0.00     0.069 C 
HETATM   10  C11 UNK     1      19.029   0.237  32.000  1.00  0.00     0.304 A 
HETATM   11  C12 UNK     1      17.831   2.026  35.752  1.00  0.00     0.018 A 
HETATM   12  C13 UNK     1      18.574  -0.662  35.554  1.00  0.00     0.038 A 
HETATM   13  C14 UNK     1      17.824   1.208  36.884  1.00  0.00     0.001 A 
HETATM   14  C15 UNK     1      18.195  -0.133  36.786  1.00  0.00     0.003 A 
ENDROOT
BRANCH   4  15
HETATM   15  N1  UNK     1      18.339   3.705  30.869  1.00  0.00    -0.393 N 
HETATM   16  H7  UNK     1      17.521   4.018  31.376  1.00  0.00     0.159 HD
BRANCH  15  17
HETATM   17  C2  UNK     1      19.022   4.651  30.029  1.00  0.00     0.119 C 
BRANCH  17  18
HETATM   18  C1  UNK     1      20.036   5.457  30.835  1.00  0.00     0.019 C 
BRANCH  18  19
HETATM   19  C3  UNK     1      19.376   6.354  31.885  1.00  0.00    -0.003 C 
HETATM   20  C8  UNK     1      20.311   6.621  33.055  1.00  0.00     0.005 C 
ENDBRANCH  18  19
ENDBRANCH  17  18
ENDBRANCH  15  17
ENDBRANCH   4  15
TORSDOF 4
ENDMDL
