MODEL 1
REMARK VINA RESULT:      -8.8      0.000      0.000
REMARK  2 active torsions:
REMARK  status: ('A' for Active; 'I' for Inactive)
REMARK    1  A    between atoms: C11_14  and  O3_3 
REMARK    2  A    between atoms: C1_4  and  C3_6 
ROOT
HETATM    1  O1  UNK     1      18.780   0.313  32.570  1.00  0.00    -0.340 OA
HETATM    2  O2  UNK     1      20.866  -3.216  32.729  1.00  0.00    -0.292 OA
HETATM    3  C1  UNK     1      18.417  -0.712  33.509  1.00  0.00     0.169 C 
HETATM    4  C2  UNK     1      19.636  -1.535  33.920  1.00  0.00     0.121 C 
HETATM    5  C4  UNK     1      20.246  -2.160  32.692  1.00  0.00     0.165 C 
HETATM    6  C5  UNK     1      20.114  -1.386  31.440  1.00  0.00     0.043 A 
HETATM    7  C6  UNK     1      19.407  -0.181  31.455  1.00  0.00     0.083 A 
HETATM    8  C9  UNK     1      20.725  -1.831  30.265  1.00  0.00     0.018 A 
HETATM    9  C10 UNK     1      19.339   0.599  30.300  1.00  0.00     0.038 A 
HETATM   10  C12 UNK     1      20.638  -1.057  29.107  1.00  0.00     0.001 A 
HETATM   11  C14 UNK     1      19.950   0.158  29.127  1.00  0.00     0.003 A 
ENDROOT
BRANCH   3  12
HETATM   12  C3  UNK     1      17.772  -0.055  34.710  1.00  0.00    -0.026 A 
HETATM   13  C7  UNK     1      18.527   0.770  35.543  1.00  0.00     0.046 A 
HETATM   14  C11 UNK     1      17.932   1.375  36.650  1.00  0.00     0.066 A 
HETATM   15  C15 UNK     1      16.581   1.156  36.923  1.00  0.00     0.036 A 
HETATM   16  C13 UNK     1      15.827   0.331  36.090  1.00  0.00     0.003 A 
HETATM   17  C8  UNK     1      16.422  -0.275  34.983  1.00  0.00     0.010 A 
BRANCH  14  18
HETATM   18  O3  UNK     1      18.668   2.180  37.463  1.00  0.00    -0.361 OA
HETATM   19  H12 UNK     1      18.076   2.606  38.106  1.00  0.00     0.217 HD
ENDBRANCH  14  18
ENDBRANCH   3  12
TORSDOF 2
ENDMDL
MODEL 2
REMARK VINA RESULT:      -8.3      1.293      2.532
REMARK  2 active torsions:
REMARK  status: ('A' for Active; 'I' for Inactive)
REMARK    1  A    between atoms: C11_14  and  O3_3 
REMARK    2  A    between atoms: C1_4  and  C3_6 
ROOT
HETATM    1  O1  UNK     1      18.701  -0.366  32.723  1.00  0.00    -0.340 OA
HETATM    2  O2  UNK     1      18.926   2.870  30.210  1.00  0.00    -0.292 OA
HETATM    3  C1  UNK     1      18.724   0.971  33.249  1.00  0.00     0.169 C 
HETATM    4  C2  UNK     1      18.093   1.956  32.267  1.00  0.00     0.121 C 
HETATM    5  C4  UNK     1      18.849   1.906  30.964  1.00  0.00     0.165 C 
HETATM    6  C5  UNK     1      19.440   0.600  30.609  1.00  0.00     0.043 A 
HETATM    7  C6  UNK     1      19.313  -0.469  31.500  1.00  0.00     0.083 A 
HETATM    8  C9  UNK     1      20.079   0.422  29.380  1.00  0.00     0.018 A 
HETATM    9  C10 UNK     1      19.797  -1.729  31.145  1.00  0.00     0.038 A 
HETATM   10  C12 UNK     1      20.580  -0.835  29.039  1.00  0.00     0.001 A 
HETATM   11  C14 UNK     1      20.434  -1.909  29.918  1.00  0.00     0.003 A 
ENDROOT
BRANCH   3  12
HETATM   12  C3  UNK     1      17.994   0.977  34.574  1.00  0.00    -0.026 A 
HETATM   13  C7  UNK     1      18.576   1.579  35.689  1.00  0.00     0.046 A 
HETATM   14  C11 UNK     1      17.903   1.585  36.910  1.00  0.00     0.066 A 
HETATM   15  C15 UNK     1      16.646   0.988  37.016  1.00  0.00     0.036 A 
HETATM   16  C13 UNK     1      16.064   0.386  35.901  1.00  0.00     0.003 A 
HETATM   17  C8  UNK     1      16.737   0.380  34.680  1.00  0.00     0.010 A 
BRANCH  14  18
HETATM   18  O3  UNK     1      18.470   2.173  37.998  1.00  0.00    -0.361 OA
HETATM   19  H12 UNK     1      17.770   2.412  38.629  1.00  0.00     0.217 HD
ENDBRANCH  14  18
ENDBRANCH   3  12
TORSDOF 2
ENDMDL
MODEL 3
REMARK VINA RESULT:      -8.3     24.626     26.674
REMARK  2 active torsions:
REMARK  status: ('A' for Active; 'I' for Inactive)
REMARK    1  A    between atoms: C11_14  and  O3_3 
REMARK    2  A    between atoms: C1_4  and  C3_6 
ROOT
HETATM    1  O1  UNK     1      13.323   7.515   8.660  1.00  0.00    -0.340 OA
HETATM    2  O2  UNK     1      15.520   4.210   9.700  1.00  0.00    -0.292 OA
HETATM    3  C1  UNK     1      13.113   6.257   7.999  1.00  0.00     0.169 C 
HETATM    4  C2  UNK     1      13.423   5.090   8.933  1.00  0.00     0.121 C 
HETATM    5  C4  UNK     1      14.854   5.193   9.393  1.00  0.00     0.165 C 
HETATM    6  C5  UNK     1      15.395   6.562   9.521  1.00  0.00     0.043 A 
HETATM    7  C6  UNK     1      14.590   7.647   9.168  1.00  0.00     0.083 A 
HETATM    8  C9  UNK     1      16.679   6.771  10.029  1.00  0.00     0.018 A 
HETATM    9  C10 UNK     1      15.057   8.949   9.356  1.00  0.00     0.038 A 
HETATM   10  C12 UNK     1      17.150   8.074  10.196  1.00  0.00     0.001 A 
HETATM   11  C14 UNK     1      16.339   9.160   9.865  1.00  0.00     0.003 A 
ENDROOT
BRANCH   3  12
HETATM   12  C3  UNK     1      11.680   6.204   7.515  1.00  0.00    -0.026 A 
HETATM   13  C7  UNK     1      10.635   6.128   8.435  1.00  0.00     0.046 A 
HETATM   14  C11 UNK     1       9.315   6.079   7.989  1.00  0.00     0.066 A 
HETATM   15  C15 UNK     1       9.039   6.106   6.621  1.00  0.00     0.036 A 
HETATM   16  C13 UNK     1      10.085   6.181   5.702  1.00  0.00     0.003 A 
HETATM   17  C8  UNK     1      11.405   6.230   6.148  1.00  0.00     0.010 A 
BRANCH  14  18
HETATM   18  O3  UNK     1       8.295   6.006   8.887  1.00  0.00    -0.361 OA
HETATM   19  H12 UNK     1       8.254   5.102   9.245  1.00  0.00     0.217 HD
ENDBRANCH  14  18
ENDBRANCH   3  12
TORSDOF 2
ENDMDL
MODEL 4
REMARK VINA RESULT:      -8.1     24.618     26.754
REMARK  2 active torsions:
REMARK  status: ('A' for Active; 'I' for Inactive)
REMARK    1  A    between atoms: C11_14  and  O3_3 
REMARK    2  A    between atoms: C1_4  and  C3_6 
ROOT
HETATM    1  O1  UNK     1      13.369   7.540   8.848  1.00  0.00    -0.340 OA
HETATM    2  O2  UNK     1      15.622   4.221   9.711  1.00  0.00    -0.292 OA
HETATM    3  C1  UNK     1      13.127   6.294   8.175  1.00  0.00     0.169 C 
HETATM    4  C2  UNK     1      13.487   5.110   9.070  1.00  0.00     0.121 C 
HETATM    5  C4  UNK     1      14.940   5.208   9.457  1.00  0.00     0.165 C 
HETATM    6  C5  UNK     1      15.485   6.575   9.582  1.00  0.00     0.043 A 
HETATM    7  C6  UNK     1      14.661   7.665   9.291  1.00  0.00     0.083 A 
HETATM    8  C9  UNK     1      16.794   6.778  10.026  1.00  0.00     0.018 A 
HETATM    9  C10 UNK     1      15.136   8.964   9.479  1.00  0.00     0.038 A 
HETATM   10  C12 UNK     1      17.271   8.079  10.193  1.00  0.00     0.001 A 
HETATM   11  C14 UNK     1      16.442   9.169   9.924  1.00  0.00     0.003 A 
ENDROOT
BRANCH   3  12
HETATM   12  C3  UNK     1      11.671   6.246   7.766  1.00  0.00    -0.026 A 
HETATM   13  C7  UNK     1      11.315   6.444   6.432  1.00  0.00     0.046 A 
HETATM   14  C11 UNK     1       9.973   6.400   6.054  1.00  0.00     0.066 A 
HETATM   15  C15 UNK     1       8.987   6.156   7.011  1.00  0.00     0.036 A 
HETATM   16  C13 UNK     1       9.344   5.958   8.344  1.00  0.00     0.003 A 
HETATM   17  C8  UNK     1      10.686   6.003   8.722  1.00  0.00     0.010 A 
BRANCH  14  18
HETATM   18  O3  UNK     1       9.626   6.593   4.753  1.00  0.00    -0.361 OA
HETATM   19  H12 UNK     1      10.351   7.054   4.297  1.00  0.00     0.217 HD
ENDBRANCH  14  18
ENDBRANCH   3  12
TORSDOF 2
ENDMDL
MODEL 5
REMARK VINA RESULT:      -8.1      3.489      4.898
REMARK  2 active torsions:
REMARK  status: ('A' for Active; 'I' for Inactive)
REMARK    1  A    between atoms: C11_14  and  O3_3 
REMARK    2  A    between atoms: C1_4  and  C3_6 
ROOT
HETATM    1  O1  UNK     1      19.578   1.755  30.664  1.00  0.00    -0.340 OA
HETATM    2  O2  UNK     1      18.233  -0.429  33.867  1.00  0.00    -0.292 OA
HETATM    3  C1  UNK     1      18.457   2.207  31.441  1.00  0.00     0.169 C 
HETATM    4  C2  UNK     1      18.572   1.737  32.890  1.00  0.00     0.121 C 
HETATM    5  C4  UNK     1      18.638   0.232  32.916  1.00  0.00     0.165 C 
HETATM    6  C5  UNK     1      19.286  -0.407  31.753  1.00  0.00     0.043 A 
HETATM    7  C6  UNK     1      19.740   0.394  30.702  1.00  0.00     0.083 A 
HETATM    8  C9  UNK     1      19.483  -1.790  31.723  1.00  0.00     0.018 A 
HETATM    9  C10 UNK     1      20.423  -0.186  29.632  1.00  0.00     0.038 A 
HETATM   10  C12 UNK     1      20.150  -2.367  30.641  1.00  0.00     0.001 A 
HETATM   11  C14 UNK     1      20.623  -1.567  29.601  1.00  0.00     0.003 A 
ENDROOT
BRANCH   3  12
HETATM   12  C3  UNK     1      18.396   3.717  31.361  1.00  0.00    -0.026 A 
HETATM   13  C7  UNK     1      19.004   4.383  30.297  1.00  0.00     0.046 A 
HETATM   14  C11 UNK     1      18.948   5.775  30.222  1.00  0.00     0.066 A 
HETATM   15  C15 UNK     1      18.282   6.500  31.211  1.00  0.00     0.036 A 
HETATM   16  C13 UNK     1      17.675   5.833  32.275  1.00  0.00     0.003 A 
HETATM   17  C8  UNK     1      17.732   4.441  32.349  1.00  0.00     0.010 A 
BRANCH  14  18
HETATM   18  O3  UNK     1      19.540   6.425  29.185  1.00  0.00    -0.361 OA
HETATM   19  H12 UNK     1      18.909   7.063  28.810  1.00  0.00     0.217 HD
ENDBRANCH  14  18
ENDBRANCH   3  12
TORSDOF 2
ENDMDL
MODEL 6
REMARK VINA RESULT:      -8.0      2.094      6.221
REMARK  2 active torsions:
REMARK  status: ('A' for Active; 'I' for Inactive)
REMARK    1  A    between atoms: C11_14  and  O3_3 
REMARK    2  A    between atoms: C1_4  and  C3_6 
ROOT
HETATM    1  O1  UNK     1      19.856  -1.597  34.010  1.00  0.00    -0.340 OA
HETATM    2  O2  UNK     1      16.895   0.735  35.629  1.00  0.00    -0.292 OA
HETATM    3  C1  UNK     1      18.812  -1.059  33.183  1.00  0.00     0.169 C 
HETATM    4  C2  UNK     1      18.301   0.267  33.741  1.00  0.00     0.121 C 
HETATM    5  C4  UNK     1      17.783   0.047  35.139  1.00  0.00     0.165 C 
HETATM    6  C5  UNK     1      18.460  -1.009  35.920  1.00  0.00     0.043 A 
HETATM    7  C6  UNK     1      19.474  -1.757  35.317  1.00  0.00     0.083 A 
HETATM    8  C9  UNK     1      18.120  -1.229  37.256  1.00  0.00     0.018 A 
HETATM    9  C10 UNK     1      20.175  -2.705  36.063  1.00  0.00     0.038 A 
HETATM   10  C12 UNK     1      18.810  -2.193  37.993  1.00  0.00     0.001 A 
HETATM   11  C14 UNK     1      19.838  -2.925  37.399  1.00  0.00     0.003 A 
ENDROOT
BRANCH   3  12
HETATM   12  C3  UNK     1      19.352  -0.889  31.779  1.00  0.00    -0.026 A 
HETATM   13  C7  UNK     1      19.191   0.325  31.112  1.00  0.00     0.046 A 
HETATM   14  C11 UNK     1      19.688   0.482  29.819  1.00  0.00     0.066 A 
HETATM   15  C15 UNK     1      20.349  -0.576  29.193  1.00  0.00     0.036 A 
HETATM   16  C13 UNK     1      20.510  -1.790  29.860  1.00  0.00     0.003 A 
HETATM   17  C8  UNK     1      20.012  -1.946  31.153  1.00  0.00     0.010 A 
BRANCH  14  18
HETATM   18  O3  UNK     1      19.531   1.666  29.168  1.00  0.00    -0.361 OA
HETATM   19  H12 UNK     1      18.837   1.566  28.494  1.00  0.00     0.217 HD
ENDBRANCH  14  18
ENDBRANCH   3  12
TORSDOF 2
ENDMDL
MODEL 7
REMARK VINA RESULT:      -7.9      1.666      5.931
REMARK  2 active torsions:
REMARK  status: ('A' for Active; 'I' for Inactive)
REMARK    1  A    between atoms: C11_14  and  O3_3 
REMARK    2  A    between atoms: C1_4  and  C3_6 
ROOT
HETATM    1  O1  UNK     1      18.151  -0.476  33.181  1.00  0.00    -0.340 OA
HETATM    2  O2  UNK     1      20.540  -2.789  35.584  1.00  0.00    -0.292 OA
HETATM    3  C1  UNK     1      19.518  -0.734  32.825  1.00  0.00     0.169 C 
HETATM    4  C2  UNK     1      19.976  -2.089  33.359  1.00  0.00     0.121 C 
HETATM    5  C4  UNK     1      19.827  -2.105  34.858  1.00  0.00     0.165 C 
HETATM    6  C5  UNK     1      18.718  -1.297  35.405  1.00  0.00     0.043 A 
HETATM    7  C6  UNK     1      17.928  -0.545  34.532  1.00  0.00     0.083 A 
HETATM    8  C9  UNK     1      18.435  -1.318  36.773  1.00  0.00     0.018 A 
HETATM    9  C10 UNK     1      16.830   0.162  35.023  1.00  0.00     0.038 A 
HETATM   10  C12 UNK     1      17.347  -0.593  37.262  1.00  0.00     0.001 A 
HETATM   11  C14 UNK     1      16.544   0.141  36.388  1.00  0.00     0.003 A 
ENDROOT
BRANCH   3  12
HETATM   12  C3  UNK     1      19.642  -0.670  31.318  1.00  0.00    -0.026 A 
HETATM   13  C7  UNK     1      19.177   0.449  30.627  1.00  0.00     0.046 A 
HETATM   14  C11 UNK     1      19.290   0.507  29.238  1.00  0.00     0.066 A 
HETATM   15  C15 UNK     1      19.869  -0.553  28.540  1.00  0.00     0.036 A 
HETATM   16  C13 UNK     1      20.333  -1.672  29.232  1.00  0.00     0.003 A 
HETATM   17  C8  UNK     1      20.220  -1.730  30.621  1.00  0.00     0.010 A 
BRANCH  14  18
HETATM   18  O3  UNK     1      18.838   1.599  28.563  1.00  0.00    -0.361 OA
HETATM   19  H12 UNK     1      19.588   2.029  28.119  1.00  0.00     0.217 HD
ENDBRANCH  14  18
ENDBRANCH   3  12
TORSDOF 2
ENDMDL
MODEL 8
REMARK VINA RESULT:      -7.9     14.082     18.257
REMARK  2 active torsions:
REMARK  status: ('A' for Active; 'I' for Inactive)
REMARK    1  A    between atoms: C11_14  and  O3_3 
REMARK    2  A    between atoms: C1_4  and  C3_6 
ROOT
HETATM    1  O1  UNK     1      19.319  -0.951  17.194  1.00  0.00    -0.340 OA
HETATM    2  O2  UNK     1      19.233   2.827  15.598  1.00  0.00    -0.292 OA
HETATM    3  C1  UNK     1      18.863  -0.733  15.849  1.00  0.00     0.169 C 
HETATM    4  C2  UNK     1      19.554   0.478  15.227  1.00  0.00     0.121 C 
HETATM    5  C4  UNK     1      19.266   1.695  16.067  1.00  0.00     0.165 C 
HETATM    6  C5  UNK     1      19.094   1.455  17.515  1.00  0.00     0.043 A 
HETATM    7  C6  UNK     1      19.152   0.146  17.999  1.00  0.00     0.083 A 
HETATM    8  C9  UNK     1      18.918   2.526  18.394  1.00  0.00     0.018 A 
HETATM    9  C10 UNK     1      19.068  -0.090  19.372  1.00  0.00     0.038 A 
HETATM   10  C12 UNK     1      18.814   2.283  19.764  1.00  0.00     0.001 A 
HETATM   11  C14 UNK     1      18.894   0.978  20.252  1.00  0.00     0.003 A 
ENDROOT
BRANCH   3  12
HETATM   12  C3  UNK     1      19.129  -1.987  15.044  1.00  0.00    -0.026 A 
HETATM   13  C7  UNK     1      18.765  -2.042  13.699  1.00  0.00     0.046 A 
HETATM   14  C11 UNK     1      19.010  -3.197  12.957  1.00  0.00     0.066 A 
HETATM   15  C15 UNK     1      19.620  -4.298  13.561  1.00  0.00     0.036 A 
HETATM   16  C13 UNK     1      19.982  -4.242  14.906  1.00  0.00     0.003 A 
HETATM   17  C8  UNK     1      19.737  -3.087  15.648  1.00  0.00     0.010 A 
BRANCH  14  18
HETATM   18  O3  UNK     1      18.656  -3.251  11.644  1.00  0.00    -0.361 OA
HETATM   19  H12 UNK     1      19.289  -3.817  11.170  1.00  0.00     0.217 HD
ENDBRANCH  14  18
ENDBRANCH   3  12
TORSDOF 2
ENDMDL
MODEL 9
REMARK VINA RESULT:      -7.9     23.961     26.763
REMARK  2 active torsions:
REMARK  status: ('A' for Active; 'I' for Inactive)
REMARK    1  A    between atoms: C11_14  and  O3_3 
REMARK    2  A    between atoms: C1_4  and  C3_6 
ROOT
HETATM    1  O1  UNK     1      11.553   7.609   9.330  1.00  0.00    -0.340 OA
HETATM    2  O2  UNK     1      11.979   6.153   5.518  1.00  0.00    -0.292 OA
HETATM    3  C1  UNK     1      12.729   6.875   8.952  1.00  0.00     0.169 C 
HETATM    4  C2  UNK     1      13.038   7.064   7.469  1.00  0.00     0.121 C 
HETATM    5  C4  UNK     1      11.860   6.594   6.656  1.00  0.00     0.165 C 
HETATM    6  C5  UNK     1      10.534   6.761   7.284  1.00  0.00     0.043 A 
HETATM    7  C6  UNK     1      10.454   7.280   8.579  1.00  0.00     0.083 A 
HETATM    8  C9  UNK     1       9.371   6.445   6.577  1.00  0.00     0.018 A 
HETATM    9  C10 UNK     1       9.206   7.516   9.156  1.00  0.00     0.038 A 
HETATM   10  C12 UNK     1       8.125   6.664   7.167  1.00  0.00     0.001 A 
HETATM   11  C14 UNK     1       8.043   7.203   8.452  1.00  0.00     0.003 A 
ENDROOT
BRANCH   3  12
HETATM   12  C3  UNK     1      13.882   7.342   9.814  1.00  0.00    -0.026 A 
HETATM   13  C7  UNK     1      15.141   6.760   9.669  1.00  0.00     0.046 A 
HETATM   14  C11 UNK     1      16.204   7.190  10.464  1.00  0.00     0.066 A 
HETATM   15  C15 UNK     1      16.007   8.203  11.403  1.00  0.00     0.036 A 
HETATM   16  C13 UNK     1      14.748   8.784  11.548  1.00  0.00     0.003 A 
HETATM   17  C8  UNK     1      13.685   8.354  10.753  1.00  0.00     0.010 A 
BRANCH  14  18
HETATM   18  O3  UNK     1      17.433   6.623  10.322  1.00  0.00    -0.361 OA
HETATM   19  H12 UNK     1      18.095   7.328  10.217  1.00  0.00     0.217 HD
ENDBRANCH  14  18
ENDBRANCH   3  12
TORSDOF 2
ENDMDL
MODEL 10
REMARK VINA RESULT:      -7.8      7.865     10.510
REMARK  2 active torsions:
REMARK  status: ('A' for Active; 'I' for Inactive)
REMARK    1  A    between atoms: C11_14  and  O3_3 
REMARK    2  A    between atoms: C1_4  and  C3_6 
ROOT
HETATM    1  O1  UNK     1      17.659   9.084  33.179  1.00  0.00    -0.340 OA
HETATM    2  O2  UNK     1      14.049   7.351  34.072  1.00  0.00    -0.292 OA
HETATM    3  C1  UNK     1      17.547   7.660  33.330  1.00  0.00     0.169 C 
HETATM    4  C2  UNK     1      16.154   7.176  32.932  1.00  0.00     0.121 C 
HETATM    5  C4  UNK     1      15.128   7.864  33.796  1.00  0.00     0.165 C 
HETATM    6  C5  UNK     1      15.468   9.232  34.238  1.00  0.00     0.043 A 
HETATM    7  C6  UNK     1      16.707   9.773  33.885  1.00  0.00     0.083 A 
HETATM    8  C9  UNK     1      14.546   9.991  34.963  1.00  0.00     0.018 A 
HETATM    9  C10 UNK     1      17.012  11.091  34.229  1.00  0.00     0.038 A 
HETATM   10  C12 UNK     1      14.864  11.302  35.321  1.00  0.00     0.001 A 
HETATM   11  C14 UNK     1      16.092  11.851  34.951  1.00  0.00     0.003 A 
ENDROOT
BRANCH   3  12
HETATM   12  C3  UNK     1      18.615   7.003  32.483  1.00  0.00    -0.026 A 
HETATM   13  C7  UNK     1      18.319   6.590  31.184  1.00  0.00     0.046 A 
HETATM   14  C11 UNK     1      19.304   5.984  30.404  1.00  0.00     0.066 A 
HETATM   15  C15 UNK     1      20.585   5.793  30.922  1.00  0.00     0.036 A 
HETATM   16  C13 UNK     1      20.880   6.206  32.221  1.00  0.00     0.003 A 
HETATM   17  C8  UNK     1      19.895   6.811  33.002  1.00  0.00     0.010 A 
BRANCH  14  18
HETATM   18  O3  UNK     1      19.016   5.582  29.136  1.00  0.00    -0.361 OA
HETATM   19  H12 UNK     1      19.503   6.143  28.508  1.00  0.00     0.217 HD
ENDBRANCH  14  18
ENDBRANCH   3  12
TORSDOF 2
ENDMDL
