MODEL 1
REMARK VINA RESULT:      -7.2      0.000      0.000
REMARK  9 active torsions:
REMARK  status: ('A' for Active; 'I' for Inactive)
REMARK    1  A    between atoms: C5_13  and  O2_2 
REMARK    2  A    between atoms: C14_22  and  O3_3 
REMARK    3  A    between atoms: C15_23  and  O4_4 
REMARK    4  A    between atoms: C1_9  and  N1_8 
REMARK    5  A    between atoms: C6_14  and  N1_8 
REMARK    6  A    between atoms: C7_15  and  N1_8 
REMARK    7  A    between atoms: C1_9  and  C2_10 
REMARK    8  A    between atoms: C14_22  and  C6_14 
REMARK    9  A    between atoms: C15_23  and  C7_15 
ROOT
HETATM    1  O1  UNK     1      18.509   1.204  31.413  1.00  0.00    -0.274 OA
HETATM    2  O5  UNK     1      18.550   2.477  29.514  1.00  0.00    -0.260 OA
HETATM    3  C2  UNK     1      18.468  -0.127  33.393  1.00  0.00     0.038 A 
HETATM    4  C3  UNK     1      18.418   1.144  32.818  1.00  0.00     0.101 A 
HETATM    5  C4  UNK     1      18.282   2.304  33.583  1.00  0.00     0.005 A 
HETATM    6  C5  UNK     1      18.381  -0.250  34.776  1.00  0.00     0.076 A 
HETATM    7  C8  UNK     1      18.237   3.600  32.893  1.00  0.00    -0.043 A 
HETATM    8  C9  UNK     1      18.197   2.159  34.974  1.00  0.00     0.017 A 
HETATM    9  C10 UNK     1      18.247   0.891  35.566  1.00  0.00     0.038 A 
HETATM   10  C11 UNK     1      18.327   3.628  31.556  1.00  0.00     0.090 A 
HETATM   11  C12 UNK     1      18.094   4.865  33.688  1.00  0.00     0.049 C 
HETATM   12  C13 UNK     1      18.470   2.413  30.735  1.00  0.00     0.288 A 
ENDROOT
BRANCH   3  13
HETATM   13  C1  UNK     1      18.612  -1.344  32.540  1.00  0.00     0.318 C 
BRANCH  13  14
HETATM   14  N1  UNK     1      20.007  -1.622  32.200  1.00  0.00     0.112 N 
BRANCH  14  15
HETATM   15  C6  UNK     1      20.130  -1.964  30.783  1.00  0.00     0.382 C 
BRANCH  15  16
HETATM   16  C14 UNK     1      20.641  -0.762  30.040  1.00  0.00     0.169 C 
HETATM   17  O6  UNK     1      20.618  -0.653  28.821  1.00  0.00    -0.649 OA
BRANCH  16  18
HETATM   18  O3  UNK     1      21.171   0.181  30.861  1.00  0.00    -0.775 OA
HETATM   19  H14 UNK     1      21.722  -0.218  31.569  1.00  0.00     0.167 HD
ENDBRANCH  16  18
ENDBRANCH  15  16
ENDBRANCH  14  15
BRANCH  14  20
HETATM   20  C7  UNK     1      20.531  -2.702  33.034  1.00  0.00     0.382 C 
BRANCH  20  21
HETATM   21  C15 UNK     1      21.642  -2.157  33.888  1.00  0.00     0.169 C 
HETATM   22  O7  UNK     1      22.742  -1.840  33.452  1.00  0.00    -0.649 OA
BRANCH  21  23
HETATM   23  O4  UNK     1      21.316  -2.089  35.203  1.00  0.00    -0.775 OA
HETATM   24  H15 UNK     1      20.417  -1.719  35.338  1.00  0.00     0.167 HD
ENDBRANCH  21  23
ENDBRANCH  20  21
ENDBRANCH  14  20
ENDBRANCH  13  14
ENDBRANCH   3  13
BRANCH   6  25
HETATM   25  O2  UNK     1      18.426  -1.473  35.375  1.00  0.00    -0.360 OA
HETATM   26  H13 UNK     1      17.743  -1.514  36.065  1.00  0.00     0.217 HD
ENDBRANCH   6  25
TORSDOF 9
ENDMDL
MODEL 2
REMARK VINA RESULT:      -7.0     23.990     25.214
REMARK  9 active torsions:
REMARK  status: ('A' for Active; 'I' for Inactive)
REMARK    1  A    between atoms: C5_13  and  O2_2 
REMARK    2  A    between atoms: C14_22  and  O3_3 
REMARK    3  A    between atoms: C15_23  and  O4_4 
REMARK    4  A    between atoms: C1_9  and  N1_8 
REMARK    5  A    between atoms: C6_14  and  N1_8 
REMARK    6  A    between atoms: C7_15  and  N1_8 
REMARK    7  A    between atoms: C1_9  and  C2_10 
REMARK    8  A    between atoms: C14_22  and  C6_14 
REMARK    9  A    between atoms: C15_23  and  C7_15 
ROOT
HETATM    1  O1  UNK     1      13.027   7.841  10.644  1.00  0.00    -0.274 OA
HETATM    2  O5  UNK     1      11.415   9.363  11.211  1.00  0.00    -0.260 OA
HETATM    3  C2  UNK     1      14.705   6.252  10.053  1.00  0.00     0.038 A 
HETATM    4  C3  UNK     1      14.385   7.568  10.389  1.00  0.00     0.101 A 
HETATM    5  C4  UNK     1      15.352   8.572  10.475  1.00  0.00     0.005 A 
HETATM    6  C5  UNK     1      16.031   5.921   9.790  1.00  0.00     0.076 A 
HETATM    7  C8  UNK     1      14.925   9.930  10.837  1.00  0.00    -0.043 A 
HETATM    8  C9  UNK     1      16.681   8.219  10.207  1.00  0.00     0.017 A 
HETATM    9  C10 UNK     1      17.017   6.903   9.867  1.00  0.00     0.038 A 
HETATM   10  C11 UNK     1      13.626  10.162  11.074  1.00  0.00     0.090 A 
HETATM   11  C12 UNK     1      15.940  11.031  10.936  1.00  0.00     0.049 C 
HETATM   12  C13 UNK     1      12.594   9.113  10.988  1.00  0.00     0.288 A 
ENDROOT
BRANCH   3  13
HETATM   13  C1  UNK     1      13.641   5.206   9.973  1.00  0.00     0.318 C 
BRANCH  13  14
HETATM   14  N1  UNK     1      12.551   5.590   9.076  1.00  0.00     0.112 N 
BRANCH  14  15
HETATM   15  C6  UNK     1      11.330   4.858   9.413  1.00  0.00     0.382 C 
BRANCH  15  16
HETATM   16  C14 UNK     1      10.145   5.719   9.079  1.00  0.00     0.169 C 
HETATM   17  O6  UNK     1       9.155   5.315   8.484  1.00  0.00    -0.649 OA
BRANCH  16  18
HETATM   18  O3  UNK     1      10.300   7.009   9.474  1.00  0.00    -0.775 OA
HETATM   19  H14 UNK     1      10.023   7.142  10.406  1.00  0.00     0.167 HD
ENDBRANCH  16  18
ENDBRANCH  15  16
ENDBRANCH  14  15
BRANCH  14  20
HETATM   20  C7  UNK     1      12.925   5.348   7.684  1.00  0.00     0.382 C 
BRANCH  20  21
HETATM   21  C15 UNK     1      12.522   6.542   6.863  1.00  0.00     0.169 C 
HETATM   22  O7  UNK     1      12.426   7.677   7.313  1.00  0.00    -0.649 OA
BRANCH  21  23
HETATM   23  O4  UNK     1      12.235   6.225   5.575  1.00  0.00    -0.775 OA
HETATM   24  H15 UNK     1      12.995   6.395   4.978  1.00  0.00     0.167 HD
ENDBRANCH  21  23
ENDBRANCH  20  21
ENDBRANCH  14  20
ENDBRANCH  13  14
ENDBRANCH   3  13
BRANCH   6  25
HETATM   25  O2  UNK     1      16.382   4.648   9.459  1.00  0.00    -0.360 OA
HETATM   26  H13 UNK     1      16.341   4.090  10.254  1.00  0.00     0.217 HD
ENDBRANCH   6  25
TORSDOF 9
ENDMDL
MODEL 3
REMARK VINA RESULT:      -6.9     23.798     26.158
REMARK  9 active torsions:
REMARK  status: ('A' for Active; 'I' for Inactive)
REMARK    1  A    between atoms: C5_13  and  O2_2 
REMARK    2  A    between atoms: C14_22  and  O3_3 
REMARK    3  A    between atoms: C15_23  and  O4_4 
REMARK    4  A    between atoms: C1_9  and  N1_8 
REMARK    5  A    between atoms: C6_14  and  N1_8 
REMARK    6  A    between atoms: C7_15  and  N1_8 
REMARK    7  A    between atoms: C1_9  and  C2_10 
REMARK    8  A    between atoms: C14_22  and  C6_14 
REMARK    9  A    between atoms: C15_23  and  C7_15 
ROOT
HETATM    1  O1  UNK     1      11.103   8.665   9.339  1.00  0.00    -0.274 OA
HETATM    2  O5  UNK     1      10.569   9.938  11.163  1.00  0.00    -0.260 OA
HETATM    3  C2  UNK     1      11.663   7.338   7.437  1.00  0.00     0.038 A 
HETATM    4  C3  UNK     1      10.683   7.779   8.327  1.00  0.00     0.101 A 
HETATM    5  C4  UNK     1       9.351   7.374   8.230  1.00  0.00     0.005 A 
HETATM    6  C5  UNK     1      11.309   6.463   6.416  1.00  0.00     0.076 A 
HETATM    7  C8  UNK     1       8.386   7.889   9.210  1.00  0.00    -0.043 A 
HETATM    8  C9  UNK     1       9.014   6.491   7.195  1.00  0.00     0.017 A 
HETATM    9  C10 UNK     1       9.986   6.040   6.295  1.00  0.00     0.038 A 
HETATM   10  C11 UNK     1       8.813   8.730  10.163  1.00  0.00     0.090 A 
HETATM   11  C12 UNK     1       6.946   7.470   9.133  1.00  0.00     0.049 C 
HETATM   12  C13 UNK     1      10.215   9.168  10.278  1.00  0.00     0.288 A 
ENDROOT
BRANCH   3  13
HETATM   13  C1  UNK     1      13.079   7.797   7.574  1.00  0.00     0.318 C 
BRANCH  13  14
HETATM   14  N1  UNK     1      13.751   7.189   8.723  1.00  0.00     0.112 N 
BRANCH  14  15
HETATM   15  C6  UNK     1      14.684   8.138   9.329  1.00  0.00     0.382 C 
BRANCH  15  16
HETATM   16  C14 UNK     1      14.393   8.226  10.801  1.00  0.00     0.169 C 
HETATM   17  O6  UNK     1      15.230   8.514  11.646  1.00  0.00    -0.649 OA
BRANCH  16  18
HETATM   18  O3  UNK     1      13.107   7.914  11.105  1.00  0.00    -0.775 OA
HETATM   19  H14 UNK     1      12.835   8.287  11.971  1.00  0.00     0.167 HD
ENDBRANCH  16  18
ENDBRANCH  15  16
ENDBRANCH  14  15
BRANCH  14  20
HETATM   20  C7  UNK     1      14.450   5.971   8.319  1.00  0.00     0.382 C 
BRANCH  20  21
HETATM   21  C15 UNK     1      14.446   5.008   9.475  1.00  0.00     0.169 C 
HETATM   22  O7  UNK     1      15.376   4.255   9.737  1.00  0.00    -0.649 OA
BRANCH  21  23
HETATM   23  O4  UNK     1      13.286   5.030  10.178  1.00  0.00    -0.775 OA
HETATM   24  H15 UNK     1      12.571   5.491   9.689  1.00  0.00     0.167 HD
ENDBRANCH  21  23
ENDBRANCH  20  21
ENDBRANCH  14  20
ENDBRANCH  13  14
ENDBRANCH   3  13
BRANCH   6  25
HETATM   25  O2  UNK     1      12.237   6.010   5.527  1.00  0.00    -0.360 OA
HETATM   26  H13 UNK     1      12.199   5.040   5.495  1.00  0.00     0.217 HD
ENDBRANCH   6  25
TORSDOF 9
ENDMDL
MODEL 4
REMARK VINA RESULT:      -6.9      1.909      4.490
REMARK  9 active torsions:
REMARK  status: ('A' for Active; 'I' for Inactive)
REMARK    1  A    between atoms: C5_13  and  O2_2 
REMARK    2  A    between atoms: C14_22  and  O3_3 
REMARK    3  A    between atoms: C15_23  and  O4_4 
REMARK    4  A    between atoms: C1_9  and  N1_8 
REMARK    5  A    between atoms: C6_14  and  N1_8 
REMARK    6  A    between atoms: C7_15  and  N1_8 
REMARK    7  A    between atoms: C1_9  and  C2_10 
REMARK    8  A    between atoms: C14_22  and  C6_14 
REMARK    9  A    between atoms: C15_23  and  C7_15 
ROOT
HETATM    1  O1  UNK     1      17.373  -0.351  33.861  1.00  0.00    -0.274 OA
HETATM    2  O5  UNK     1      15.517   0.840  34.468  1.00  0.00    -0.260 OA
HETATM    3  C2  UNK     1      19.308  -1.592  33.225  1.00  0.00     0.038 A 
HETATM    4  C3  UNK     1      18.488  -1.119  34.250  1.00  0.00     0.101 A 
HETATM    5  C4  UNK     1      18.746  -1.388  35.595  1.00  0.00     0.005 A 
HETATM    6  C5  UNK     1      20.425  -2.358  33.546  1.00  0.00     0.076 A 
HETATM    7  C8  UNK     1      17.828  -0.849  36.608  1.00  0.00    -0.043 A 
HETATM    8  C9  UNK     1      19.875  -2.159  35.899  1.00  0.00     0.017 A 
HETATM    9  C10 UNK     1      20.708  -2.640  34.882  1.00  0.00     0.038 A 
HETATM   10  C11 UNK     1      16.775  -0.121  36.210  1.00  0.00     0.090 A 
HETATM   11  C12 UNK     1      18.080  -1.119  38.063  1.00  0.00     0.049 C 
HETATM   12  C13 UNK     1      16.489   0.170  34.795  1.00  0.00     0.288 A 
ENDROOT
BRANCH   3  13
HETATM   13  C1  UNK     1      18.997  -1.285  31.796  1.00  0.00     0.318 C 
BRANCH  13  14
HETATM   14  N1  UNK     1      19.601  -0.028  31.355  1.00  0.00     0.112 N 
BRANCH  14  15
HETATM   15  C6  UNK     1      18.639   0.758  30.583  1.00  0.00     0.382 C 
BRANCH  15  16
HETATM   16  C14 UNK     1      18.586   2.148  31.152  1.00  0.00     0.169 C 
HETATM   17  O6  UNK     1      17.938   2.454  32.144  1.00  0.00    -0.649 OA
BRANCH  16  18
HETATM   18  O3  UNK     1      19.303   3.045  30.426  1.00  0.00    -0.775 OA
HETATM   19  H14 UNK     1      19.912   2.602  29.797  1.00  0.00     0.167 HD
ENDBRANCH  16  18
ENDBRANCH  15  16
ENDBRANCH  14  15
BRANCH  14  20
HETATM   20  C7  UNK     1      20.801  -0.289  30.562  1.00  0.00     0.382 C 
BRANCH  20  21
HETATM   21  C15 UNK     1      20.427  -1.162  29.395  1.00  0.00     0.169 C 
HETATM   22  O7  UNK     1      20.087  -0.728  28.302  1.00  0.00    -0.649 OA
BRANCH  21  23
HETATM   23  O4  UNK     1      20.465  -2.485  29.691  1.00  0.00    -0.775 OA
HETATM   24  H15 UNK     1      20.208  -3.039  28.923  1.00  0.00     0.167 HD
ENDBRANCH  21  23
ENDBRANCH  20  21
ENDBRANCH  14  20
ENDBRANCH  13  14
ENDBRANCH   3  13
BRANCH   6  25
HETATM   25  O2  UNK     1      21.249  -2.838  32.574  1.00  0.00    -0.360 OA
HETATM   26  H13 UNK     1      22.120  -3.025  32.961  1.00  0.00     0.217 HD
ENDBRANCH   6  25
TORSDOF 9
ENDMDL
MODEL 5
REMARK VINA RESULT:      -6.7      3.938      6.482
REMARK  9 active torsions:
REMARK  status: ('A' for Active; 'I' for Inactive)
REMARK    1  A    between atoms: C5_13  and  O2_2 
REMARK    2  A    between atoms: C14_22  and  O3_3 
REMARK    3  A    between atoms: C15_23  and  O4_4 
REMARK    4  A    between atoms: C1_9  and  N1_8 
REMARK    5  A    between atoms: C6_14  and  N1_8 
REMARK    6  A    between atoms: C7_15  and  N1_8 
REMARK    7  A    between atoms: C1_9  and  C2_10 
REMARK    8  A    between atoms: C14_22  and  C6_14 
REMARK    9  A    between atoms: C15_23  and  C7_15 
ROOT
HETATM    1  O1  UNK     1      15.796   6.423  32.531  1.00  0.00    -0.274 OA
HETATM    2  O5  UNK     1      13.722   6.809  31.648  1.00  0.00    -0.260 OA
HETATM    3  C2  UNK     1      17.960   6.017  33.450  1.00  0.00     0.038 A 
HETATM    4  C3  UNK     1      16.918   6.918  33.225  1.00  0.00     0.101 A 
HETATM    5  C4  UNK     1      16.970   8.243  33.661  1.00  0.00     0.005 A 
HETATM    6  C5  UNK     1      19.094   6.447  34.131  1.00  0.00     0.076 A 
HETATM    7  C8  UNK     1      15.826   9.121  33.381  1.00  0.00    -0.043 A 
HETATM    8  C9  UNK     1      18.121   8.657  34.345  1.00  0.00     0.017 A 
HETATM    9  C10 UNK     1      19.175   7.765  34.578  1.00  0.00     0.038 A 
HETATM   10  C11 UNK     1      14.772   8.624  32.718  1.00  0.00     0.090 A 
HETATM   11  C12 UNK     1      15.853  10.551  33.836  1.00  0.00     0.049 C 
HETATM   12  C13 UNK     1      14.702   7.229  32.252  1.00  0.00     0.288 A 
ENDROOT
BRANCH   3  13
HETATM   13  C1  UNK     1      17.865   4.606  32.968  1.00  0.00     0.318 C 
BRANCH  13  14
HETATM   14  N1  UNK     1      18.571   4.403  31.703  1.00  0.00     0.112 N 
BRANCH  14  15
HETATM   15  C6  UNK     1      18.671   5.663  30.965  1.00  0.00     0.382 C 
BRANCH  15  16
HETATM   16  C14 UNK     1      20.099   5.862  30.544  1.00  0.00     0.169 C 
HETATM   17  O6  UNK     1      21.054   5.762  31.303  1.00  0.00    -0.649 OA
BRANCH  16  18
HETATM   18  O3  UNK     1      20.222   6.204  29.236  1.00  0.00    -0.775 OA
HETATM   19  H14 UNK     1      19.843   5.521  28.642  1.00  0.00     0.167 HD
ENDBRANCH  16  18
ENDBRANCH  15  16
ENDBRANCH  14  15
BRANCH  14  20
HETATM   20  C7  UNK     1      17.891   3.391  30.895  1.00  0.00     0.382 C 
BRANCH  20  21
HETATM   21  C15 UNK     1      18.708   2.129  30.919  1.00  0.00     0.169 C 
HETATM   22  O7  UNK     1      18.663   1.306  31.825  1.00  0.00    -0.649 OA
BRANCH  21  23
HETATM   23  O4  UNK     1      19.534   2.013  29.849  1.00  0.00    -0.775 OA
HETATM   24  H15 UNK     1      19.963   2.867  29.624  1.00  0.00     0.167 HD
ENDBRANCH  21  23
ENDBRANCH  20  21
ENDBRANCH  14  20
ENDBRANCH  13  14
ENDBRANCH   3  13
BRANCH   6  25
HETATM   25  O2  UNK     1      20.132   5.598  34.370  1.00  0.00    -0.360 OA
HETATM   26  H13 UNK     1      20.743   5.623  33.615  1.00  0.00     0.217 HD
ENDBRANCH   6  25
TORSDOF 9
ENDMDL
MODEL 6
REMARK VINA RESULT:      -6.7     12.305     15.316
REMARK  9 active torsions:
REMARK  status: ('A' for Active; 'I' for Inactive)
REMARK    1  A    between atoms: C5_13  and  O2_2 
REMARK    2  A    between atoms: C14_22  and  O3_3 
REMARK    3  A    between atoms: C15_23  and  O4_4 
REMARK    4  A    between atoms: C1_9  and  N1_8 
REMARK    5  A    between atoms: C6_14  and  N1_8 
REMARK    6  A    between atoms: C7_15  and  N1_8 
REMARK    7  A    between atoms: C1_9  and  C2_10 
REMARK    8  A    between atoms: C14_22  and  C6_14 
REMARK    9  A    between atoms: C15_23  and  C7_15 
ROOT
HETATM    1  O1  UNK     1      30.472  -6.435  29.699  1.00  0.00    -0.274 OA
HETATM    2  O5  UNK     1      30.345  -4.460  30.846  1.00  0.00    -0.260 OA
HETATM    3  C2  UNK     1      30.608  -8.494  28.501  1.00  0.00     0.038 A 
HETATM    4  C3  UNK     1      29.839  -7.618  29.269  1.00  0.00     0.101 A 
HETATM    5  C4  UNK     1      28.510  -7.886  29.600  1.00  0.00     0.005 A 
HETATM    6  C5  UNK     1      30.037  -9.678  28.047  1.00  0.00     0.076 A 
HETATM    7  C8  UNK     1      27.776  -6.907  30.412  1.00  0.00    -0.043 A 
HETATM    8  C9  UNK     1      27.953  -9.085  29.134  1.00  0.00     0.017 A 
HETATM    9  C10 UNK     1      28.712  -9.974  28.363  1.00  0.00     0.038 A 
HETATM   10  C11 UNK     1      28.402  -5.791  30.808  1.00  0.00     0.090 A 
HETATM   11  C12 UNK     1      26.346  -7.168  30.786  1.00  0.00     0.049 C 
HETATM   12  C13 UNK     1      29.804  -5.492  30.466  1.00  0.00     0.288 A 
ENDROOT
BRANCH   3  13
HETATM   13  C1  UNK     1      32.027  -8.169  28.167  1.00  0.00     0.318 C 
BRANCH  13  14
HETATM   14  N1  UNK     1      32.961  -8.645  29.187  1.00  0.00     0.112 N 
BRANCH  14  15
HETATM   15  C6  UNK     1      32.302  -9.603  30.075  1.00  0.00     0.382 C 
BRANCH  15  16
HETATM   16  C14 UNK     1      33.045 -10.908  30.010  1.00  0.00     0.169 C 
HETATM   17  O6  UNK     1      34.204 -11.053  30.376  1.00  0.00    -0.649 OA
BRANCH  16  18
HETATM   18  O3  UNK     1      32.308 -11.909  29.462  1.00  0.00    -0.775 OA
HETATM   19  H14 UNK     1      31.444 -11.586  29.128  1.00  0.00     0.167 HD
ENDBRANCH  16  18
ENDBRANCH  15  16
ENDBRANCH  14  15
BRANCH  14  20
HETATM   20  C7  UNK     1      33.495  -7.521  29.955  1.00  0.00     0.382 C 
BRANCH  20  21
HETATM   21  C15 UNK     1      34.927  -7.301  29.552  1.00  0.00     0.169 C 
HETATM   22  O7  UNK     1      35.411  -6.197  29.334  1.00  0.00    -0.649 OA
BRANCH  21  23
HETATM   23  O4  UNK     1      35.622  -8.458  29.414  1.00  0.00    -0.775 OA
HETATM   24  H15 UNK     1      35.819  -8.872  30.281  1.00  0.00     0.167 HD
ENDBRANCH  21  23
ENDBRANCH  20  21
ENDBRANCH  14  20
ENDBRANCH  13  14
ENDBRANCH   3  13
BRANCH   6  25
HETATM   25  O2  UNK     1      30.755 -10.558  27.294  1.00  0.00    -0.360 OA
HETATM   26  H13 UNK     1      30.142 -11.109  26.779  1.00  0.00     0.217 HD
ENDBRANCH   6  25
TORSDOF 9
ENDMDL
MODEL 7
REMARK VINA RESULT:      -6.6      2.321      4.695
REMARK  9 active torsions:
REMARK  status: ('A' for Active; 'I' for Inactive)
REMARK    1  A    between atoms: C5_13  and  O2_2 
REMARK    2  A    between atoms: C14_22  and  O3_3 
REMARK    3  A    between atoms: C15_23  and  O4_4 
REMARK    4  A    between atoms: C1_9  and  N1_8 
REMARK    5  A    between atoms: C6_14  and  N1_8 
REMARK    6  A    between atoms: C7_15  and  N1_8 
REMARK    7  A    between atoms: C1_9  and  C2_10 
REMARK    8  A    between atoms: C14_22  and  C6_14 
REMARK    9  A    between atoms: C15_23  and  C7_15 
ROOT
HETATM    1  O1  UNK     1      18.571   0.723  32.348  1.00  0.00    -0.274 OA
HETATM    2  O5  UNK     1      17.778   2.547  31.219  1.00  0.00    -0.260 OA
HETATM    3  C2  UNK     1      19.397  -1.179  33.528  1.00  0.00     0.038 A 
HETATM    4  C3  UNK     1      19.325  -0.467  32.329  1.00  0.00     0.101 A 
HETATM    5  C4  UNK     1      19.963  -0.900  31.166  1.00  0.00     0.005 A 
HETATM    6  C5  UNK     1      20.128  -2.362  33.572  1.00  0.00     0.076 A 
HETATM    7  C8  UNK     1      19.833  -0.087  29.949  1.00  0.00    -0.043 A 
HETATM    8  C9  UNK     1      20.693  -2.094  31.230  1.00  0.00     0.017 A 
HETATM    9  C10 UNK     1      20.774  -2.819  32.425  1.00  0.00     0.038 A 
HETATM   10  C11 UNK     1      19.110   1.040  29.995  1.00  0.00     0.090 A 
HETATM   11  C12 UNK     1      20.506  -0.527  28.681  1.00  0.00     0.049 C 
HETATM   12  C13 UNK     1      18.431   1.511  31.215  1.00  0.00     0.288 A 
ENDROOT
BRANCH   3  13
HETATM   13  C1  UNK     1      18.701  -0.681  34.753  1.00  0.00     0.318 C 
BRANCH  13  14
HETATM   14  N1  UNK     1      17.630  -1.578  35.185  1.00  0.00     0.112 N 
BRANCH  14  15
HETATM   15  C6  UNK     1      16.346  -1.142  34.636  1.00  0.00     0.382 C 
BRANCH  15  16
HETATM   16  C14 UNK     1      16.088   0.271  35.079  1.00  0.00     0.169 C 
HETATM   17  O6  UNK     1      15.493   0.566  36.107  1.00  0.00    -0.649 OA
BRANCH  16  18
HETATM   18  O3  UNK     1      16.552   1.194  34.198  1.00  0.00    -0.775 OA
HETATM   19  H14 UNK     1      17.273   0.835  33.637  1.00  0.00     0.167 HD
ENDBRANCH  16  18
ENDBRANCH  15  16
ENDBRANCH  14  15
BRANCH  14  20
HETATM   20  C7  UNK     1      17.569  -1.635  36.645  1.00  0.00     0.382 C 
BRANCH  20  21
HETATM   21  C15 UNK     1      18.555  -2.663  37.128  1.00  0.00     0.169 C 
HETATM   22  O7  UNK     1      19.570  -2.390  37.756  1.00  0.00    -0.649 OA
BRANCH  21  23
HETATM   23  O4  UNK     1      18.226  -3.926  36.759  1.00  0.00    -0.775 OA
HETATM   24  H15 UNK     1      18.600  -4.595  37.372  1.00  0.00     0.167 HD
ENDBRANCH  21  23
ENDBRANCH  20  21
ENDBRANCH  14  20
ENDBRANCH  13  14
ENDBRANCH   3  13
BRANCH   6  25
HETATM   25  O2  UNK     1      20.222  -3.084  34.723  1.00  0.00    -0.360 OA
HETATM   26  H13 UNK     1      19.570  -3.805  34.700  1.00  0.00     0.217 HD
ENDBRANCH   6  25
TORSDOF 9
ENDMDL
MODEL 8
REMARK VINA RESULT:      -6.6     23.739     25.113
REMARK  9 active torsions:
REMARK  status: ('A' for Active; 'I' for Inactive)
REMARK    1  A    between atoms: C5_13  and  O2_2 
REMARK    2  A    between atoms: C14_22  and  O3_3 
REMARK    3  A    between atoms: C15_23  and  O4_4 
REMARK    4  A    between atoms: C1_9  and  N1_8 
REMARK    5  A    between atoms: C6_14  and  N1_8 
REMARK    6  A    between atoms: C7_15  and  N1_8 
REMARK    7  A    between atoms: C1_9  and  C2_10 
REMARK    8  A    between atoms: C14_22  and  C6_14 
REMARK    9  A    between atoms: C15_23  and  C7_15 
ROOT
HETATM    1  O1  UNK     1      15.286   8.809   9.178  1.00  0.00    -0.274 OA
HETATM    2  O5  UNK     1      17.547   9.092   9.368  1.00  0.00    -0.260 OA
HETATM    3  C2  UNK     1      12.927   8.512   8.978  1.00  0.00     0.038 A 
HETATM    4  C3  UNK     1      13.989   9.199   9.567  1.00  0.00     0.101 A 
HETATM    5  C4  UNK     1      13.791  10.223  10.495  1.00  0.00     0.005 A 
HETATM    6  C5  UNK     1      11.623   8.853   9.322  1.00  0.00     0.076 A 
HETATM    7  C8  UNK     1      14.968  10.893  11.065  1.00  0.00    -0.043 A 
HETATM    8  C9  UNK     1      12.471  10.551  10.829  1.00  0.00     0.017 A 
HETATM    9  C10 UNK     1      11.395   9.870  10.247  1.00  0.00     0.038 A 
HETATM   10  C11 UNK     1      16.190  10.502  10.677  1.00  0.00     0.090 A 
HETATM   11  C12 UNK     1      14.788  11.997  12.066  1.00  0.00     0.049 C 
HETATM   12  C13 UNK     1      16.415   9.423   9.698  1.00  0.00     0.288 A 
ENDROOT
BRANCH   3  13
HETATM   13  C1  UNK     1      13.180   7.422   7.987  1.00  0.00     0.318 C 
BRANCH  13  14
HETATM   14  N1  UNK     1      13.320   6.114   8.625  1.00  0.00     0.112 N 
BRANCH  14  15
HETATM   15  C6  UNK     1      14.641   5.548   8.348  1.00  0.00     0.382 C 
BRANCH  15  16
HETATM   16  C14 UNK     1      15.345   5.308   9.653  1.00  0.00     0.169 C 
HETATM   17  O6  UNK     1      14.897   5.643  10.742  1.00  0.00    -0.649 OA
BRANCH  16  18
HETATM   18  O3  UNK     1      16.556   4.712   9.499  1.00  0.00    -0.775 OA
HETATM   19  H14 UNK     1      16.639   3.905  10.051  1.00  0.00     0.167 HD
ENDBRANCH  16  18
ENDBRANCH  15  16
ENDBRANCH  14  15
BRANCH  14  20
HETATM   20  C7  UNK     1      12.269   5.207   8.167  1.00  0.00     0.382 C 
BRANCH  20  21
HETATM   21  C15 UNK     1      11.269   5.029   9.276  1.00  0.00     0.169 C 
HETATM   22  O7  UNK     1      10.057   5.005   9.103  1.00  0.00    -0.649 OA
BRANCH  21  23
HETATM   23  O4  UNK     1      11.847   4.940  10.500  1.00  0.00    -0.775 OA
HETATM   24  H15 UNK     1      12.205   4.042  10.671  1.00  0.00     0.167 HD
ENDBRANCH  21  23
ENDBRANCH  20  21
ENDBRANCH  14  20
ENDBRANCH  13  14
ENDBRANCH   3  13
BRANCH   6  25
HETATM   25  O2  UNK     1      10.560   8.205   8.768  1.00  0.00    -0.360 OA
HETATM   26  H13 UNK     1      10.020   7.817   9.476  1.00  0.00     0.217 HD
ENDBRANCH   6  25
TORSDOF 9
ENDMDL
MODEL 9
REMARK VINA RESULT:      -6.6      3.030      6.682
REMARK  9 active torsions:
REMARK  status: ('A' for Active; 'I' for Inactive)
REMARK    1  A    between atoms: C5_13  and  O2_2 
REMARK    2  A    between atoms: C14_22  and  O3_3 
REMARK    3  A    between atoms: C15_23  and  O4_4 
REMARK    4  A    between atoms: C1_9  and  N1_8 
REMARK    5  A    between atoms: C6_14  and  N1_8 
REMARK    6  A    between atoms: C7_15  and  N1_8 
REMARK    7  A    between atoms: C1_9  and  C2_10 
REMARK    8  A    between atoms: C14_22  and  C6_14 
REMARK    9  A    between atoms: C15_23  and  C7_15 
ROOT
HETATM    1  O1  UNK     1      17.801   1.989  33.267  1.00  0.00    -0.274 OA
HETATM    2  O5  UNK     1      17.443   1.231  35.394  1.00  0.00    -0.260 OA
HETATM    3  C2  UNK     1      18.173   2.784  31.048  1.00  0.00     0.038 A 
HETATM    4  C3  UNK     1      18.314   1.751  31.976  1.00  0.00     0.101 A 
HETATM    5  C4  UNK     1      18.927   0.539  31.656  1.00  0.00     0.005 A 
HETATM    6  C5  UNK     1      18.659   2.608  29.756  1.00  0.00     0.076 A 
HETATM    7  C8  UNK     1      19.031  -0.493  32.696  1.00  0.00    -0.043 A 
HETATM    8  C9  UNK     1      19.411   0.381  30.350  1.00  0.00     0.017 A 
HETATM    9  C10 UNK     1      19.278   1.408  29.408  1.00  0.00     0.038 A 
HETATM   10  C11 UNK     1      18.535  -0.240  33.915  1.00  0.00     0.090 A 
HETATM   11  C12 UNK     1      19.687  -1.806  32.382  1.00  0.00     0.049 C 
HETATM   12  C13 UNK     1      17.885   1.034  34.268  1.00  0.00     0.288 A 
ENDROOT
BRANCH   3  13
HETATM   13  C1  UNK     1      17.509   4.067  31.430  1.00  0.00     0.318 C 
BRANCH  13  14
HETATM   14  N1  UNK     1      18.435   5.004  32.065  1.00  0.00     0.112 N 
BRANCH  14  15
HETATM   15  C6  UNK     1      17.910   5.444  33.358  1.00  0.00     0.382 C 
BRANCH  15  16
HETATM   16  C14 UNK     1      18.936   6.319  34.021  1.00  0.00     0.169 C 
HETATM   17  O6  UNK     1      18.714   7.460  34.405  1.00  0.00    -0.649 OA
BRANCH  16  18
HETATM   18  O3  UNK     1      20.155   5.727  34.117  1.00  0.00    -0.775 OA
HETATM   19  H14 UNK     1      20.500   5.748  35.035  1.00  0.00     0.167 HD
ENDBRANCH  16  18
ENDBRANCH  15  16
ENDBRANCH  14  15
BRANCH  14  20
HETATM   20  C7  UNK     1      18.677   6.153  31.194  1.00  0.00     0.382 C 
BRANCH  20  21
HETATM   21  C15 UNK     1      20.034   6.002  30.564  1.00  0.00     0.169 C 
HETATM   22  O7  UNK     1      21.058   5.779  31.198  1.00  0.00    -0.649 OA
BRANCH  21  23
HETATM   23  O4  UNK     1      20.017   6.181  29.219  1.00  0.00    -0.775 OA
HETATM   24  H15 UNK     1      20.920   6.160  28.836  1.00  0.00     0.167 HD
ENDBRANCH  21  23
ENDBRANCH  20  21
ENDBRANCH  14  20
ENDBRANCH  13  14
ENDBRANCH   3  13
BRANCH   6  25
HETATM   25  O2  UNK     1      18.540   3.592  28.823  1.00  0.00    -0.360 OA
HETATM   26  H13 UNK     1      17.604   3.837  28.738  1.00  0.00     0.217 HD
ENDBRANCH   6  25
TORSDOF 9
ENDMDL
MODEL 10
REMARK VINA RESULT:      -6.5      1.779      3.340
REMARK  9 active torsions:
REMARK  status: ('A' for Active; 'I' for Inactive)
REMARK    1  A    between atoms: C5_13  and  O2_2 
REMARK    2  A    between atoms: C14_22  and  O3_3 
REMARK    3  A    between atoms: C15_23  and  O4_4 
REMARK    4  A    between atoms: C1_9  and  N1_8 
REMARK    5  A    between atoms: C6_14  and  N1_8 
REMARK    6  A    between atoms: C7_15  and  N1_8 
REMARK    7  A    between atoms: C1_9  and  C2_10 
REMARK    8  A    between atoms: C14_22  and  C6_14 
REMARK    9  A    between atoms: C15_23  and  C7_15 
ROOT
HETATM    1  O1  UNK     1      17.999   1.896  31.012  1.00  0.00    -0.274 OA
HETATM    2  O5  UNK     1      17.937   1.415  28.777  1.00  0.00    -0.260 OA
HETATM    3  C2  UNK     1      18.063   2.394  33.345  1.00  0.00     0.038 A 
HETATM    4  C3  UNK     1      18.261   2.830  32.034  1.00  0.00     0.101 A 
HETATM    5  C4  UNK     1      18.692   4.124  31.735  1.00  0.00     0.005 A 
HETATM    6  C5  UNK     1      18.304   3.273  34.397  1.00  0.00     0.076 A 
HETATM    7  C8  UNK     1      18.873   4.497  30.326  1.00  0.00    -0.043 A 
HETATM    8  C9  UNK     1      18.930   4.994  32.808  1.00  0.00     0.017 A 
HETATM    9  C10 UNK     1      18.737   4.570  34.129  1.00  0.00     0.038 A 
HETATM   10  C11 UNK     1      18.618   3.588  29.375  1.00  0.00     0.090 A 
HETATM   11  C12 UNK     1      19.338   5.880  29.973  1.00  0.00     0.049 C 
HETATM   12  C13 UNK     1      18.161   2.220  29.674  1.00  0.00     0.288 A 
ENDROOT
BRANCH   3  13
HETATM   13  C1  UNK     1      17.598   1.002  33.623  1.00  0.00     0.318 C 
BRANCH  13  14
HETATM   14  N1  UNK     1      18.711   0.062  33.756  1.00  0.00     0.112 N 
BRANCH  14  15
HETATM   15  C6  UNK     1      18.528  -1.078  32.857  1.00  0.00     0.382 C 
BRANCH  15  16
HETATM   16  C14 UNK     1      19.642  -1.079  31.848  1.00  0.00     0.169 C 
HETATM   17  O6  UNK     1      20.811  -1.311  32.124  1.00  0.00    -0.649 OA
BRANCH  16  18
HETATM   18  O3  UNK     1      19.222  -0.755  30.598  1.00  0.00    -0.775 OA
HETATM   19  H14 UNK     1      18.307  -1.065  30.428  1.00  0.00     0.167 HD
ENDBRANCH  16  18
ENDBRANCH  15  16
ENDBRANCH  14  15
BRANCH  14  20
HETATM   20  C7  UNK     1      18.832  -0.393  35.140  1.00  0.00     0.382 C 
BRANCH  20  21
HETATM   21  C15 UNK     1      17.452  -0.571  35.711  1.00  0.00     0.169 C 
HETATM   22  O7  UNK     1      16.857   0.297  36.338  1.00  0.00    -0.649 OA
BRANCH  21  23
HETATM   23  O4  UNK     1      16.946  -1.812  35.496  1.00  0.00    -0.775 OA
HETATM   24  H15 UNK     1      16.785  -2.291  36.337  1.00  0.00     0.167 HD
ENDBRANCH  21  23
ENDBRANCH  20  21
ENDBRANCH  14  20
ENDBRANCH  13  14
ENDBRANCH   3  13
BRANCH   6  25
HETATM   25  O2  UNK     1      18.122   2.884  35.689  1.00  0.00    -0.360 OA
HETATM   26  H13 UNK     1      17.560   3.536  36.140  1.00  0.00     0.217 HD
ENDBRANCH   6  25
TORSDOF 9
ENDMDL
