MODEL 1
REMARK VINA RESULT:      -8.5      0.000      0.000
REMARK  5 active torsions:
REMARK  status: ('A' for Active; 'I' for Inactive)
REMARK    1  A    between atoms: C14_22  and  O2_3 
REMARK    2  A    between atoms: C16_24  and  O2_3 
REMARK    3  A    between atoms: C1_9  and  C11_19 
REMARK    4  A    between atoms: C16_24  and  C5_13 
REMARK    5  A    between atoms: C10_18  and  C14_22 
ROOT
HETATM    1  O3  UNK     1      32.022  -6.209  33.919  1.00  0.00    -0.293 OA
HETATM    2  N1  UNK     1      29.393  -5.152  37.718  1.00  0.00    -0.362 N 
HETATM    3  C1  UNK     1      29.834  -7.011  35.619  1.00  0.00     0.104 C 
HETATM    4  C2  UNK     1      30.633  -5.721  35.782  1.00  0.00     0.024 C 
HETATM    5  C3  UNK     1      30.374  -4.861  36.790  1.00  0.00     0.020 C 
HETATM    6  C4  UNK     1      31.138  -3.579  37.003  1.00  0.00     0.058 C 
HETATM    7  C5  UNK     1      28.891  -7.272  36.795  1.00  0.00     0.052 C 
HETATM    8  C6  UNK     1      32.511  -3.606  36.342  1.00  0.00     0.014 C 
HETATM    9  C7  UNK     1      32.410  -4.066  34.899  1.00  0.00     0.084 C 
HETATM   10  C8  UNK     1      31.725  -5.411  34.807  1.00  0.00     0.158 C 
HETATM   11  C9  UNK     1      28.690  -6.346  37.759  1.00  0.00     0.018 C 
HETATM   12  C17 UNK     1      27.747  -6.488  38.924  1.00  0.00     0.069 C 
HETATM   13  H9  UNK     1      29.226  -4.480  38.459  1.00  0.00     0.165 HD
ENDROOT
BRANCH   3  14
HETATM   14  C11 UNK     1      29.058  -6.990  34.330  1.00  0.00     0.029 A 
HETATM   15  C18 UNK     1      29.323  -8.052  33.326  1.00  0.00     0.194 A 
HETATM   16  O6  UNK     1      30.146  -8.937  33.516  1.00  0.00    -0.287 OA
HETATM   17  C20 UNK     1      28.535  -7.985  32.081  1.00  0.00     0.050 A 
HETATM   18  C21 UNK     1      27.609  -6.954  31.919  1.00  0.00     0.089 A 
HETATM   19  C22 UNK     1      28.710  -8.938  31.075  1.00  0.00     0.042 A 
HETATM   20  O4  UNK     1      27.396  -5.992  32.873  1.00  0.00    -0.321 OA
HETATM   21  C23 UNK     1      26.853  -6.872  30.749  1.00  0.00     0.040 A 
HETATM   22  C19 UNK     1      28.136  -6.067  34.028  1.00  0.00     0.154 A 
HETATM   23  C25 UNK     1      27.027  -7.823  29.744  1.00  0.00     0.026 A 
HETATM   24  C24 UNK     1      27.953  -8.853  29.906  1.00  0.00     0.035 A 
HETATM   25 Cl1  UNK     1      28.162 -10.023  28.660  1.00  0.00    -0.084 Cl
ENDBRANCH   3  14
BRANCH   7  26
HETATM   26  C16 UNK     1      28.259  -8.601  36.850  1.00  0.00     0.292 C 
HETATM   27  O5  UNK     1      27.055  -8.772  36.801  1.00  0.00    -0.259 OA
BRANCH  26  28
HETATM   28  O2  UNK     1      29.236  -9.534  36.957  1.00  0.00    -0.315 OA
BRANCH  28  29
HETATM   29  C14 UNK     1      29.870  -9.602  38.239  1.00  0.00     0.211 C 
BRANCH  29  30
HETATM   30  C10 UNK     1      31.364  -9.419  38.061  1.00  0.00     0.145 C 
HETATM   31  O1  UNK     1      31.786  -8.203  38.702  1.00  0.00    -0.384 OA
HETATM   32  C15 UNK     1      32.735  -7.546  37.848  1.00  0.00     0.168 C 
HETATM   33  C13 UNK     1      33.072  -8.514  36.735  1.00  0.00     0.029 C 
HETATM   34  C12 UNK     1      31.792  -9.302  36.609  1.00  0.00     0.036 C 
ENDBRANCH  29  30
ENDBRANCH  28  29
ENDBRANCH  26  28
ENDBRANCH   7  26
TORSDOF 5
ENDMDL
MODEL 2
REMARK VINA RESULT:      -8.4      3.686      7.207
REMARK  5 active torsions:
REMARK  status: ('A' for Active; 'I' for Inactive)
REMARK    1  A    between atoms: C14_22  and  O2_3 
REMARK    2  A    between atoms: C16_24  and  O2_3 
REMARK    3  A    between atoms: C1_9  and  C11_19 
REMARK    4  A    between atoms: C16_24  and  C5_13 
REMARK    5  A    between atoms: C10_18  and  C14_22 
ROOT
HETATM    1  O3  UNK     1      32.071  -9.792  35.080  1.00  0.00    -0.293 OA
HETATM    2  N1  UNK     1      29.205 -10.335  31.343  1.00  0.00    -0.362 N 
HETATM    3  C1  UNK     1      30.287  -8.499  33.218  1.00  0.00     0.104 C 
HETATM    4  C2  UNK     1      30.583  -9.996  33.240  1.00  0.00     0.024 C 
HETATM    5  C3  UNK     1      30.030 -10.831  32.335  1.00  0.00     0.020 C 
HETATM    6  C4  UNK     1      30.295 -12.314  32.305  1.00  0.00     0.058 C 
HETATM    7  C5  UNK     1      29.486  -8.074  31.986  1.00  0.00     0.052 C 
HETATM    8  C6  UNK     1      31.596 -12.685  33.007  1.00  0.00     0.014 C 
HETATM    9  C7  UNK     1      31.675 -12.042  34.379  1.00  0.00     0.084 C 
HETATM   10  C8  UNK     1      31.505 -10.542  34.284  1.00  0.00     0.158 C 
HETATM   11  C9  UNK     1      28.965  -8.986  31.133  1.00  0.00     0.018 C 
HETATM   12  C17 UNK     1      28.122  -8.672  29.927  1.00  0.00     0.069 C 
HETATM   13  H9  UNK     1      28.808 -10.994  30.683  1.00  0.00     0.165 HD
ENDROOT
BRANCH   3  14
HETATM   14  C11 UNK     1      29.565  -8.085  34.471  1.00  0.00     0.029 A 
HETATM   15  C18 UNK     1      30.102  -6.945  35.256  1.00  0.00     0.194 A 
HETATM   16  O6  UNK     1      31.107  -6.336  34.915  1.00  0.00    -0.287 OA
HETATM   17  C20 UNK     1      29.355  -6.582  36.475  1.00  0.00     0.050 A 
HETATM   18  C21 UNK     1      28.215  -7.311  36.815  1.00  0.00     0.089 A 
HETATM   19  C22 UNK     1      29.780  -5.523  37.281  1.00  0.00     0.042 A 
HETATM   20  O4  UNK     1      27.754  -8.359  36.060  1.00  0.00    -0.321 OA
HETATM   21  C23 UNK     1      27.494  -6.985  37.963  1.00  0.00     0.040 A 
HETATM   22  C19 UNK     1      28.458  -8.686  34.927  1.00  0.00     0.154 A 
HETATM   23  C25 UNK     1      27.916  -5.928  38.770  1.00  0.00     0.026 A 
HETATM   24  C24 UNK     1      29.057  -5.199  38.430  1.00  0.00     0.035 A 
HETATM   25 Cl1  UNK     1      29.572  -3.896  39.430  1.00  0.00    -0.084 Cl
ENDBRANCH   3  14
BRANCH   7  26
HETATM   26  C16 UNK     1      29.359  -6.627  31.748  1.00  0.00     0.292 C 
HETATM   27  O5  UNK     1      28.325  -6.010  31.918  1.00  0.00    -0.259 OA
BRANCH  26  28
HETATM   28  O2  UNK     1      30.559  -6.156  31.330  1.00  0.00    -0.315 OA
BRANCH  28  29
HETATM   29  C14 UNK     1      30.605  -5.747  29.959  1.00  0.00     0.211 C 
BRANCH  29  30
HETATM   30  C10 UNK     1      31.667  -6.554  29.238  1.00  0.00     0.145 C 
HETATM   31  O1  UNK     1      31.043  -7.513  28.367  1.00  0.00    -0.384 OA
HETATM   32  C15 UNK     1      31.762  -8.752  28.468  1.00  0.00     0.168 C 
HETATM   33  C13 UNK     1      33.013  -8.472  29.271  1.00  0.00     0.029 C 
HETATM   34  C12 UNK     1      32.562  -7.350  30.172  1.00  0.00     0.036 C 
ENDBRANCH  29  30
ENDBRANCH  28  29
ENDBRANCH  26  28
ENDBRANCH   7  26
TORSDOF 5
ENDMDL
MODEL 3
REMARK VINA RESULT:      -8.4      2.153      3.715
REMARK  5 active torsions:
REMARK  status: ('A' for Active; 'I' for Inactive)
REMARK    1  A    between atoms: C14_22  and  O2_3 
REMARK    2  A    between atoms: C16_24  and  O2_3 
REMARK    3  A    between atoms: C1_9  and  C11_19 
REMARK    4  A    between atoms: C16_24  and  C5_13 
REMARK    5  A    between atoms: C10_18  and  C14_22 
ROOT
HETATM    1  O3  UNK     1      32.340  -8.920  34.902  1.00  0.00    -0.293 OA
HETATM    2  N1  UNK     1      30.486  -6.352  38.429  1.00  0.00    -0.362 N 
HETATM    3  C1  UNK     1      29.932  -8.095  36.258  1.00  0.00     0.104 C 
HETATM    4  C2  UNK     1      31.337  -7.620  36.617  1.00  0.00     0.024 C 
HETATM    5  C3  UNK     1      31.546  -6.777  37.650  1.00  0.00     0.020 C 
HETATM    6  C4  UNK     1      32.912  -6.284  38.055  1.00  0.00     0.058 C 
HETATM    7  C5  UNK     1      28.884  -7.668  37.287  1.00  0.00     0.052 C 
HETATM    8  C6  UNK     1      34.027  -7.200  37.563  1.00  0.00     0.014 C 
HETATM    9  C7  UNK     1      33.863  -7.512  36.088  1.00  0.00     0.084 C 
HETATM   10  C8  UNK     1      32.499  -8.102  35.808  1.00  0.00     0.158 C 
HETATM   11  C9  UNK     1      29.186  -6.813  38.290  1.00  0.00     0.018 C 
HETATM   12  C17 UNK     1      28.217  -6.294  39.318  1.00  0.00     0.069 C 
HETATM   13  H9  UNK     1      30.684  -5.718  39.194  1.00  0.00     0.165 HD
ENDROOT
BRANCH   3  14
HETATM   14  C11 UNK     1      29.542  -7.603  34.890  1.00  0.00     0.029 A 
HETATM   15  C18 UNK     1      29.186  -8.602  33.852  1.00  0.00     0.194 A 
HETATM   16  O6  UNK     1      29.198  -9.805  34.075  1.00  0.00    -0.287 OA
HETATM   17  C20 UNK     1      28.812  -8.065  32.529  1.00  0.00     0.050 A 
HETATM   18  C21 UNK     1      28.814  -6.684  32.333  1.00  0.00     0.089 A 
HETATM   19  C22 UNK     1      28.460  -8.925  31.486  1.00  0.00     0.042 A 
HETATM   20  O4  UNK     1      29.151  -5.795  33.322  1.00  0.00    -0.321 OA
HETATM   21  C23 UNK     1      28.464  -6.155  31.090  1.00  0.00     0.040 A 
HETATM   22  C19 UNK     1      29.497  -6.309  34.547  1.00  0.00     0.154 A 
HETATM   23  C25 UNK     1      28.112  -7.011  30.047  1.00  0.00     0.026 A 
HETATM   24  C24 UNK     1      28.110  -8.393  30.244  1.00  0.00     0.035 A 
HETATM   25 Cl1  UNK     1      27.675  -9.443  28.952  1.00  0.00    -0.084 Cl
ENDBRANCH   3  14
BRANCH   7  26
HETATM   26  C16 UNK     1      27.549  -8.277  37.161  1.00  0.00     0.292 C 
HETATM   27  O5  UNK     1      26.540  -7.636  36.935  1.00  0.00    -0.259 OA
BRANCH  26  28
HETATM   28  O2  UNK     1      27.673  -9.615  37.335  1.00  0.00    -0.315 OA
BRANCH  28  29
HETATM   29  C14 UNK     1      26.478 -10.285  37.751  1.00  0.00     0.211 C 
BRANCH  29  30
HETATM   30  C10 UNK     1      25.756 -10.814  36.527  1.00  0.00     0.145 C 
HETATM   31  O1  UNK     1      24.529 -10.090  36.334  1.00  0.00    -0.384 OA
HETATM   32  C15 UNK     1      23.504 -11.025  35.962  1.00  0.00     0.168 C 
HETATM   33  C13 UNK     1      24.190 -12.349  35.701  1.00  0.00     0.029 C 
HETATM   34  C12 UNK     1      25.370 -12.278  36.637  1.00  0.00     0.036 C 
ENDBRANCH  29  30
ENDBRANCH  28  29
ENDBRANCH  26  28
ENDBRANCH   7  26
TORSDOF 5
ENDMDL
MODEL 4
REMARK VINA RESULT:      -8.3      1.795      4.608
REMARK  5 active torsions:
REMARK  status: ('A' for Active; 'I' for Inactive)
REMARK    1  A    between atoms: C14_22  and  O2_3 
REMARK    2  A    between atoms: C16_24  and  O2_3 
REMARK    3  A    between atoms: C1_9  and  C11_19 
REMARK    4  A    between atoms: C16_24  and  C5_13 
REMARK    5  A    between atoms: C10_18  and  C14_22 
ROOT
HETATM    1  O3  UNK     1      27.883  -7.860  36.522  1.00  0.00    -0.293 OA
HETATM    2  N1  UNK     1      32.510  -8.856  36.786  1.00  0.00    -0.362 N 
HETATM    3  C1  UNK     1      30.509  -7.358  35.440  1.00  0.00     0.104 C 
HETATM    4  C2  UNK     1      30.207  -8.346  36.564  1.00  0.00     0.024 C 
HETATM    5  C3  UNK     1      31.193  -9.047  37.162  1.00  0.00     0.020 C 
HETATM    6  C4  UNK     1      30.953 -10.027  38.281  1.00  0.00     0.058 C 
HETATM    7  C5  UNK     1      32.009  -7.141  35.234  1.00  0.00     0.052 C 
HETATM    8  C6  UNK     1      29.638  -9.767  39.007  1.00  0.00     0.014 C 
HETATM    9  C7  UNK     1      28.494  -9.617  38.021  1.00  0.00     0.084 C 
HETATM   10  C8  UNK     1      28.791  -8.534  37.008  1.00  0.00     0.158 C 
HETATM   11  C9  UNK     1      32.928  -7.898  35.877  1.00  0.00     0.018 C 
HETATM   12  C17 UNK     1      34.420  -7.796  35.703  1.00  0.00     0.069 C 
HETATM   13  H9  UNK     1      33.222  -9.403  37.258  1.00  0.00     0.165 HD
ENDROOT
BRANCH   3  14
HETATM   14  C11 UNK     1      29.872  -7.810  34.155  1.00  0.00     0.029 A 
HETATM   15  C18 UNK     1      28.867  -6.927  33.513  1.00  0.00     0.194 A 
HETATM   16  O6  UNK     1      28.545  -5.849  33.994  1.00  0.00    -0.287 OA
HETATM   17  C20 UNK     1      28.273  -7.419  32.254  1.00  0.00     0.050 A 
HETATM   18  C21 UNK     1      28.679  -8.655  31.751  1.00  0.00     0.089 A 
HETATM   19  C22 UNK     1      27.318  -6.660  31.573  1.00  0.00     0.042 A 
HETATM   20  O4  UNK     1      29.613  -9.441  32.378  1.00  0.00    -0.321 OA
HETATM   21  C23 UNK     1      28.131  -9.139  30.563  1.00  0.00     0.040 A 
HETATM   22  C19 UNK     1      30.157  -8.970  33.548  1.00  0.00     0.154 A 
HETATM   23  C25 UNK     1      27.178  -8.384  29.881  1.00  0.00     0.026 A 
HETATM   24  C24 UNK     1      26.772  -7.147  30.386  1.00  0.00     0.035 A 
HETATM   25 Cl1  UNK     1      25.594  -6.220  29.538  1.00  0.00    -0.084 Cl
ENDBRANCH   3  14
BRANCH   7  26
HETATM   26  C16 UNK     1      32.399  -6.033  34.346  1.00  0.00     0.292 C 
HETATM   27  O5  UNK     1      33.094  -6.181  33.359  1.00  0.00    -0.259 OA
BRANCH  26  28
HETATM   28  O2  UNK     1      31.855  -4.889  34.827  1.00  0.00    -0.315 OA
BRANCH  28  29
HETATM   29  C14 UNK     1      32.744  -4.075  35.601  1.00  0.00     0.211 C 
BRANCH  29  30
HETATM   30  C10 UNK     1      32.227  -3.994  37.024  1.00  0.00     0.145 C 
HETATM   31  O1  UNK     1      32.796  -5.055  37.810  1.00  0.00    -0.384 OA
HETATM   32  C15 UNK     1      31.768  -5.596  38.655  1.00  0.00     0.168 C 
HETATM   33  C13 UNK     1      30.572  -4.677  38.537  1.00  0.00     0.029 C 
HETATM   34  C12 UNK     1      30.720  -4.150  37.131  1.00  0.00     0.036 C 
ENDBRANCH  29  30
ENDBRANCH  28  29
ENDBRANCH  26  28
ENDBRANCH   7  26
TORSDOF 5
ENDMDL
MODEL 5
REMARK VINA RESULT:      -8.2      2.596      3.915
REMARK  5 active torsions:
REMARK  status: ('A' for Active; 'I' for Inactive)
REMARK    1  A    between atoms: C14_22  and  O2_3 
REMARK    2  A    between atoms: C16_24  and  O2_3 
REMARK    3  A    between atoms: C1_9  and  C11_19 
REMARK    4  A    between atoms: C16_24  and  C5_13 
REMARK    5  A    between atoms: C10_18  and  C14_22 
ROOT
HETATM    1  O3  UNK     1      34.730  -8.944  32.107  1.00  0.00    -0.293 OA
HETATM    2  N1  UNK     1      34.288  -7.289  36.527  1.00  0.00    -0.362 N 
HETATM    3  C1  UNK     1      33.064  -8.798  34.457  1.00  0.00     0.104 C 
HETATM    4  C2  UNK     1      34.417  -8.109  34.308  1.00  0.00     0.024 C 
HETATM    5  C3  UNK     1      34.950  -7.389  35.318  1.00  0.00     0.020 C 
HETATM    6  C4  UNK     1      36.286  -6.697  35.228  1.00  0.00     0.058 C 
HETATM    7  C5  UNK     1      32.521  -8.727  35.886  1.00  0.00     0.052 C 
HETATM    8  C6  UNK     1      37.181  -7.301  34.152  1.00  0.00     0.014 C 
HETATM    9  C7  UNK     1      36.434  -7.438  32.838  1.00  0.00     0.084 C 
HETATM   10  C8  UNK     1      35.165  -8.241  33.018  1.00  0.00     0.158 C 
HETATM   11  C9  UNK     1      33.122  -7.972  36.833  1.00  0.00     0.018 C 
HETATM   12  C17 UNK     1      32.637  -7.798  38.248  1.00  0.00     0.069 C 
HETATM   13  H9  UNK     1      34.719  -6.737  37.260  1.00  0.00     0.165 HD
ENDROOT
BRANCH   3  14
HETATM   14  C11 UNK     1      32.066  -8.212  33.496  1.00  0.00     0.029 A 
HETATM   15  C18 UNK     1      31.354  -9.126  32.568  1.00  0.00     0.194 A 
HETATM   16  O6  UNK     1      31.553 -10.333  32.562  1.00  0.00    -0.287 OA
HETATM   17  C20 UNK     1      30.387  -8.499  31.647  1.00  0.00     0.050 A 
HETATM   18  C21 UNK     1      30.198  -7.118  31.698  1.00  0.00     0.089 A 
HETATM   19  C22 UNK     1      29.666  -9.275  30.735  1.00  0.00     0.042 A 
HETATM   20  O4  UNK     1      30.879  -6.309  32.573  1.00  0.00    -0.321 OA
HETATM   21  C23 UNK     1      29.289  -6.505  30.836  1.00  0.00     0.040 A 
HETATM   22  C19 UNK     1      31.776  -6.906  33.424  1.00  0.00     0.154 A 
HETATM   23  C25 UNK     1      28.568  -7.277  29.925  1.00  0.00     0.026 A 
HETATM   24  C24 UNK     1      28.757  -8.658  29.874  1.00  0.00     0.035 A 
HETATM   25 Cl1  UNK     1      27.865  -9.605  28.747  1.00  0.00    -0.084 Cl
ENDBRANCH   3  14
BRANCH   7  26
HETATM   26  C16 UNK     1      31.347  -9.564  36.187  1.00  0.00     0.292 C 
HETATM   27  O5  UNK     1      31.427 -10.721  36.551  1.00  0.00    -0.259 OA
BRANCH  26  28
HETATM   28  O2  UNK     1      30.231  -8.821  35.987  1.00  0.00    -0.315 OA
BRANCH  28  29
HETATM   29  C14 UNK     1      29.339  -8.756  37.105  1.00  0.00     0.211 C 
BRANCH  29  30
HETATM   30  C10 UNK     1      28.899  -7.318  37.303  1.00  0.00     0.145 C 
HETATM   31  O1  UNK     1      29.674  -6.451  36.458  1.00  0.00    -0.384 OA
HETATM   32  C15 UNK     1      30.015  -5.274  37.207  1.00  0.00     0.168 C 
HETATM   33  C13 UNK     1      29.224  -5.328  38.497  1.00  0.00     0.029 C 
HETATM   34  C12 UNK     1      29.096  -6.814  38.721  1.00  0.00     0.036 C 
ENDBRANCH  29  30
ENDBRANCH  28  29
ENDBRANCH  26  28
ENDBRANCH   7  26
TORSDOF 5
ENDMDL
MODEL 6
REMARK VINA RESULT:      -8.2      3.047      6.418
REMARK  5 active torsions:
REMARK  status: ('A' for Active; 'I' for Inactive)
REMARK    1  A    between atoms: C14_22  and  O2_3 
REMARK    2  A    between atoms: C16_24  and  O2_3 
REMARK    3  A    between atoms: C1_9  and  C11_19 
REMARK    4  A    between atoms: C16_24  and  C5_13 
REMARK    5  A    between atoms: C10_18  and  C14_22 
ROOT
HETATM    1  O3  UNK     1      31.324  -5.436  36.585  1.00  0.00    -0.293 OA
HETATM    2  N1  UNK     1      33.930  -8.839  34.562  1.00  0.00    -0.362 N 
HETATM    3  C1  UNK     1      31.303  -7.888  35.065  1.00  0.00     0.104 C 
HETATM    4  C2  UNK     1      32.561  -7.201  35.589  1.00  0.00     0.024 C 
HETATM    5  C3  UNK     1      33.789  -7.703  35.335  1.00  0.00     0.020 C 
HETATM    6  C4  UNK     1      35.063  -7.061  35.819  1.00  0.00     0.058 C 
HETATM    7  C5  UNK     1      31.615  -9.039  34.108  1.00  0.00     0.052 C 
HETATM    8  C6  UNK     1      34.883  -5.581  36.137  1.00  0.00     0.014 C 
HETATM    9  C7  UNK     1      33.671  -5.360  37.023  1.00  0.00     0.084 C 
HETATM   10  C8  UNK     1      32.427  -5.947  36.394  1.00  0.00     0.158 C 
HETATM   11  C9  UNK     1      32.881  -9.479  33.920  1.00  0.00     0.018 C 
HETATM   12  C17 UNK     1      33.283 -10.634  33.042  1.00  0.00     0.069 C 
HETATM   13  H9  UNK     1      34.868  -9.187  34.395  1.00  0.00     0.165 HD
ENDROOT
BRANCH   3  14
HETATM   14  C11 UNK     1      30.458  -8.380  36.207  1.00  0.00     0.029 A 
HETATM   15  C18 UNK     1      29.058  -7.897  36.314  1.00  0.00     0.194 A 
HETATM   16  O6  UNK     1      28.576  -7.115  35.505  1.00  0.00    -0.287 OA
HETATM   17  C20 UNK     1      28.274  -8.411  37.453  1.00  0.00     0.050 A 
HETATM   18  C21 UNK     1      28.875  -9.301  38.343  1.00  0.00     0.089 A 
HETATM   19  C22 UNK     1      26.947  -8.016  37.640  1.00  0.00     0.042 A 
HETATM   20  O4  UNK     1      30.173  -9.723  38.207  1.00  0.00    -0.321 OA
HETATM   21  C23 UNK     1      28.151  -9.800  39.427  1.00  0.00     0.040 A 
HETATM   22  C19 UNK     1      30.891  -9.236  37.142  1.00  0.00     0.154 A 
HETATM   23  C25 UNK     1      26.827  -9.407  39.616  1.00  0.00     0.026 A 
HETATM   24  C24 UNK     1      26.226  -8.516  38.725  1.00  0.00     0.035 A 
HETATM   25 Cl1  UNK     1      24.591  -8.035  38.965  1.00  0.00    -0.084 Cl
ENDBRANCH   3  14
BRANCH   7  26
HETATM   26  C16 UNK     1      30.477  -9.606  33.364  1.00  0.00     0.292 C 
HETATM   27  O5  UNK     1      29.990 -10.692  33.614  1.00  0.00    -0.259 OA
BRANCH  26  28
HETATM   28  O2  UNK     1      30.109  -8.719  32.408  1.00  0.00    -0.315 OA
BRANCH  28  29
HETATM   29  C14 UNK     1      30.054  -9.250  31.079  1.00  0.00     0.211 C 
BRANCH  29  30
HETATM   30  C10 UNK     1      29.058  -8.447  30.267  1.00  0.00     0.145 C 
HETATM   31  O1  UNK     1      29.426  -7.057  30.281  1.00  0.00    -0.384 OA
HETATM   32  C15 UNK     1      28.233  -6.273  30.439  1.00  0.00     0.168 C 
HETATM   33  C13 UNK     1      27.061  -7.220  30.294  1.00  0.00     0.029 C 
HETATM   34  C12 UNK     1      27.640  -8.514  30.808  1.00  0.00     0.036 C 
ENDBRANCH  29  30
ENDBRANCH  28  29
ENDBRANCH  26  28
ENDBRANCH   7  26
TORSDOF 5
ENDMDL
MODEL 7
REMARK VINA RESULT:      -8.1      2.427      4.047
REMARK  5 active torsions:
REMARK  status: ('A' for Active; 'I' for Inactive)
REMARK    1  A    between atoms: C14_22  and  O2_3 
REMARK    2  A    between atoms: C16_24  and  O2_3 
REMARK    3  A    between atoms: C1_9  and  C11_19 
REMARK    4  A    between atoms: C16_24  and  C5_13 
REMARK    5  A    between atoms: C10_18  and  C14_22 
ROOT
HETATM    1  O3  UNK     1      32.054  -4.714  36.363  1.00  0.00    -0.293 OA
HETATM    2  N1  UNK     1      28.381  -7.290  37.893  1.00  0.00    -0.362 N 
HETATM    3  C1  UNK     1      30.674  -7.243  36.222  1.00  0.00     0.104 C 
HETATM    4  C2  UNK     1      30.212  -6.047  37.048  1.00  0.00     0.024 C 
HETATM    5  C3  UNK     1      29.103  -6.114  37.816  1.00  0.00     0.020 C 
HETATM    6  C4  UNK     1      28.607  -4.968  38.658  1.00  0.00     0.058 C 
HETATM    7  C5  UNK     1      29.871  -8.511  36.519  1.00  0.00     0.052 C 
HETATM    8  C6  UNK     1      29.707  -3.962  38.974  1.00  0.00     0.014 C 
HETATM    9  C7  UNK     1      30.456  -3.563  37.716  1.00  0.00     0.084 C 
HETATM   10  C8  UNK     1      31.006  -4.779  37.005  1.00  0.00     0.158 C 
HETATM   11  C9  UNK     1      28.768  -8.481  37.300  1.00  0.00     0.018 C 
HETATM   12  C17 UNK     1      27.884  -9.660  37.608  1.00  0.00     0.069 C 
HETATM   13  H9  UNK     1      27.553  -7.301  38.479  1.00  0.00     0.165 HD
ENDROOT
BRANCH   3  14
HETATM   14  C11 UNK     1      30.612  -6.925  34.753  1.00  0.00     0.029 A 
HETATM   15  C18 UNK     1      31.742  -7.347  33.887  1.00  0.00     0.194 A 
HETATM   16  O6  UNK     1      32.715  -7.942  34.330  1.00  0.00    -0.287 OA
HETATM   17  C20 UNK     1      31.629  -7.010  32.455  1.00  0.00     0.050 A 
HETATM   18  C21 UNK     1      30.496  -6.331  32.005  1.00  0.00     0.089 A 
HETATM   19  C22 UNK     1      32.640  -7.364  31.558  1.00  0.00     0.042 A 
HETATM   20  O4  UNK     1      29.474  -5.959  32.841  1.00  0.00    -0.321 OA
HETATM   21  C23 UNK     1      30.369  -6.002  30.655  1.00  0.00     0.040 A 
HETATM   22  C19 UNK     1      29.593  -6.280  34.171  1.00  0.00     0.154 A 
HETATM   23  C25 UNK     1      31.377  -6.355  29.758  1.00  0.00     0.026 A 
HETATM   24  C24 UNK     1      32.510  -7.034  30.209  1.00  0.00     0.035 A 
HETATM   25 Cl1  UNK     1      33.751  -7.465  29.096  1.00  0.00    -0.084 Cl
ENDBRANCH   3  14
BRANCH   7  26
HETATM   26  C16 UNK     1      30.393  -9.769  35.957  1.00  0.00     0.292 C 
HETATM   27  O5  UNK     1      31.339 -10.369  36.429  1.00  0.00    -0.259 OA
BRANCH  26  28
HETATM   28  O2  UNK     1      29.645 -10.095  34.876  1.00  0.00    -0.315 OA
BRANCH  28  29
HETATM   29  C14 UNK     1      30.355 -10.763  33.827  1.00  0.00     0.211 C 
BRANCH  29  30
HETATM   30  C10 UNK     1      29.544 -10.679  32.549  1.00  0.00     0.145 C 
HETATM   31  O1  UNK     1      30.422 -10.705  31.411  1.00  0.00    -0.384 OA
HETATM   32  C15 UNK     1      29.951  -9.746  30.452  1.00  0.00     0.168 C 
HETATM   33  C13 UNK     1      28.597  -9.271  30.933  1.00  0.00     0.029 C 
HETATM   34  C12 UNK     1      28.734  -9.400  32.429  1.00  0.00     0.036 C 
ENDBRANCH  29  30
ENDBRANCH  28  29
ENDBRANCH  26  28
ENDBRANCH   7  26
TORSDOF 5
ENDMDL
MODEL 8
REMARK VINA RESULT:      -8.1      2.257      5.681
REMARK  5 active torsions:
REMARK  status: ('A' for Active; 'I' for Inactive)
REMARK    1  A    between atoms: C14_22  and  O2_3 
REMARK    2  A    between atoms: C16_24  and  O2_3 
REMARK    3  A    between atoms: C1_9  and  C11_19 
REMARK    4  A    between atoms: C16_24  and  C5_13 
REMARK    5  A    between atoms: C10_18  and  C14_22 
ROOT
HETATM    1  O3  UNK     1      27.454  -8.606  36.085  1.00  0.00    -0.293 OA
HETATM    2  N1  UNK     1      30.896  -5.572  37.274  1.00  0.00    -0.362 N 
HETATM    3  C1  UNK     1      29.870  -7.272  35.246  1.00  0.00     0.104 C 
HETATM    4  C2  UNK     1      29.236  -7.133  36.627  1.00  0.00     0.024 C 
HETATM    5  C3  UNK     1      29.772  -6.323  37.564  1.00  0.00     0.020 C 
HETATM    6  C4  UNK     1      29.183  -6.141  38.939  1.00  0.00     0.058 C 
HETATM    7  C5  UNK     1      31.010  -6.278  35.018  1.00  0.00     0.052 C 
HETATM    8  C6  UNK     1      27.705  -6.512  38.990  1.00  0.00     0.014 C 
HETATM    9  C7  UNK     1      27.464  -7.870  38.357  1.00  0.00     0.084 C 
HETATM   10  C8  UNK     1      27.997  -7.910  36.942  1.00  0.00     0.158 C 
HETATM   11  C9  UNK     1      31.486  -5.507  36.022  1.00  0.00     0.018 C 
HETATM   12  C17 UNK     1      32.634  -4.540  35.911  1.00  0.00     0.069 C 
HETATM   13  H9  UNK     1      31.270  -4.976  38.004  1.00  0.00     0.165 HD
ENDROOT
BRANCH   3  14
HETATM   14  C11 UNK     1      30.360  -8.678  35.029  1.00  0.00     0.029 A 
HETATM   15  C18 UNK     1      29.996  -9.369  33.767  1.00  0.00     0.194 A 
HETATM   16  O6  UNK     1      29.316  -8.832  32.902  1.00  0.00    -0.287 OA
HETATM   17  C20 UNK     1      30.502 -10.745  33.606  1.00  0.00     0.050 A 
HETATM   18  C21 UNK     1      31.275 -11.307  34.622  1.00  0.00     0.089 A 
HETATM   19  C22 UNK     1      30.215 -11.480  32.452  1.00  0.00     0.042 A 
HETATM   20  O4  UNK     1      31.587 -10.632  35.775  1.00  0.00    -0.321 OA
HETATM   21  C23 UNK     1      31.763 -12.607  34.491  1.00  0.00     0.040 A 
HETATM   22  C19 UNK     1      31.109  -9.352  35.911  1.00  0.00     0.154 A 
HETATM   23  C25 UNK     1      31.478 -13.342  33.341  1.00  0.00     0.026 A 
HETATM   24  C24 UNK     1      30.705 -12.779  32.324  1.00  0.00     0.035 A 
HETATM   25 Cl1  UNK     1      30.357 -13.693  30.907  1.00  0.00    -0.084 Cl
ENDBRANCH   3  14
BRANCH   7  26
HETATM   26  C16 UNK     1      31.523  -6.167  33.642  1.00  0.00     0.292 C 
HETATM   27  O5  UNK     1      32.574  -6.659  33.278  1.00  0.00    -0.259 OA
BRANCH  26  28
HETATM   28  O2  UNK     1      30.634  -5.449  32.912  1.00  0.00    -0.315 OA
BRANCH  28  29
HETATM   29  C14 UNK     1      30.541  -5.823  31.533  1.00  0.00     0.211 C 
BRANCH  29  30
HETATM   30  C10 UNK     1      29.112  -5.627  31.064  1.00  0.00     0.145 C 
HETATM   31  O1  UNK     1      28.216  -5.705  32.186  1.00  0.00    -0.384 OA
HETATM   32  C15 UNK     1      27.059  -6.458  31.791  1.00  0.00     0.168 C 
HETATM   33  C13 UNK     1      27.156  -6.662  30.294  1.00  0.00     0.029 C 
HETATM   34  C12 UNK     1      28.648  -6.684  30.078  1.00  0.00     0.036 C 
ENDBRANCH  29  30
ENDBRANCH  28  29
ENDBRANCH  26  28
ENDBRANCH   7  26
TORSDOF 5
ENDMDL
MODEL 9
REMARK VINA RESULT:      -8.1      2.130      3.240
REMARK  5 active torsions:
REMARK  status: ('A' for Active; 'I' for Inactive)
REMARK    1  A    between atoms: C14_22  and  O2_3 
REMARK    2  A    between atoms: C16_24  and  O2_3 
REMARK    3  A    between atoms: C1_9  and  C11_19 
REMARK    4  A    between atoms: C16_24  and  C5_13 
REMARK    5  A    between atoms: C10_18  and  C14_22 
ROOT
HETATM    1  O3  UNK     1      33.575  -8.448  33.685  1.00  0.00    -0.293 OA
HETATM    2  N1  UNK     1      32.855  -5.226  37.086  1.00  0.00    -0.362 N 
HETATM    3  C1  UNK     1      31.653  -7.199  35.437  1.00  0.00     0.104 C 
HETATM    4  C2  UNK     1      33.130  -6.820  35.356  1.00  0.00     0.024 C 
HETATM    5  C3  UNK     1      33.650  -5.862  36.152  1.00  0.00     0.020 C 
HETATM    6  C4  UNK     1      35.101  -5.456  36.121  1.00  0.00     0.058 C 
HETATM    7  C5  UNK     1      30.935  -6.525  36.608  1.00  0.00     0.052 C 
HETATM    8  C6  UNK     1      35.994  -6.540  35.528  1.00  0.00     0.014 C 
HETATM    9  C7  UNK     1      35.435  -7.044  34.211  1.00  0.00     0.084 C 
HETATM   10  C8  UNK     1      34.012  -7.528  34.377  1.00  0.00     0.158 C 
HETATM   11  C9  UNK     1      31.538  -5.568  37.350  1.00  0.00     0.018 C 
HETATM   12  C17 UNK     1      30.901  -4.813  38.485  1.00  0.00     0.069 C 
HETATM   13  H9  UNK     1      33.282  -4.511  37.664  1.00  0.00     0.165 HD
ENDROOT
BRANCH   3  14
HETATM   14  C11 UNK     1      30.954  -6.873  34.146  1.00  0.00     0.029 A 
HETATM   15  C18 UNK     1      30.333  -7.980  33.376  1.00  0.00     0.194 A 
HETATM   16  O6  UNK     1      30.373  -9.142  33.759  1.00  0.00    -0.287 OA
HETATM   17  C20 UNK     1      29.661  -7.605  32.118  1.00  0.00     0.050 A 
HETATM   18  C21 UNK     1      29.645  -6.265  31.731  1.00  0.00     0.089 A 
HETATM   19  C22 UNK     1      29.046  -8.575  31.322  1.00  0.00     0.042 A 
HETATM   20  O4  UNK     1      30.233  -5.272  32.473  1.00  0.00    -0.321 OA
HETATM   21  C23 UNK     1      29.015  -5.888  30.545  1.00  0.00     0.040 A 
HETATM   22  C19 UNK     1      30.855  -5.636  33.642  1.00  0.00     0.154 A 
HETATM   23  C25 UNK     1      28.400  -6.854  29.749  1.00  0.00     0.026 A 
HETATM   24  C24 UNK     1      28.416  -8.195  30.137  1.00  0.00     0.035 A 
HETATM   25 Cl1  UNK     1      27.656  -9.382  29.149  1.00  0.00    -0.084 Cl
ENDBRANCH   3  14
BRANCH   7  26
HETATM   26  C16 UNK     1      29.579  -7.009  36.916  1.00  0.00     0.292 C 
HETATM   27  O5  UNK     1      28.578  -6.338  36.755  1.00  0.00    -0.259 OA
BRANCH  26  28
HETATM   28  O2  UNK     1      29.676  -8.277  37.385  1.00  0.00    -0.315 OA
BRANCH  28  29
HETATM   29  C14 UNK     1      28.807  -9.223  36.754  1.00  0.00     0.211 C 
BRANCH  29  30
HETATM   30  C10 UNK     1      27.809  -9.735  37.774  1.00  0.00     0.145 C 
HETATM   31  O1  UNK     1      26.668  -8.861  37.820  1.00  0.00    -0.384 OA
HETATM   32  C15 UNK     1      26.287  -8.684  39.193  1.00  0.00     0.168 C 
HETATM   33  C13 UNK     1      27.098  -9.670  40.006  1.00  0.00     0.029 C 
HETATM   34  C12 UNK     1      28.359  -9.786  39.188  1.00  0.00     0.036 C 
ENDBRANCH  29  30
ENDBRANCH  28  29
ENDBRANCH  26  28
ENDBRANCH   7  26
TORSDOF 5
ENDMDL
MODEL 10
REMARK VINA RESULT:      -8.1      3.198      5.935
REMARK  5 active torsions:
REMARK  status: ('A' for Active; 'I' for Inactive)
REMARK    1  A    between atoms: C14_22  and  O2_3 
REMARK    2  A    between atoms: C16_24  and  O2_3 
REMARK    3  A    between atoms: C1_9  and  C11_19 
REMARK    4  A    between atoms: C16_24  and  C5_13 
REMARK    5  A    between atoms: C10_18  and  C14_22 
ROOT
HETATM    1  O3  UNK     1      31.291  -9.413  34.083  1.00  0.00    -0.293 OA
HETATM    2  N1  UNK     1      31.298  -4.699  34.573  1.00  0.00    -0.362 N 
HETATM    3  C1  UNK     1      31.865  -7.184  35.821  1.00  0.00     0.104 C 
HETATM    4  C2  UNK     1      31.277  -7.063  34.418  1.00  0.00     0.024 C 
HETATM    5  C3  UNK     1      31.010  -5.856  33.875  1.00  0.00     0.020 C 
HETATM    6  C4  UNK     1      30.439  -5.678  32.491  1.00  0.00     0.058 C 
HETATM    7  C5  UNK     1      32.268  -5.831  36.411  1.00  0.00     0.052 C 
HETATM    8  C6  UNK     1      30.687  -6.891  31.601  1.00  0.00     0.014 C 
HETATM    9  C7  UNK     1      30.286  -8.173  32.306  1.00  0.00     0.084 C 
HETATM   10  C8  UNK     1      30.997  -8.306  33.634  1.00  0.00     0.158 C 
HETATM   11  C9  UNK     1      31.952  -4.670  35.795  1.00  0.00     0.018 C 
HETATM   12  C17 UNK     1      32.257  -3.292  36.318  1.00  0.00     0.069 C 
HETATM   13  H9  UNK     1      31.081  -3.812  34.132  1.00  0.00     0.165 HD
ENDROOT
BRANCH   3  14
HETATM   14  C11 UNK     1      30.898  -7.880  36.739  1.00  0.00     0.029 A 
HETATM   15  C18 UNK     1      29.511  -7.360  36.835  1.00  0.00     0.194 A 
HETATM   16  O6  UNK     1      29.134  -6.389  36.193  1.00  0.00    -0.287 OA
HETATM   17  C20 UNK     1      28.604  -8.079  37.750  1.00  0.00     0.050 A 
HETATM   18  C21 UNK     1      29.087  -9.181  38.456  1.00  0.00     0.089 A 
HETATM   19  C22 UNK     1      27.279  -7.667  37.909  1.00  0.00     0.042 A 
HETATM   20  O4  UNK     1      30.379  -9.629  38.338  1.00  0.00    -0.321 OA
HETATM   21  C23 UNK     1      28.247  -9.876  39.326  1.00  0.00     0.040 A 
HETATM   22  C19 UNK     1      31.211  -8.949  37.483  1.00  0.00     0.154 A 
HETATM   23  C25 UNK     1      26.924  -9.466  39.486  1.00  0.00     0.026 A 
HETATM   24  C24 UNK     1      26.441  -8.364  38.780  1.00  0.00     0.035 A 
HETATM   25 Cl1  UNK     1      24.806  -7.864  38.983  1.00  0.00    -0.084 Cl
ENDBRANCH   3  14
BRANCH   7  26
HETATM   26  C16 UNK     1      33.062  -5.863  37.651  1.00  0.00     0.292 C 
HETATM   27  O5  UNK     1      32.692  -5.359  38.694  1.00  0.00    -0.259 OA
BRANCH  26  28
HETATM   28  O2  UNK     1      34.214  -6.530  37.403  1.00  0.00    -0.315 OA
BRANCH  28  29
HETATM   29  C14 UNK     1      35.121  -5.864  36.517  1.00  0.00     0.211 C 
BRANCH  29  30
HETATM   30  C10 UNK     1      35.296  -6.703  35.266  1.00  0.00     0.145 C 
HETATM   31  O1  UNK     1      36.622  -7.257  35.232  1.00  0.00    -0.384 OA
HETATM   32  C15 UNK     1      37.118  -7.164  33.888  1.00  0.00     0.168 C 
HETATM   33  C13 UNK     1      35.956  -6.735  33.018  1.00  0.00     0.029 C 
HETATM   34  C12 UNK     1      35.133  -5.915  33.979  1.00  0.00     0.036 C 
ENDBRANCH  29  30
ENDBRANCH  28  29
ENDBRANCH  26  28
ENDBRANCH   7  26
TORSDOF 5
ENDMDL
