MODEL 1
REMARK VINA RESULT:      -9.0      0.000      0.000
REMARK  7 active torsions:
REMARK  status: ('A' for Active; 'I' for Inactive)
REMARK    1  A    between atoms: C13_19  and  O1_2 
REMARK    2  A    between atoms: C14_20  and  N1_4 
REMARK       I    between atoms: C9_15  and  N1_4 
REMARK    3  A    between atoms: C1_7  and  C2_8 
REMARK    4  A    between atoms: C1_7  and  C5_11 
REMARK    5  A    between atoms: C3_9  and  C4_10 
REMARK    6  A    between atoms: C3_9  and  C9_15 
REMARK    7  A    between atoms: C10_16  and  C8_14 
ROOT
HETATM    1  O2  UNK     1      28.930  -4.923  39.528  1.00  0.00    -0.267 OA
HETATM    2  N1  UNK     1      27.880  -6.386  38.026  1.00  0.00    -0.300 N 
HETATM    3  C9  UNK     1      28.957  -5.712  38.589  1.00  0.00     0.258 C 
HETATM    4  H8  UNK     1      28.014  -7.023  37.248  1.00  0.00     0.171 HD
ENDROOT
BRANCH   2   5
HETATM    5  C14 UNK     1      26.545  -6.289  38.434  1.00  0.00     0.196 A 
HETATM    6  S1  UNK     1      25.696  -7.759  38.545  1.00  0.00    -0.033 SA
HETATM    7  C5  UNK     1      24.356  -6.809  39.038  1.00  0.00     0.105 A 
HETATM    8  N2  UNK     1      24.589  -5.516  39.094  1.00  0.00    -0.145 NA
HETATM    9  N3  UNK     1      25.891  -5.212  38.735  1.00  0.00    -0.123 NA
BRANCH   7  10
HETATM   10  C1  UNK     1      23.070  -7.458  39.358  1.00  0.00     0.107 C 
BRANCH  10  11
HETATM   11  C2  UNK     1      22.026  -7.340  38.256  1.00  0.00    -0.052 A 
HETATM   12  C6  UNK     1      22.145  -8.138  37.138  1.00  0.00     0.010 A 
HETATM   13  C11 UNK     1      21.188  -8.031  36.128  1.00  0.00     0.037 A 
HETATM   14  C13 UNK     1      20.135  -7.126  36.260  1.00  0.00     0.068 A 
HETATM   15  C12 UNK     1      20.038  -6.330  37.401  1.00  0.00     0.037 A 
HETATM   16  C7  UNK     1      20.994  -6.438  38.411  1.00  0.00     0.010 A 
BRANCH  14  17
HETATM   17  O1  UNK     1      19.201  -7.021  35.276  1.00  0.00    -0.356 OA
HETATM   18  C25 UNK     1      17.861  -7.378  35.611  1.00  0.00     0.210 C 
ENDBRANCH  14  17
ENDBRANCH  10  11
ENDBRANCH   7  10
ENDBRANCH   2   5
BRANCH   3  19
HETATM   19  C3  UNK     1      30.270  -6.050  37.920  1.00  0.00     0.043 C 
HETATM   20  C8  UNK     1      31.173  -5.040  37.816  1.00  0.00     0.029 C 
BRANCH  19  21
HETATM   21  C4  UNK     1      30.535  -7.400  37.379  1.00  0.00    -0.021 A 
HETATM   22  C15 UNK     1      30.370  -7.629  36.025  1.00  0.00     0.012 A 
HETATM   23  C19 UNK     1      30.620  -8.903  35.515  1.00  0.00     0.001 A 
HETATM   24  C21 UNK     1      31.032  -9.927  36.368  1.00  0.00     0.000 A 
HETATM   25  C20 UNK     1      31.193  -9.677  37.731  1.00  0.00     0.001 A 
HETATM   26  C16 UNK     1      30.943  -8.403  38.240  1.00  0.00     0.012 A 
ENDBRANCH  19  21
BRANCH  20  27
HETATM   27  C10 UNK     1      32.478  -5.104  37.177  1.00  0.00    -0.035 A 
HETATM   28  C17 UNK     1      33.499  -5.860  37.752  1.00  0.00     0.011 A 
HETATM   29  C22 UNK     1      34.751  -5.922  37.140  1.00  0.00     0.001 A 
HETATM   30  C24 UNK     1      34.981  -5.228  35.951  1.00  0.00     0.000 A 
HETATM   31  C23 UNK     1      33.959  -4.474  35.376  1.00  0.00     0.001 A 
HETATM   32  C18 UNK     1      32.707  -4.412  35.988  1.00  0.00     0.011 A 
ENDBRANCH  20  27
ENDBRANCH   3  19
TORSDOF 7
ENDMDL
MODEL 2
REMARK VINA RESULT:      -9.0      0.174      1.236
REMARK  7 active torsions:
REMARK  status: ('A' for Active; 'I' for Inactive)
REMARK    1  A    between atoms: C13_19  and  O1_2 
REMARK    2  A    between atoms: C14_20  and  N1_4 
REMARK       I    between atoms: C9_15  and  N1_4 
REMARK    3  A    between atoms: C1_7  and  C2_8 
REMARK    4  A    between atoms: C1_7  and  C5_11 
REMARK    5  A    between atoms: C3_9  and  C4_10 
REMARK    6  A    between atoms: C3_9  and  C9_15 
REMARK    7  A    between atoms: C10_16  and  C8_14 
ROOT
HETATM    1  O2  UNK     1      28.825  -5.069  39.670  1.00  0.00    -0.267 OA
HETATM    2  N1  UNK     1      27.781  -6.424  38.066  1.00  0.00    -0.300 N 
HETATM    3  C9  UNK     1      28.856  -5.796  38.682  1.00  0.00     0.258 C 
HETATM    4  H8  UNK     1      27.918  -7.011  37.250  1.00  0.00     0.171 HD
ENDROOT
BRANCH   2   5
HETATM    5  C14 UNK     1      26.442  -6.343  38.464  1.00  0.00     0.196 A 
HETATM    6  S1  UNK     1      25.619  -7.825  38.604  1.00  0.00    -0.033 SA
HETATM    7  C5  UNK     1      24.259  -6.889  39.069  1.00  0.00     0.105 A 
HETATM    8  N2  UNK     1      24.469  -5.590  39.099  1.00  0.00    -0.145 NA
HETATM    9  N3  UNK     1      25.766  -5.271  38.739  1.00  0.00    -0.123 NA
BRANCH   7  10
HETATM   10  C1  UNK     1      22.983  -7.554  39.397  1.00  0.00     0.107 C 
BRANCH  10  11
HETATM   11  C2  UNK     1      21.946  -7.486  38.283  1.00  0.00    -0.052 A 
HETATM   12  C6  UNK     1      20.799  -6.747  38.487  1.00  0.00     0.010 A 
HETATM   13  C11 UNK     1      19.850  -6.683  37.466  1.00  0.00     0.037 A 
HETATM   14  C13 UNK     1      20.069  -7.361  36.267  1.00  0.00     0.068 A 
HETATM   15  C12 UNK     1      21.237  -8.102  36.088  1.00  0.00     0.037 A 
HETATM   16  C7  UNK     1      22.187  -8.164  37.108  1.00  0.00     0.010 A 
BRANCH  14  17
HETATM   17  O1  UNK     1      19.143  -7.300  35.272  1.00  0.00    -0.356 OA
HETATM   18  C25 UNK     1      17.770  -7.299  35.660  1.00  0.00     0.210 C 
ENDBRANCH  14  17
ENDBRANCH  10  11
ENDBRANCH   7  10
ENDBRANCH   2   5
BRANCH   3  19
HETATM   19  C3  UNK     1      30.173  -6.102  38.007  1.00  0.00     0.043 C 
HETATM   20  C8  UNK     1      31.053  -5.071  37.904  1.00  0.00     0.029 C 
BRANCH  19  21
HETATM   21  C4  UNK     1      30.468  -7.443  37.459  1.00  0.00    -0.021 A 
HETATM   22  C15 UNK     1      30.346  -7.658  36.098  1.00  0.00     0.012 A 
HETATM   23  C19 UNK     1      30.623  -8.923  35.582  1.00  0.00     0.001 A 
HETATM   24  C21 UNK     1      31.018  -9.953  36.435  1.00  0.00     0.000 A 
HETATM   25  C20 UNK     1      31.135  -9.718  37.805  1.00  0.00     0.001 A 
HETATM   26  C16 UNK     1      30.858  -8.452  38.321  1.00  0.00     0.012 A 
ENDBRANCH  19  21
BRANCH  20  27
HETATM   27  C10 UNK     1      32.356  -5.103  37.260  1.00  0.00    -0.035 A 
HETATM   28  C17 UNK     1      32.579  -4.364  36.099  1.00  0.00     0.011 A 
HETATM   29  C22 UNK     1      33.828  -4.393  35.481  1.00  0.00     0.001 A 
HETATM   30  C24 UNK     1      34.857  -5.162  36.025  1.00  0.00     0.000 A 
HETATM   31  C23 UNK     1      34.636  -5.901  37.188  1.00  0.00     0.001 A 
HETATM   32  C18 UNK     1      33.385  -5.871  37.806  1.00  0.00     0.011 A 
ENDBRANCH  20  27
ENDBRANCH   3  19
TORSDOF 7
ENDMDL
MODEL 3
REMARK VINA RESULT:      -8.9      0.141      1.235
REMARK  7 active torsions:
REMARK  status: ('A' for Active; 'I' for Inactive)
REMARK    1  A    between atoms: C13_19  and  O1_2 
REMARK    2  A    between atoms: C14_20  and  N1_4 
REMARK       I    between atoms: C9_15  and  N1_4 
REMARK    3  A    between atoms: C1_7  and  C2_8 
REMARK    4  A    between atoms: C1_7  and  C5_11 
REMARK    5  A    between atoms: C3_9  and  C4_10 
REMARK    6  A    between atoms: C3_9  and  C9_15 
REMARK    7  A    between atoms: C10_16  and  C8_14 
ROOT
HETATM    1  O2  UNK     1      28.849  -4.782  39.415  1.00  0.00    -0.267 OA
HETATM    2  N1  UNK     1      27.845  -6.401  38.048  1.00  0.00    -0.300 N 
HETATM    3  C9  UNK     1      28.899  -5.646  38.546  1.00  0.00     0.258 C 
HETATM    4  H8  UNK     1      27.997  -7.096  37.325  1.00  0.00     0.171 HD
ENDROOT
BRANCH   2   5
HETATM    5  C14 UNK     1      26.508  -6.316  38.454  1.00  0.00     0.196 A 
HETATM    6  S1  UNK     1      25.684  -7.797  38.605  1.00  0.00    -0.033 SA
HETATM    7  C5  UNK     1      24.329  -6.856  39.075  1.00  0.00     0.105 A 
HETATM    8  N2  UNK     1      24.540  -5.558  39.098  1.00  0.00    -0.145 NA
HETATM    9  N3  UNK     1      25.836  -5.242  38.728  1.00  0.00    -0.123 NA
BRANCH   7  10
HETATM   10  C1  UNK     1      23.053  -7.518  39.413  1.00  0.00     0.107 C 
BRANCH  10  11
HETATM   11  C2  UNK     1      22.017  -7.472  38.298  1.00  0.00    -0.052 A 
HETATM   12  C6  UNK     1      22.251  -8.189  37.143  1.00  0.00     0.010 A 
HETATM   13  C11 UNK     1      21.301  -8.148  36.122  1.00  0.00     0.037 A 
HETATM   14  C13 UNK     1      20.141  -7.389  36.278  1.00  0.00     0.068 A 
HETATM   15  C12 UNK     1      19.930  -6.673  37.457  1.00  0.00     0.037 A 
HETATM   16  C7  UNK     1      20.879  -6.715  38.478  1.00  0.00     0.010 A 
BRANCH  14  17
HETATM   17  O1  UNK     1      19.215  -7.349  35.283  1.00  0.00    -0.356 OA
HETATM   18  C25 UNK     1      17.845  -7.256  35.673  1.00  0.00     0.210 C 
ENDBRANCH  14  17
ENDBRANCH  10  11
ENDBRANCH   7  10
ENDBRANCH   2   5
BRANCH   3  19
HETATM   19  C3  UNK     1      30.220  -5.994  37.899  1.00  0.00     0.043 C 
HETATM   20  C8  UNK     1      31.129  -4.988  37.800  1.00  0.00     0.029 C 
BRANCH  19  21
HETATM   21  C4  UNK     1      30.489  -7.349  37.373  1.00  0.00    -0.021 A 
HETATM   22  C15 UNK     1      30.899  -8.342  38.245  1.00  0.00     0.012 A 
HETATM   23  C19 UNK     1      31.153  -9.621  37.750  1.00  0.00     0.001 A 
HETATM   24  C21 UNK     1      30.993  -9.886  36.390  1.00  0.00     0.000 A 
HETATM   25  C20 UNK     1      30.579  -8.872  35.525  1.00  0.00     0.001 A 
HETATM   26  C16 UNK     1      30.325  -7.594  36.022  1.00  0.00     0.012 A 
ENDBRANCH  19  21
BRANCH  20  27
HETATM   27  C10 UNK     1      32.442  -5.062  37.181  1.00  0.00    -0.035 A 
HETATM   28  C17 UNK     1      32.700  -4.359  36.004  1.00  0.00     0.011 A 
HETATM   29  C22 UNK     1      33.959  -4.429  35.411  1.00  0.00     0.001 A 
HETATM   30  C24 UNK     1      34.963  -5.202  35.994  1.00  0.00     0.000 A 
HETATM   31  C23 UNK     1      34.707  -5.905  37.171  1.00  0.00     0.001 A 
HETATM   32  C18 UNK     1      33.446  -5.835  37.765  1.00  0.00     0.011 A 
ENDBRANCH  20  27
ENDBRANCH   3  19
TORSDOF 7
ENDMDL
MODEL 4
REMARK VINA RESULT:      -8.9      7.703     11.846
REMARK  7 active torsions:
REMARK  status: ('A' for Active; 'I' for Inactive)
REMARK    1  A    between atoms: C13_19  and  O1_2 
REMARK    2  A    between atoms: C14_20  and  N1_4 
REMARK       I    between atoms: C9_15  and  N1_4 
REMARK    3  A    between atoms: C1_7  and  C2_8 
REMARK    4  A    between atoms: C1_7  and  C5_11 
REMARK    5  A    between atoms: C3_9  and  C4_10 
REMARK    6  A    between atoms: C3_9  and  C9_15 
REMARK    7  A    between atoms: C10_16  and  C8_14 
ROOT
HETATM    1  O2  UNK     1      21.546  -2.476  36.111  1.00  0.00    -0.267 OA
HETATM    2  N1  UNK     1      19.229  -2.596  35.772  1.00  0.00    -0.300 N 
HETATM    3  C9  UNK     1      20.471  -3.062  36.185  1.00  0.00     0.258 C 
HETATM    4  H8  UNK     1      18.396  -3.165  35.882  1.00  0.00     0.171 HD
ENDROOT
BRANCH   2   5
HETATM    5  C14 UNK     1      18.971  -1.352  35.187  1.00  0.00     0.196 A 
HETATM    6  S1  UNK     1      18.448  -0.128  36.247  1.00  0.00    -0.033 SA
HETATM    7  C5  UNK     1      18.390   0.881  34.861  1.00  0.00     0.105 A 
HETATM    8  N2  UNK     1      18.743   0.294  33.738  1.00  0.00    -0.145 NA
HETATM    9  N3  UNK     1      19.087  -1.031  33.936  1.00  0.00    -0.123 NA
BRANCH   7  10
HETATM   10  C1  UNK     1      17.966   2.289  34.991  1.00  0.00     0.107 C 
BRANCH  10  11
HETATM   11  C2  UNK     1      18.184   3.119  33.733  1.00  0.00    -0.052 A 
HETATM   12  C6  UNK     1      18.462   4.464  33.864  1.00  0.00     0.010 A 
HETATM   13  C11 UNK     1      18.663   5.224  32.711  1.00  0.00     0.037 A 
HETATM   14  C13 UNK     1      18.579   4.623  31.455  1.00  0.00     0.068 A 
HETATM   15  C12 UNK     1      18.295   3.261  31.352  1.00  0.00     0.037 A 
HETATM   16  C7  UNK     1      18.096   2.500  32.505  1.00  0.00     0.010 A 
BRANCH  14  17
HETATM   17  O1  UNK     1      18.774   5.364  30.331  1.00  0.00    -0.356 OA
HETATM   18  C25 UNK     1      20.091   5.865  30.104  1.00  0.00     0.210 C 
ENDBRANCH  14  17
ENDBRANCH  10  11
ENDBRANCH   7  10
ENDBRANCH   2   5
BRANCH   3  19
HETATM   19  C3  UNK     1      20.401  -4.446  36.789  1.00  0.00     0.043 C 
HETATM   20  C8  UNK     1      21.261  -4.704  37.810  1.00  0.00     0.029 C 
BRANCH  19  21
HETATM   21  C4  UNK     1      19.470  -5.470  36.270  1.00  0.00    -0.021 A 
HETATM   22  C15 UNK     1      18.176  -5.516  36.759  1.00  0.00     0.012 A 
HETATM   23  C19 UNK     1      17.297  -6.481  36.270  1.00  0.00     0.001 A 
HETATM   24  C21 UNK     1      17.726  -7.385  35.298  1.00  0.00     0.000 A 
HETATM   25  C20 UNK     1      19.033  -7.324  34.816  1.00  0.00     0.001 A 
HETATM   26  C16 UNK     1      19.912  -6.358  35.306  1.00  0.00     0.012 A 
ENDBRANCH  19  21
BRANCH  20  27
HETATM   27  C10 UNK     1      21.415  -5.965  38.517  1.00  0.00    -0.035 A 
HETATM   28  C17 UNK     1      20.293  -6.629  39.013  1.00  0.00     0.011 A 
HETATM   29  C22 UNK     1      20.441  -7.838  39.691  1.00  0.00     0.001 A 
HETATM   30  C24 UNK     1      21.712  -8.385  39.874  1.00  0.00     0.000 A 
HETATM   31  C23 UNK     1      22.834  -7.721  39.378  1.00  0.00     0.001 A 
HETATM   32  C18 UNK     1      22.686  -6.511  38.699  1.00  0.00     0.011 A 
ENDBRANCH  20  27
ENDBRANCH   3  19
TORSDOF 7
ENDMDL
MODEL 5
REMARK VINA RESULT:      -8.8      0.537      1.329
REMARK  7 active torsions:
REMARK  status: ('A' for Active; 'I' for Inactive)
REMARK    1  A    between atoms: C13_19  and  O1_2 
REMARK    2  A    between atoms: C14_20  and  N1_4 
REMARK       I    between atoms: C9_15  and  N1_4 
REMARK    3  A    between atoms: C1_7  and  C2_8 
REMARK    4  A    between atoms: C1_7  and  C5_11 
REMARK    5  A    between atoms: C3_9  and  C4_10 
REMARK    6  A    between atoms: C3_9  and  C9_15 
REMARK    7  A    between atoms: C10_16  and  C8_14 
ROOT
HETATM    1  O2  UNK     1      28.601  -4.613  39.060  1.00  0.00    -0.267 OA
HETATM    2  N1  UNK     1      27.741  -6.536  38.030  1.00  0.00    -0.300 N 
HETATM    3  C9  UNK     1      28.726  -5.616  38.364  1.00  0.00     0.258 C 
HETATM    4  H8  UNK     1      27.953  -7.338  37.445  1.00  0.00     0.171 HD
ENDROOT
BRANCH   2   5
HETATM    5  C14 UNK     1      26.402  -6.490  38.433  1.00  0.00     0.196 A 
HETATM    6  S1  UNK     1      25.678  -7.992  38.772  1.00  0.00    -0.033 SA
HETATM    7  C5  UNK     1      24.263  -7.092  39.132  1.00  0.00     0.105 A 
HETATM    8  N2  UNK     1      24.387  -5.790  38.991  1.00  0.00    -0.145 NA
HETATM    9  N3  UNK     1      25.659  -5.437  38.576  1.00  0.00    -0.123 NA
BRANCH   7  10
HETATM   10  C1  UNK     1      23.034  -7.790  39.560  1.00  0.00     0.107 C 
BRANCH  10  11
HETATM   11  C2  UNK     1      21.800  -7.425  38.745  1.00  0.00    -0.052 A 
HETATM   12  C6  UNK     1      20.734  -6.826  39.384  1.00  0.00     0.010 A 
HETATM   13  C11 UNK     1      19.604  -6.491  38.638  1.00  0.00     0.037 A 
HETATM   14  C13 UNK     1      19.566  -6.763  37.270  1.00  0.00     0.068 A 
HETATM   15  C12 UNK     1      20.657  -7.370  36.649  1.00  0.00     0.037 A 
HETATM   16  C7  UNK     1      21.788  -7.704  37.396  1.00  0.00     0.010 A 
BRANCH  14  17
HETATM   17  O1  UNK     1      18.464  -6.436  36.542  1.00  0.00    -0.356 OA
HETATM   18  C25 UNK     1      18.162  -7.259  35.416  1.00  0.00     0.210 C 
ENDBRANCH  14  17
ENDBRANCH  10  11
ENDBRANCH   7  10
ENDBRANCH   2   5
BRANCH   3  19
HETATM   19  C3  UNK     1      30.074  -5.966  37.773  1.00  0.00     0.043 C 
HETATM   20  C8  UNK     1      30.988  -4.962  37.717  1.00  0.00     0.029 C 
BRANCH  19  21
HETATM   21  C4  UNK     1      30.362  -7.320  37.256  1.00  0.00    -0.021 A 
HETATM   22  C15 UNK     1      30.771  -8.306  38.136  1.00  0.00     0.012 A 
HETATM   23  C19 UNK     1      31.042  -9.584  37.649  1.00  0.00     0.001 A 
HETATM   24  C21 UNK     1      30.901  -9.855  36.288  1.00  0.00     0.000 A 
HETATM   25  C20 UNK     1      30.487  -8.849  35.415  1.00  0.00     0.001 A 
HETATM   26  C16 UNK     1      30.215  -7.571  35.903  1.00  0.00     0.012 A 
ENDBRANCH  19  21
BRANCH  20  27
HETATM   27  C10 UNK     1      32.327  -5.037  37.155  1.00  0.00    -0.035 A 
HETATM   28  C17 UNK     1      33.332  -5.722  37.837  1.00  0.00     0.011 A 
HETATM   29  C22 UNK     1      34.616  -5.795  37.299  1.00  0.00     0.001 A 
HETATM   30  C24 UNK     1      34.896  -5.183  36.077  1.00  0.00     0.000 A 
HETATM   31  C23 UNK     1      33.890  -4.500  35.393  1.00  0.00     0.001 A 
HETATM   32  C18 UNK     1      32.605  -4.427  35.932  1.00  0.00     0.011 A 
ENDBRANCH  20  27
ENDBRANCH   3  19
TORSDOF 7
ENDMDL
MODEL 6
REMARK VINA RESULT:      -8.3      7.808     11.274
REMARK  7 active torsions:
REMARK  status: ('A' for Active; 'I' for Inactive)
REMARK    1  A    between atoms: C13_19  and  O1_2 
REMARK    2  A    between atoms: C14_20  and  N1_4 
REMARK       I    between atoms: C9_15  and  N1_4 
REMARK    3  A    between atoms: C1_7  and  C2_8 
REMARK    4  A    between atoms: C1_7  and  C5_11 
REMARK    5  A    between atoms: C3_9  and  C4_10 
REMARK    6  A    between atoms: C3_9  and  C9_15 
REMARK    7  A    between atoms: C10_16  and  C8_14 
ROOT
HETATM    1  O2  UNK     1      21.172  -2.675  35.988  1.00  0.00    -0.267 OA
HETATM    2  N1  UNK     1      18.948  -2.484  36.706  1.00  0.00    -0.300 N 
HETATM    3  C9  UNK     1      20.156  -3.136  36.498  1.00  0.00     0.258 C 
HETATM    4  H8  UNK     1      18.166  -2.961  37.142  1.00  0.00     0.171 HD
ENDROOT
BRANCH   2   5
HETATM    5  C14 UNK     1      18.661  -1.157  36.367  1.00  0.00     0.196 A 
HETATM    6  S1  UNK     1      18.371  -0.859  34.717  1.00  0.00    -0.033 SA
HETATM    7  C5  UNK     1      18.141   0.777  35.177  1.00  0.00     0.105 A 
HETATM    8  N2  UNK     1      18.282   1.013  36.463  1.00  0.00    -0.145 NA
HETATM    9  N3  UNK     1      18.591  -0.138  37.166  1.00  0.00    -0.123 NA
BRANCH   7  10
HETATM   10  C1  UNK     1      17.814   1.791  34.155  1.00  0.00     0.107 C 
BRANCH  10  11
HETATM   11  C2  UNK     1      18.369   1.477  32.772  1.00  0.00    -0.052 A 
HETATM   12  C6  UNK     1      18.925   0.236  32.544  1.00  0.00     0.010 A 
HETATM   13  C11 UNK     1      19.432  -0.052  31.277  1.00  0.00     0.037 A 
HETATM   14  C13 UNK     1      19.373   0.909  30.267  1.00  0.00     0.068 A 
HETATM   15  C12 UNK     1      18.806   2.157  30.525  1.00  0.00     0.037 A 
HETATM   16  C7  UNK     1      18.298   2.445  31.792  1.00  0.00     0.010 A 
BRANCH  14  17
HETATM   17  O1  UNK     1      19.868   0.629  29.031  1.00  0.00    -0.356 OA
HETATM   18  C25 UNK     1      20.528  -0.625  28.864  1.00  0.00     0.210 C 
ENDBRANCH  14  17
ENDBRANCH  10  11
ENDBRANCH   7  10
ENDBRANCH   2   5
BRANCH   3  19
HETATM   19  C3  UNK     1      20.138  -4.566  36.991  1.00  0.00     0.043 C 
HETATM   20  C8  UNK     1      21.009  -4.872  37.988  1.00  0.00     0.029 C 
BRANCH  19  21
HETATM   21  C4  UNK     1      19.241  -5.577  36.393  1.00  0.00    -0.021 A 
HETATM   22  C15 UNK     1      17.928  -5.653  36.821  1.00  0.00     0.012 A 
HETATM   23  C19 UNK     1      17.082  -6.608  36.257  1.00  0.00     0.001 A 
HETATM   24  C21 UNK     1      17.564  -7.471  35.273  1.00  0.00     0.000 A 
HETATM   25  C20 UNK     1      18.891  -7.380  34.853  1.00  0.00     0.001 A 
HETATM   26  C16 UNK     1      19.736  -6.425  35.418  1.00  0.00     0.012 A 
ENDBRANCH  19  21
BRANCH  20  27
HETATM   27  C10 UNK     1      21.211  -6.179  38.594  1.00  0.00    -0.035 A 
HETATM   28  C17 UNK     1      22.484  -6.748  38.618  1.00  0.00     0.011 A 
HETATM   29  C22 UNK     1      22.678  -8.000  39.199  1.00  0.00     0.001 A 
HETATM   30  C24 UNK     1      21.599  -8.685  39.757  1.00  0.00     0.000 A 
HETATM   31  C23 UNK     1      20.325  -8.116  39.734  1.00  0.00     0.001 A 
HETATM   32  C18 UNK     1      20.131  -6.863  39.153  1.00  0.00     0.011 A 
ENDBRANCH  20  27
ENDBRANCH   3  19
TORSDOF 7
ENDMDL
MODEL 7
REMARK VINA RESULT:      -8.3      7.304     11.290
REMARK  7 active torsions:
REMARK  status: ('A' for Active; 'I' for Inactive)
REMARK    1  A    between atoms: C13_19  and  O1_2 
REMARK    2  A    between atoms: C14_20  and  N1_4 
REMARK       I    between atoms: C9_15  and  N1_4 
REMARK    3  A    between atoms: C1_7  and  C2_8 
REMARK    4  A    between atoms: C1_7  and  C5_11 
REMARK    5  A    between atoms: C3_9  and  C4_10 
REMARK    6  A    between atoms: C3_9  and  C9_15 
REMARK    7  A    between atoms: C10_16  and  C8_14 
ROOT
HETATM    1  O2  UNK     1      21.328  -2.415  35.989  1.00  0.00    -0.267 OA
HETATM    2  N1  UNK     1      19.562  -3.911  35.606  1.00  0.00    -0.300 N 
HETATM    3  C9  UNK     1      20.324  -2.771  35.380  1.00  0.00     0.258 C 
HETATM    4  H8  UNK     1      18.746  -4.114  35.039  1.00  0.00     0.171 HD
ENDROOT
BRANCH   2   5
HETATM    5  C14 UNK     1      19.804  -4.880  36.586  1.00  0.00     0.196 A 
HETATM    6  S1  UNK     1      19.458  -6.485  36.142  1.00  0.00    -0.033 SA
HETATM    7  C5  UNK     1      19.981  -6.907  37.720  1.00  0.00     0.105 A 
HETATM    8  N2  UNK     1      20.367  -5.892  38.462  1.00  0.00    -0.145 NA
HETATM    9  N3  UNK     1      20.261  -4.690  37.785  1.00  0.00    -0.123 NA
BRANCH   7  10
HETATM   10  C1  UNK     1      19.970  -8.320  38.147  1.00  0.00     0.107 C 
BRANCH  10  11
HETATM   11  C2  UNK     1      20.909  -9.215  37.348  1.00  0.00    -0.052 A 
HETATM   12  C6  UNK     1      20.389 -10.320  36.706  1.00  0.00     0.010 A 
HETATM   13  C11 UNK     1      21.248 -11.139  35.973  1.00  0.00     0.037 A 
HETATM   14  C13 UNK     1      22.607 -10.835  35.900  1.00  0.00     0.068 A 
HETATM   15  C12 UNK     1      23.107  -9.711  36.559  1.00  0.00     0.037 A 
HETATM   16  C7  UNK     1      22.248  -8.892  37.291  1.00  0.00     0.010 A 
BRANCH  14  17
HETATM   17  O1  UNK     1      23.445 -11.633  35.185  1.00  0.00    -0.356 OA
HETATM   18  C25 UNK     1      24.576 -12.169  35.872  1.00  0.00     0.210 C 
ENDBRANCH  14  17
ENDBRANCH  10  11
ENDBRANCH   7  10
ENDBRANCH   2   5
BRANCH   3  19
HETATM   19  C3  UNK     1      19.796  -1.937  34.234  1.00  0.00     0.043 C 
HETATM   20  C8  UNK     1      20.382  -2.133  33.024  1.00  0.00     0.029 C 
BRANCH  19  21
HETATM   21  C4  UNK     1      18.724  -0.939  34.435  1.00  0.00    -0.021 A 
HETATM   22  C15 UNK     1      17.413  -1.296  34.176  1.00  0.00     0.012 A 
HETATM   23  C19 UNK     1      16.402  -0.355  34.366  1.00  0.00     0.001 A 
HETATM   24  C21 UNK     1      16.718   0.928  34.812  1.00  0.00     0.000 A 
HETATM   25  C20 UNK     1      18.046   1.270  35.068  1.00  0.00     0.001 A 
HETATM   26  C16 UNK     1      19.057   0.328  34.878  1.00  0.00     0.012 A 
ENDBRANCH  19  21
BRANCH  20  27
HETATM   27  C10 UNK     1      20.083  -1.425  31.790  1.00  0.00    -0.035 A 
HETATM   28  C17 UNK     1      19.567  -0.130  31.836  1.00  0.00     0.011 A 
HETATM   29  C22 UNK     1      19.281   0.550  30.652  1.00  0.00     0.001 A 
HETATM   30  C24 UNK     1      19.512  -0.065  29.422  1.00  0.00     0.000 A 
HETATM   31  C23 UNK     1      20.030  -1.360  29.375  1.00  0.00     0.001 A 
HETATM   32  C18 UNK     1      20.316  -2.040  30.559  1.00  0.00     0.011 A 
ENDBRANCH  20  27
ENDBRANCH   3  19
TORSDOF 7
ENDMDL
MODEL 8
REMARK VINA RESULT:      -8.2      2.351      3.501
REMARK  7 active torsions:
REMARK  status: ('A' for Active; 'I' for Inactive)
REMARK    1  A    between atoms: C13_19  and  O1_2 
REMARK    2  A    between atoms: C14_20  and  N1_4 
REMARK       I    between atoms: C9_15  and  N1_4 
REMARK    3  A    between atoms: C1_7  and  C2_8 
REMARK    4  A    between atoms: C1_7  and  C5_11 
REMARK    5  A    between atoms: C3_9  and  C4_10 
REMARK    6  A    between atoms: C3_9  and  C9_15 
REMARK    7  A    between atoms: C10_16  and  C8_14 
ROOT
HETATM    1  O2  UNK     1      25.576  -9.365  37.195  1.00  0.00    -0.267 OA
HETATM    2  N1  UNK     1      25.350  -7.532  38.640  1.00  0.00    -0.300 N 
HETATM    3  C9  UNK     1      26.014  -8.358  37.742  1.00  0.00     0.258 C 
HETATM    4  H8  UNK     1      25.808  -6.717  39.034  1.00  0.00     0.171 HD
ENDROOT
BRANCH   2   5
HETATM    5  C14 UNK     1      24.037  -7.698  39.094  1.00  0.00     0.196 A 
HETATM    6  S1  UNK     1      22.938  -6.481  38.641  1.00  0.00    -0.033 SA
HETATM    7  C5  UNK     1      21.766  -7.384  39.508  1.00  0.00     0.105 A 
HETATM    8  N2  UNK     1      22.221  -8.487  40.063  1.00  0.00    -0.145 NA
HETATM    9  N3  UNK     1      23.570  -8.669  39.814  1.00  0.00    -0.123 NA
BRANCH   7  10
HETATM   10  C1  UNK     1      20.373  -6.903  39.587  1.00  0.00     0.107 C 
BRANCH  10  11
HETATM   11  C2  UNK     1      19.578  -7.096  38.302  1.00  0.00    -0.052 A 
HETATM   12  C6  UNK     1      19.211  -5.984  37.574  1.00  0.00     0.010 A 
HETATM   13  C11 UNK     1      18.484  -6.160  36.396  1.00  0.00     0.037 A 
HETATM   14  C13 UNK     1      18.140  -7.445  35.975  1.00  0.00     0.068 A 
HETATM   15  C12 UNK     1      18.524  -8.553  36.731  1.00  0.00     0.037 A 
HETATM   16  C7  UNK     1      19.251  -8.376  37.908  1.00  0.00     0.010 A 
BRANCH  14  17
HETATM   17  O1  UNK     1      17.431  -7.618  34.827  1.00  0.00    -0.356 OA
HETATM   18  C25 UNK     1      16.044  -7.281  34.862  1.00  0.00     0.210 C 
ENDBRANCH  14  17
ENDBRANCH  10  11
ENDBRANCH   7  10
ENDBRANCH   2   5
BRANCH   3  19
HETATM   19  C3  UNK     1      27.422  -7.890  37.452  1.00  0.00     0.043 C 
HETATM   20  C8  UNK     1      28.104  -7.346  38.494  1.00  0.00     0.029 C 
BRANCH  19  21
HETATM   21  C4  UNK     1      28.006  -7.991  36.098  1.00  0.00    -0.021 A 
HETATM   22  C15 UNK     1      28.564  -9.191  35.691  1.00  0.00     0.012 A 
HETATM   23  C19 UNK     1      29.115  -9.286  34.414  1.00  0.00     0.001 A 
HETATM   24  C21 UNK     1      29.100  -8.181  33.564  1.00  0.00     0.000 A 
HETATM   25  C20 UNK     1      28.534  -6.979  33.991  1.00  0.00     0.001 A 
HETATM   26  C16 UNK     1      27.982  -6.885  35.269  1.00  0.00     0.012 A 
ENDBRANCH  19  21
BRANCH  20  27
HETATM   27  C10 UNK     1      29.446  -6.786  38.456  1.00  0.00    -0.035 A 
HETATM   28  C17 UNK     1      30.552  -7.630  38.364  1.00  0.00     0.011 A 
HETATM   29  C22 UNK     1      31.839  -7.093  38.327  1.00  0.00     0.001 A 
HETATM   30  C24 UNK     1      32.020  -5.711  38.382  1.00  0.00     0.000 A 
HETATM   31  C23 UNK     1      30.913  -4.866  38.472  1.00  0.00     0.001 A 
HETATM   32  C18 UNK     1      29.626  -5.403  38.509  1.00  0.00     0.011 A 
ENDBRANCH  20  27
ENDBRANCH   3  19
TORSDOF 7
ENDMDL
MODEL 9
REMARK VINA RESULT:      -7.9     33.502     35.242
REMARK  7 active torsions:
REMARK  status: ('A' for Active; 'I' for Inactive)
REMARK    1  A    between atoms: C13_19  and  O1_2 
REMARK    2  A    between atoms: C14_20  and  N1_4 
REMARK       I    between atoms: C9_15  and  N1_4 
REMARK    3  A    between atoms: C1_7  and  C2_8 
REMARK    4  A    between atoms: C1_7  and  C5_11 
REMARK    5  A    between atoms: C3_9  and  C4_10 
REMARK    6  A    between atoms: C3_9  and  C9_15 
REMARK    7  A    between atoms: C10_16  and  C8_14 
ROOT
HETATM    1  O2  UNK     1      17.244   8.547   9.818  1.00  0.00    -0.267 OA
HETATM    2  N1  UNK     1      15.110   9.358   9.280  1.00  0.00    -0.300 N 
HETATM    3  C9  UNK     1      16.488   9.436   9.441  1.00  0.00     0.258 C 
HETATM    4  H8  UNK     1      14.576  10.158   8.958  1.00  0.00     0.171 HD
ENDROOT
BRANCH   2   5
HETATM    5  C14 UNK     1      14.317   8.230   9.521  1.00  0.00     0.196 A 
HETATM    6  S1  UNK     1      13.787   7.389   8.140  1.00  0.00    -0.033 SA
HETATM    7  C5  UNK     1      13.007   6.325   9.236  1.00  0.00     0.105 A 
HETATM    8  N2  UNK     1      13.168   6.627  10.506  1.00  0.00    -0.145 NA
HETATM    9  N3  UNK     1      13.947   7.759  10.671  1.00  0.00    -0.123 NA
BRANCH   7  10
HETATM   10  C1  UNK     1      12.230   5.179   8.724  1.00  0.00     0.107 C 
BRANCH  10  11
HETATM   11  C2  UNK     1      10.728   5.298   8.955  1.00  0.00    -0.052 A 
HETATM   12  C6  UNK     1      10.131   4.471   9.884  1.00  0.00     0.010 A 
HETATM   13  C11 UNK     1       8.756   4.580  10.096  1.00  0.00     0.037 A 
HETATM   14  C13 UNK     1       8.011   5.512   9.373  1.00  0.00     0.068 A 
HETATM   15  C12 UNK     1       8.641   6.335   8.439  1.00  0.00     0.037 A 
HETATM   16  C7  UNK     1      10.016   6.226   8.228  1.00  0.00     0.010 A 
BRANCH  14  17
HETATM   17  O1  UNK     1       6.671   5.619   9.579  1.00  0.00    -0.356 OA
HETATM   18  C25 UNK     1       6.113   4.845  10.640  1.00  0.00     0.210 C 
ENDBRANCH  14  17
ENDBRANCH  10  11
ENDBRANCH   7  10
ENDBRANCH   2   5
BRANCH   3  19
HETATM   19  C3  UNK     1      17.038  10.798   9.083  1.00  0.00     0.043 C 
HETATM   20  C8  UNK     1      16.702  11.283   7.859  1.00  0.00     0.029 C 
BRANCH  19  21
HETATM   21  C4  UNK     1      17.922  11.541  10.006  1.00  0.00    -0.021 A 
HETATM   22  C15 UNK     1      19.294  11.430   9.863  1.00  0.00     0.012 A 
HETATM   23  C19 UNK     1      20.128  12.130  10.734  1.00  0.00     0.001 A 
HETATM   24  C21 UNK     1      19.577  12.930  11.735  1.00  0.00     0.000 A 
HETATM   25  C20 UNK     1      18.192  13.029  11.865  1.00  0.00     0.001 A 
HETATM   26  C16 UNK     1      17.358  12.329  10.993  1.00  0.00     0.012 A 
ENDBRANCH  19  21
BRANCH  20  27
HETATM   27  C10 UNK     1      17.141  12.539   7.272  1.00  0.00    -0.035 A 
HETATM   28  C17 UNK     1      18.277  12.571   6.462  1.00  0.00     0.011 A 
HETATM   29  C22 UNK     1      18.698  13.774   5.898  1.00  0.00     0.001 A 
HETATM   30  C24 UNK     1      17.984  14.947   6.144  1.00  0.00     0.000 A 
HETATM   31  C23 UNK     1      16.848  14.916   6.953  1.00  0.00     0.001 A 
HETATM   32  C18 UNK     1      16.426  13.712   7.517  1.00  0.00     0.011 A 
ENDBRANCH  20  27
ENDBRANCH   3  19
TORSDOF 7
ENDMDL
MODEL 10
REMARK VINA RESULT:      -7.9      7.228     11.871
REMARK  7 active torsions:
REMARK  status: ('A' for Active; 'I' for Inactive)
REMARK    1  A    between atoms: C13_19  and  O1_2 
REMARK    2  A    between atoms: C14_20  and  N1_4 
REMARK       I    between atoms: C9_15  and  N1_4 
REMARK    3  A    between atoms: C1_7  and  C2_8 
REMARK    4  A    between atoms: C1_7  and  C5_11 
REMARK    5  A    between atoms: C3_9  and  C4_10 
REMARK    6  A    between atoms: C3_9  and  C9_15 
REMARK    7  A    between atoms: C10_16  and  C8_14 
ROOT
HETATM    1  O2  UNK     1      19.055  -2.220  37.907  1.00  0.00    -0.267 OA
HETATM    2  N1  UNK     1      19.761  -3.481  36.060  1.00  0.00    -0.300 N 
HETATM    3  C9  UNK     1      19.182  -2.392  36.698  1.00  0.00     0.258 C 
HETATM    4  H8  UNK     1      19.818  -3.522  35.048  1.00  0.00     0.171 HD
ENDROOT
BRANCH   2   5
HETATM    5  C14 UNK     1      20.317  -4.602  36.687  1.00  0.00     0.196 A 
HETATM    6  S1  UNK     1      19.297  -5.957  36.823  1.00  0.00    -0.033 SA
HETATM    7  C5  UNK     1      20.621  -6.725  37.597  1.00  0.00     0.105 A 
HETATM    8  N2  UNK     1      21.700  -5.980  37.711  1.00  0.00    -0.145 NA
HETATM    9  N3  UNK     1      21.514  -4.720  37.169  1.00  0.00    -0.123 NA
BRANCH   7  10
HETATM   10  C1  UNK     1      20.490  -8.115  38.074  1.00  0.00     0.107 C 
BRANCH  10  11
HETATM   11  C2  UNK     1      21.303  -9.124  37.273  1.00  0.00    -0.052 A 
HETATM   12  C6  UNK     1      22.671  -8.966  37.198  1.00  0.00     0.010 A 
HETATM   13  C11 UNK     1      23.416  -9.891  36.465  1.00  0.00     0.037 A 
HETATM   14  C13 UNK     1      22.775 -10.950  35.822  1.00  0.00     0.068 A 
HETATM   15  C12 UNK     1      21.389 -11.085  35.913  1.00  0.00     0.037 A 
HETATM   16  C7  UNK     1      20.645 -10.161  36.647  1.00  0.00     0.010 A 
BRANCH  14  17
HETATM   17  O1  UNK     1      23.500 -11.852  35.107  1.00  0.00    -0.356 OA
HETATM   18  C25 UNK     1      24.553 -12.528  35.792  1.00  0.00     0.210 C 
ENDBRANCH  14  17
ENDBRANCH  10  11
ENDBRANCH   7  10
ENDBRANCH   2   5
BRANCH   3  19
HETATM   19  C3  UNK     1      18.688  -1.343  35.727  1.00  0.00     0.043 C 
HETATM   20  C8  UNK     1      19.323  -1.283  34.528  1.00  0.00     0.029 C 
BRANCH  19  21
HETATM   21  C4  UNK     1      17.594  -0.415  36.084  1.00  0.00    -0.021 A 
HETATM   22  C15 UNK     1      17.857   0.642  36.936  1.00  0.00     0.012 A 
HETATM   23  C19 UNK     1      16.826   1.518  37.273  1.00  0.00     0.001 A 
HETATM   24  C21 UNK     1      15.547   1.321  36.752  1.00  0.00     0.000 A 
HETATM   25  C20 UNK     1      15.300   0.250  35.894  1.00  0.00     0.001 A 
HETATM   26  C16 UNK     1      16.332  -0.625  35.558  1.00  0.00     0.012 A 
ENDBRANCH  19  21
BRANCH  20  27
HETATM   27  C10 UNK     1      19.063  -0.338  33.454  1.00  0.00    -0.035 A 
HETATM   28  C17 UNK     1      19.318  -0.698  32.131  1.00  0.00     0.011 A 
HETATM   29  C22 UNK     1      19.069   0.207  31.100  1.00  0.00     0.001 A 
HETATM   30  C24 UNK     1      18.564   1.475  31.392  1.00  0.00     0.000 A 
HETATM   31  C23 UNK     1      18.308   1.835  32.715  1.00  0.00     0.001 A 
HETATM   32  C18 UNK     1      18.557   0.929  33.747  1.00  0.00     0.011 A 
ENDBRANCH  20  27
ENDBRANCH   3  19
TORSDOF 7
ENDMDL
