MODEL 1
REMARK VINA RESULT:      -8.1      0.000      0.000
REMARK  4 active torsions:
REMARK  status: ('A' for Active; 'I' for Inactive)
REMARK    1  A    between atoms: C16_22  and  O2_4 
REMARK    2  A    between atoms: C19_25  and  O3_5 
REMARK    3  A    between atoms: C22_28  and  O4_6 
REMARK    4  A    between atoms: C12_18  and  C3_9 
ROOT
HETATM    1 Cl1  UNK     1      33.049  -8.106  37.437  1.00  0.00    -0.081 Cl
HETATM    2  O1  UNK     1      31.756  -6.595  31.913  1.00  0.00    -0.334 OA
HETATM    3  C1  UNK     1      29.659  -8.021  33.415  1.00  0.00    -0.004 C 
HETATM    4  C2  UNK     1      29.315  -6.988  32.318  1.00  0.00     0.039 C 
HETATM    5  C3  UNK     1      30.460  -6.728  31.302  1.00  0.00     0.102 C 
HETATM    6  C4  UNK     1      28.979  -5.581  32.839  1.00  0.00     0.009 C 
HETATM    7  C5  UNK     1      28.504  -8.116  34.444  1.00  0.00     0.015 C 
HETATM    8  C6  UNK     1      29.689  -9.460  32.847  1.00  0.00     0.015 C 
HETATM    9  C7  UNK     1      30.155  -5.303  30.746  1.00  0.00     0.044 C 
HETATM   10  C8  UNK     1      28.999  -4.744  31.574  1.00  0.00     0.004 C 
HETATM   11  C9  UNK     1      31.022  -7.666  33.994  1.00  0.00    -0.014 A 
HETATM   12  C10 UNK     1      28.396  -9.580  34.883  1.00  0.00     0.001 C 
HETATM   13  C11 UNK     1      29.381 -10.366  34.031  1.00  0.00     0.001 C 
HETATM   14  C13 UNK     1      31.966  -7.007  33.197  1.00  0.00     0.080 A 
HETATM   15  C14 UNK     1      31.393  -7.990  35.312  1.00  0.00     0.037 A 
HETATM   16  C15 UNK     1      33.240  -6.702  33.696  1.00  0.00     0.075 A 
HETATM   17  C18 UNK     1      32.661  -7.680  35.810  1.00  0.00     0.067 A 
HETATM   18  C19 UNK     1      33.587  -7.037  35.001  1.00  0.00     0.090 A 
ENDROOT
BRANCH   5  19
HETATM   19  C12 UNK     1      30.517  -7.743  30.158  1.00  0.00     0.012 A 
HETATM   20  C16 UNK     1      31.722  -8.019  29.504  1.00  0.00     0.077 A 
HETATM   21  C20 UNK     1      31.757  -8.948  28.463  1.00  0.00     0.075 A 
HETATM   22  C22 UNK     1      30.589  -9.603  28.073  1.00  0.00     0.090 A 
HETATM   23  C21 UNK     1      29.386  -9.331  28.723  1.00  0.00     0.068 A 
HETATM   24  C17 UNK     1      29.350  -8.402  29.763  1.00  0.00     0.039 A 
HETATM   25 Cl2  UNK     1      27.926 -10.126  28.261  1.00  0.00    -0.081 Cl
BRANCH  20  26
HETATM   26  O2  UNK     1      32.871  -7.389  29.872  1.00  0.00    -0.360 OA
HETATM   27  H20 UNK     1      33.557  -7.562  29.205  1.00  0.00     0.217 HD
ENDBRANCH  20  26
BRANCH  22  28
HETATM   28  O4  UNK     1      30.653 -10.505  27.053  1.00  0.00    -0.359 OA
HETATM   29  H22 UNK     1      30.483 -10.048  26.211  1.00  0.00     0.217 HD
ENDBRANCH  22  28
ENDBRANCH   5  19
BRANCH  18  30
HETATM   30  O3  UNK     1      34.831  -6.720  35.454  1.00  0.00    -0.359 OA
HETATM   31  H21 UNK     1      35.424  -7.469  35.268  1.00  0.00     0.217 HD
ENDBRANCH  18  30
TORSDOF 4
ENDMDL
MODEL 2
REMARK VINA RESULT:      -8.1     20.848     23.327
REMARK  4 active torsions:
REMARK  status: ('A' for Active; 'I' for Inactive)
REMARK    1  A    between atoms: C16_22  and  O2_4 
REMARK    2  A    between atoms: C19_25  and  O3_5 
REMARK    3  A    between atoms: C22_28  and  O4_6 
REMARK    4  A    between atoms: C12_18  and  C3_9 
ROOT
HETATM    1 Cl1  UNK     1      15.337  -5.742  17.459  1.00  0.00    -0.081 Cl
HETATM    2  O1  UNK     1      18.321  -6.857  12.527  1.00  0.00    -0.334 OA
HETATM    3  C1  UNK     1      19.461  -4.819  14.326  1.00  0.00    -0.004 C 
HETATM    4  C2  UNK     1      20.355  -5.708  13.433  1.00  0.00     0.039 C 
HETATM    5  C3  UNK     1      19.624  -6.332  12.214  1.00  0.00     0.102 C 
HETATM    6  C4  UNK     1      20.964  -6.928  14.142  1.00  0.00     0.009 C 
HETATM    7  C5  UNK     1      20.248  -4.348  15.575  1.00  0.00     0.015 C 
HETATM    8  C6  UNK     1      19.135  -3.472  13.637  1.00  0.00     0.015 C 
HETATM    9  C7  UNK     1      20.470  -7.597  11.873  1.00  0.00     0.044 C 
HETATM   10  C8  UNK     1      21.505  -7.749  12.986  1.00  0.00     0.004 C 
HETATM   11  C9  UNK     1      18.171  -5.575  14.615  1.00  0.00    -0.014 A 
HETATM   12  C10 UNK     1      19.799  -2.917  15.891  1.00  0.00     0.001 C 
HETATM   13  C11 UNK     1      18.858  -2.496  14.772  1.00  0.00     0.001 C 
HETATM   14  C13 UNK     1      17.693  -6.511  13.689  1.00  0.00     0.080 A 
HETATM   15  C14 UNK     1      17.413  -5.364  15.780  1.00  0.00     0.037 A 
HETATM   16  C15 UNK     1      16.490  -7.195  13.915  1.00  0.00     0.075 A 
HETATM   17  C18 UNK     1      16.217  -6.050  16.007  1.00  0.00     0.067 A 
HETATM   18  C19 UNK     1      15.753  -6.965  15.073  1.00  0.00     0.090 A 
ENDROOT
BRANCH   5  19
HETATM   19  C12 UNK     1      19.541  -5.406  10.998  1.00  0.00     0.012 A 
HETATM   20  C16 UNK     1      18.452  -5.466  10.123  1.00  0.00     0.077 A 
HETATM   21  C20 UNK     1      18.391  -4.614   9.021  1.00  0.00     0.075 A 
HETATM   22  C22 UNK     1      19.418  -3.699   8.788  1.00  0.00     0.090 A 
HETATM   23  C21 UNK     1      20.505  -3.635   9.659  1.00  0.00     0.068 A 
HETATM   24  C17 UNK     1      20.567  -4.487  10.762  1.00  0.00     0.039 A 
HETATM   25 Cl2  UNK     1      21.789  -2.513   9.396  1.00  0.00    -0.081 Cl
BRANCH  20  26
HETATM   26  O2  UNK     1      17.440  -6.353  10.335  1.00  0.00    -0.360 OA
HETATM   27  H20 UNK     1      17.454  -6.635  11.266  1.00  0.00     0.217 HD
ENDBRANCH  20  26
BRANCH  22  28
HETATM   28  O4  UNK     1      19.332  -2.879   7.703  1.00  0.00    -0.359 OA
HETATM   29  H22 UNK     1      18.751  -2.128   7.914  1.00  0.00     0.217 HD
ENDBRANCH  22  28
ENDBRANCH   5  19
BRANCH  18  30
HETATM   30  O3  UNK     1      14.592  -7.651  15.262  1.00  0.00    -0.359 OA
HETATM   31  H21 UNK     1      14.621  -8.063  16.143  1.00  0.00     0.217 HD
ENDBRANCH  18  30
TORSDOF 4
ENDMDL
MODEL 3
REMARK VINA RESULT:      -8.0      3.237      5.017
REMARK  4 active torsions:
REMARK  status: ('A' for Active; 'I' for Inactive)
REMARK    1  A    between atoms: C16_22  and  O2_4 
REMARK    2  A    between atoms: C19_25  and  O3_5 
REMARK    3  A    between atoms: C22_28  and  O4_6 
REMARK    4  A    between atoms: C12_18  and  C3_9 
ROOT
HETATM    1 Cl1  UNK     1      29.522  -3.757  39.678  1.00  0.00    -0.081 Cl
HETATM    2  O1  UNK     1      29.063  -7.911  35.555  1.00  0.00    -0.334 OA
HETATM    3  C1  UNK     1      31.646  -6.502  35.725  1.00  0.00    -0.004 C 
HETATM    4  C2  UNK     1      31.551  -7.973  35.262  1.00  0.00     0.039 C 
HETATM    5  C3  UNK     1      30.149  -8.391  34.742  1.00  0.00     0.102 C 
HETATM    6  C4  UNK     1      31.846  -9.013  36.355  1.00  0.00     0.009 C 
HETATM    7  C5  UNK     1      33.041  -6.221  36.339  1.00  0.00     0.015 C 
HETATM    8  C6  UNK     1      31.633  -5.529  34.522  1.00  0.00     0.015 C 
HETATM    9  C7  UNK     1      30.118  -9.938  34.941  1.00  0.00     0.044 C 
HETATM   10  C8  UNK     1      31.381 -10.309  35.716  1.00  0.00     0.004 C 
HETATM   11  C9  UNK     1      30.462  -6.210  36.636  1.00  0.00    -0.014 A 
HETATM   12  C10 UNK     1      33.439  -4.794  35.946  1.00  0.00     0.001 C 
HETATM   13  C11 UNK     1      32.359  -4.281  35.006  1.00  0.00     0.001 C 
HETATM   14  C13 UNK     1      29.264  -6.916  36.466  1.00  0.00     0.080 A 
HETATM   15  C14 UNK     1      30.507  -5.236  37.650  1.00  0.00     0.037 A 
HETATM   16  C15 UNK     1      28.148  -6.641  37.270  1.00  0.00     0.075 A 
HETATM   17  C18 UNK     1      29.396  -4.966  38.454  1.00  0.00     0.067 A 
HETATM   18  C19 UNK     1      28.214  -5.668  38.262  1.00  0.00     0.090 A 
ENDROOT
BRANCH   5  19
HETATM   19  C12 UNK     1      29.902  -8.040  33.272  1.00  0.00     0.012 A 
HETATM   20  C16 UNK     1      30.921  -8.165  32.323  1.00  0.00     0.077 A 
HETATM   21  C20 UNK     1      30.679  -7.842  30.988  1.00  0.00     0.075 A 
HETATM   22  C22 UNK     1      29.417  -7.394  30.596  1.00  0.00     0.090 A 
HETATM   23  C21 UNK     1      28.398  -7.269  31.539  1.00  0.00     0.068 A 
HETATM   24  C17 UNK     1      28.639  -7.592  32.875  1.00  0.00     0.039 A 
HETATM   25 Cl2  UNK     1      26.828  -6.717  31.083  1.00  0.00    -0.081 Cl
BRANCH  20  26
HETATM   26  O2  UNK     1      32.159  -8.601  32.688  1.00  0.00    -0.360 OA
HETATM   27  H20 UNK     1      32.266  -9.526  32.408  1.00  0.00     0.217 HD
ENDBRANCH  20  26
BRANCH  22  28
HETATM   28  O4  UNK     1      29.209  -7.085  29.285  1.00  0.00    -0.359 OA
HETATM   29  H22 UNK     1      29.849  -7.572  28.737  1.00  0.00     0.217 HD
ENDBRANCH  22  28
ENDBRANCH   5  19
BRANCH  18  30
HETATM   30  O3  UNK     1      27.113  -5.431  39.027  1.00  0.00    -0.359 OA
HETATM   31  H21 UNK     1      27.165  -5.993  39.819  1.00  0.00     0.217 HD
ENDBRANCH  18  30
TORSDOF 4
ENDMDL
MODEL 4
REMARK VINA RESULT:      -7.9      3.107      6.651
REMARK  4 active torsions:
REMARK  status: ('A' for Active; 'I' for Inactive)
REMARK    1  A    between atoms: C16_22  and  O2_4 
REMARK    2  A    between atoms: C19_25  and  O3_5 
REMARK    3  A    between atoms: C22_28  and  O4_6 
REMARK    4  A    between atoms: C12_18  and  C3_9 
ROOT
HETATM    1 Cl1  UNK     1      31.316  -6.731  29.049  1.00  0.00    -0.081 Cl
HETATM    2  O1  UNK     1      29.712  -5.845  34.627  1.00  0.00    -0.334 OA
HETATM    3  C1  UNK     1      32.055  -7.579  34.188  1.00  0.00    -0.004 C 
HETATM    4  C2  UNK     1      31.915  -6.704  35.455  1.00  0.00     0.039 C 
HETATM    5  C3  UNK     1      30.459  -6.275  35.780  1.00  0.00     0.102 C 
HETATM    6  C4  UNK     1      32.674  -5.369  35.403  1.00  0.00     0.009 C 
HETATM    7  C5  UNK     1      33.551  -7.847  33.884  1.00  0.00     0.015 C 
HETATM    8  C6  UNK     1      31.524  -9.012  34.429  1.00  0.00     0.015 C 
HETATM    9  C7  UNK     1      30.628  -4.978  36.629  1.00  0.00     0.044 C 
HETATM   10  C8  UNK     1      32.112  -4.621  36.599  1.00  0.00     0.004 C 
HETATM   11  C9  UNK     1      31.268  -6.919  33.064  1.00  0.00    -0.014 A 
HETATM   12  C10 UNK     1      33.661  -9.275  33.337  1.00  0.00     0.001 C 
HETATM   13  C11 UNK     1      32.274  -9.891  33.438  1.00  0.00     0.001 C 
HETATM   14  C13 UNK     1      30.153  -6.129  33.367  1.00  0.00     0.080 A 
HETATM   15  C14 UNK     1      31.604  -7.082  31.708  1.00  0.00     0.037 A 
HETATM   16  C15 UNK     1      29.391  -5.540  32.348  1.00  0.00     0.075 A 
HETATM   17  C18 UNK     1      30.847  -6.490  30.693  1.00  0.00     0.067 A 
HETATM   18  C19 UNK     1      29.738  -5.720  31.012  1.00  0.00     0.090 A 
ENDROOT
BRANCH   5  19
HETATM   19  C12 UNK     1      29.663  -7.323  36.562  1.00  0.00     0.012 A 
HETATM   20  C16 UNK     1      28.267  -7.366  36.489  1.00  0.00     0.077 A 
HETATM   21  C20 UNK     1      27.557  -8.327  37.208  1.00  0.00     0.075 A 
HETATM   22  C22 UNK     1      28.238  -9.249  38.002  1.00  0.00     0.090 A 
HETATM   23  C21 UNK     1      29.630  -9.210  38.078  1.00  0.00     0.068 A 
HETATM   24  C17 UNK     1      30.341  -8.249  37.360  1.00  0.00     0.039 A 
HETATM   25 Cl2  UNK     1      30.499 -10.337  39.054  1.00  0.00    -0.081 Cl
BRANCH  20  26
HETATM   26  O2  UNK     1      27.586  -6.474  35.717  1.00  0.00    -0.360 OA
HETATM   27  H20 UNK     1      27.316  -6.909  34.890  1.00  0.00     0.217 HD
ENDBRANCH  20  26
BRANCH  22  28
HETATM   28  O4  UNK     1      27.518 -10.177  38.694  1.00  0.00    -0.359 OA
HETATM   29  H22 UNK     1      27.372  -9.856  39.601  1.00  0.00     0.217 HD
ENDBRANCH  22  28
ENDBRANCH   5  19
BRANCH  18  30
HETATM   30  O3  UNK     1      28.979  -5.129  30.049  1.00  0.00    -0.359 OA
HETATM   31  H21 UNK     1      29.503  -5.088  29.230  1.00  0.00     0.217 HD
ENDBRANCH  18  30
TORSDOF 4
ENDMDL
MODEL 5
REMARK VINA RESULT:      -7.8      4.134      7.145
REMARK  4 active torsions:
REMARK  status: ('A' for Active; 'I' for Inactive)
REMARK    1  A    between atoms: C16_22  and  O2_4 
REMARK    2  A    between atoms: C19_25  and  O3_5 
REMARK    3  A    between atoms: C22_28  and  O4_6 
REMARK    4  A    between atoms: C12_18  and  C3_9 
ROOT
HETATM    1 Cl1  UNK     1      36.038  -6.722  32.472  1.00  0.00    -0.081 Cl
HETATM    2  O1  UNK     1      32.822  -7.406  37.336  1.00  0.00    -0.334 OA
HETATM    3  C1  UNK     1      31.381  -7.563  34.769  1.00  0.00    -0.004 C 
HETATM    4  C2  UNK     1      30.921  -8.360  36.011  1.00  0.00     0.039 C 
HETATM    5  C3  UNK     1      31.436  -7.794  37.362  1.00  0.00     0.102 C 
HETATM    6  C4  UNK     1      31.382  -9.826  36.044  1.00  0.00     0.009 C 
HETATM    7  C5  UNK     1      30.920  -8.276  33.473  1.00  0.00     0.015 C 
HETATM    8  C6  UNK     1      30.641  -6.209  34.661  1.00  0.00     0.015 C 
HETATM    9  C7  UNK     1      31.404  -9.023  38.323  1.00  0.00     0.044 C 
HETATM   10  C8  UNK     1      31.066 -10.243  37.468  1.00  0.00     0.004 C 
HETATM   11  C9  UNK     1      32.880  -7.323  34.885  1.00  0.00    -0.014 A 
HETATM   12  C10 UNK     1      30.549  -7.190  32.457  1.00  0.00     0.001 C 
HETATM   13  C11 UNK     1      30.662  -5.857  33.180  1.00  0.00     0.001 C 
HETATM   14  C13 UNK     1      33.476  -7.241  36.150  1.00  0.00     0.080 A 
HETATM   15  C14 UNK     1      33.710  -7.161  33.761  1.00  0.00     0.037 A 
HETATM   16  C15 UNK     1      34.848  -6.986  36.282  1.00  0.00     0.075 A 
HETATM   17  C18 UNK     1      35.079  -6.912  33.894  1.00  0.00     0.067 A 
HETATM   18  C19 UNK     1      35.649  -6.822  35.156  1.00  0.00     0.090 A 
ENDROOT
BRANCH   5  19
HETATM   19  C12 UNK     1      30.581  -6.657  37.926  1.00  0.00     0.012 A 
HETATM   20  C16 UNK     1      31.164  -5.448  38.318  1.00  0.00     0.077 A 
HETATM   21  C20 UNK     1      30.370  -4.421  38.830  1.00  0.00     0.075 A 
HETATM   22  C22 UNK     1      28.991  -4.598  38.950  1.00  0.00     0.090 A 
HETATM   23  C21 UNK     1      28.406  -5.803  38.560  1.00  0.00     0.068 A 
HETATM   24  C17 UNK     1      29.200  -6.830  38.049  1.00  0.00     0.039 A 
HETATM   25 Cl2  UNK     1      26.705  -6.050  38.698  1.00  0.00    -0.081 Cl
BRANCH  20  26
HETATM   26  O2  UNK     1      32.507  -5.257  38.207  1.00  0.00    -0.360 OA
HETATM   27  H20 UNK     1      32.968  -5.901  38.771  1.00  0.00     0.217 HD
ENDBRANCH  20  26
BRANCH  22  28
HETATM   28  O4  UNK     1      28.240  -3.578  39.454  1.00  0.00    -0.359 OA
HETATM   29  H22 UNK     1      28.034  -2.951  38.739  1.00  0.00     0.217 HD
ENDBRANCH  22  28
ENDBRANCH   5  19
BRANCH  18  30
HETATM   30  O3  UNK     1      36.978  -6.581  35.323  1.00  0.00    -0.359 OA
HETATM   31  H21 UNK     1      37.471  -7.152  34.709  1.00  0.00     0.217 HD
ENDBRANCH  18  30
TORSDOF 4
ENDMDL
MODEL 6
REMARK VINA RESULT:      -7.7      5.125      7.616
REMARK  4 active torsions:
REMARK  status: ('A' for Active; 'I' for Inactive)
REMARK    1  A    between atoms: C16_22  and  O2_4 
REMARK    2  A    between atoms: C19_25  and  O3_5 
REMARK    3  A    between atoms: C22_28  and  O4_6 
REMARK    4  A    between atoms: C12_18  and  C3_9 
ROOT
HETATM    1 Cl1  UNK     1      31.036  -2.869  37.217  1.00  0.00    -0.081 Cl
HETATM    2  O1  UNK     1      28.148  -7.671  38.970  1.00  0.00    -0.334 OA
HETATM    3  C1  UNK     1      29.395  -7.783  36.301  1.00  0.00    -0.004 C 
HETATM    4  C2  UNK     1      29.234  -9.045  37.178  1.00  0.00     0.039 C 
HETATM    5  C3  UNK     1      28.138  -8.930  38.272  1.00  0.00     0.102 C 
HETATM    6  C4  UNK     1      30.487  -9.442  37.974  1.00  0.00     0.009 C 
HETATM    7  C5  UNK     1      30.589  -7.953  35.329  1.00  0.00     0.015 C 
HETATM    8  C6  UNK     1      28.212  -7.623  35.317  1.00  0.00     0.015 C 
HETATM    9  C7  UNK     1      28.573  -9.967  39.353  1.00  0.00     0.044 C 
HETATM   10  C8  UNK     1      29.952 -10.481  38.943  1.00  0.00     0.004 C 
HETATM   11  C9  UNK     1      29.469  -6.571  37.220  1.00  0.00    -0.014 A 
HETATM   12  C10 UNK     1      30.211  -7.271  34.009  1.00  0.00     0.001 C 
HETATM   13  C11 UNK     1      28.766  -6.818  34.149  1.00  0.00     0.001 C 
HETATM   14  C13 UNK     1      28.825  -6.600  38.463  1.00  0.00     0.080 A 
HETATM   15  C14 UNK     1      30.151  -5.393  36.866  1.00  0.00     0.037 A 
HETATM   16  C15 UNK     1      28.849  -5.484  39.311  1.00  0.00     0.075 A 
HETATM   17  C18 UNK     1      30.179  -4.283  37.715  1.00  0.00     0.067 A 
HETATM   18  C19 UNK     1      29.525  -4.327  38.938  1.00  0.00     0.090 A 
ENDROOT
BRANCH   5  19
HETATM   19  C12 UNK     1      26.726  -9.245  37.773  1.00  0.00     0.012 A 
HETATM   20  C16 UNK     1      25.671  -8.355  37.996  1.00  0.00     0.077 A 
HETATM   21  C20 UNK     1      24.390  -8.657  37.534  1.00  0.00     0.075 A 
HETATM   22  C22 UNK     1      24.159  -9.848  36.846  1.00  0.00     0.090 A 
HETATM   23  C21 UNK     1      25.208 -10.738  36.621  1.00  0.00     0.068 A 
HETATM   24  C17 UNK     1      26.489 -10.437  37.083  1.00  0.00     0.039 A 
HETATM   25 Cl2  UNK     1      24.952 -12.220  35.774  1.00  0.00    -0.081 Cl
BRANCH  20  26
HETATM   26  O2  UNK     1      25.879  -7.187  38.665  1.00  0.00    -0.360 OA
HETATM   27  H20 UNK     1      26.255  -7.383  39.540  1.00  0.00     0.217 HD
ENDBRANCH  20  26
BRANCH  22  28
HETATM   28  O4  UNK     1      22.897 -10.117  36.406  1.00  0.00    -0.359 OA
HETATM   29  H22 UNK     1      22.372  -9.298  36.421  1.00  0.00     0.217 HD
ENDBRANCH  22  28
ENDBRANCH   5  19
BRANCH  18  30
HETATM   30  O3  UNK     1      29.532  -3.264  39.788  1.00  0.00    -0.359 OA
HETATM   31  H21 UNK     1      30.207  -2.633  39.484  1.00  0.00     0.217 HD
ENDBRANCH  18  30
TORSDOF 4
ENDMDL
MODEL 7
REMARK VINA RESULT:      -7.7      1.736      2.004
REMARK  4 active torsions:
REMARK  status: ('A' for Active; 'I' for Inactive)
REMARK    1  A    between atoms: C16_22  and  O2_4 
REMARK    2  A    between atoms: C19_25  and  O3_5 
REMARK    3  A    between atoms: C22_28  and  O4_6 
REMARK    4  A    between atoms: C12_18  and  C3_9 
ROOT
HETATM    1 Cl1  UNK     1      33.953  -5.843  37.492  1.00  0.00    -0.081 Cl
HETATM    2  O1  UNK     1      30.697  -5.628  32.611  1.00  0.00    -0.334 OA
HETATM    3  C1  UNK     1      30.516  -8.099  34.210  1.00  0.00    -0.004 C 
HETATM    4  C2  UNK     1      29.323  -7.579  33.376  1.00  0.00     0.039 C 
HETATM    5  C3  UNK     1      29.717  -6.610  32.229  1.00  0.00     0.102 C 
HETATM    6  C4  UNK     1      28.281  -6.779  34.172  1.00  0.00     0.009 C 
HETATM    7  C5  UNK     1      30.010  -8.954  35.398  1.00  0.00     0.015 C 
HETATM    8  C6  UNK     1      31.353  -9.131  33.417  1.00  0.00     0.015 C 
HETATM    9  C7  UNK     1      28.423  -5.777  31.978  1.00  0.00     0.044 C 
HETATM   10  C8  UNK     1      27.433  -6.155  33.079  1.00  0.00     0.004 C 
HETATM   11  C9  UNK     1      31.389  -6.909  34.586  1.00  0.00    -0.014 A 
HETATM   12  C10 UNK     1      31.009 -10.098  35.602  1.00  0.00     0.001 C 
HETATM   13  C11 UNK     1      32.021 -10.003  34.472  1.00  0.00     0.001 C 
HETATM   14  C13 UNK     1      31.429  -5.785  33.752  1.00  0.00     0.080 A 
HETATM   15  C14 UNK     1      32.186  -6.891  35.745  1.00  0.00     0.037 A 
HETATM   16  C15 UNK     1      32.252  -4.692  34.060  1.00  0.00     0.075 A 
HETATM   17  C18 UNK     1      33.001  -5.798  36.053  1.00  0.00     0.067 A 
HETATM   18  C19 UNK     1      33.037  -4.698  35.208  1.00  0.00     0.090 A 
ENDROOT
BRANCH   5  19
HETATM   19  C12 UNK     1      30.152  -7.315  30.942  1.00  0.00     0.012 A 
HETATM   20  C16 UNK     1      30.666  -6.588  29.864  1.00  0.00     0.077 A 
HETATM   21  C20 UNK     1      31.058  -7.247  28.698  1.00  0.00     0.075 A 
HETATM   22  C22 UNK     1      30.939  -8.634  28.606  1.00  0.00     0.090 A 
HETATM   23  C21 UNK     1      30.428  -9.362  29.679  1.00  0.00     0.068 A 
HETATM   24  C17 UNK     1      30.035  -8.705  30.845  1.00  0.00     0.039 A 
HETATM   25 Cl2  UNK     1      30.269 -11.078  29.593  1.00  0.00    -0.081 Cl
BRANCH  20  26
HETATM   26  O2  UNK     1      30.789  -5.234  29.936  1.00  0.00    -0.360 OA
HETATM   27  H20 UNK     1      31.500  -4.946  29.338  1.00  0.00     0.217 HD
ENDBRANCH  20  26
BRANCH  22  28
HETATM   28  O4  UNK     1      31.330  -9.250  27.455  1.00  0.00    -0.359 OA
HETATM   29  H22 UNK     1      31.842 -10.047  27.677  1.00  0.00     0.217 HD
ENDBRANCH  22  28
ENDBRANCH   5  19
BRANCH  18  30
HETATM   30  O3  UNK     1      33.819  -3.617  35.478  1.00  0.00    -0.359 OA
HETATM   31  H21 UNK     1      33.382  -3.088  36.168  1.00  0.00     0.217 HD
ENDBRANCH  18  30
TORSDOF 4
ENDMDL
MODEL 8
REMARK VINA RESULT:      -7.7      2.356      6.636
REMARK  4 active torsions:
REMARK  status: ('A' for Active; 'I' for Inactive)
REMARK    1  A    between atoms: C16_22  and  O2_4 
REMARK    2  A    between atoms: C19_25  and  O3_5 
REMARK    3  A    between atoms: C22_28  and  O4_6 
REMARK    4  A    between atoms: C12_18  and  C3_9 
ROOT
HETATM    1 Cl1  UNK     1      27.974  -8.912  30.146  1.00  0.00    -0.081 Cl
HETATM    2  O1  UNK     1      32.426  -6.279  32.926  1.00  0.00    -0.334 OA
HETATM    3  C1  UNK     1      31.953  -9.114  33.583  1.00  0.00    -0.004 C 
HETATM    4  C2  UNK     1      33.367  -8.492  33.631  1.00  0.00     0.039 C 
HETATM    5  C3  UNK     1      33.382  -6.946  33.770  1.00  0.00     0.102 C 
HETATM    6  C4  UNK     1      34.224  -8.743  32.380  1.00  0.00     0.009 C 
HETATM    7  C5  UNK     1      32.045 -10.638  33.319  1.00  0.00     0.015 C 
HETATM    8  C6  UNK     1      31.272  -9.078  34.972  1.00  0.00     0.015 C 
HETATM    9  C7  UNK     1      34.765  -6.527  33.182  1.00  0.00     0.044 C 
HETATM   10  C8  UNK     1      35.385  -7.785  32.575  1.00  0.00     0.004 C 
HETATM   11  C9  UNK     1      31.119  -8.327  32.580  1.00  0.00    -0.014 A 
HETATM   12  C10 UNK     1      30.931 -11.314  34.126  1.00  0.00     0.001 C 
HETATM   13  C11 UNK     1      30.271 -10.226  34.959  1.00  0.00     0.001 C 
HETATM   14  C13 UNK     1      31.404  -6.975  32.349  1.00  0.00     0.080 A 
HETATM   15  C14 UNK     1      30.046  -8.898  31.873  1.00  0.00     0.037 A 
HETATM   16  C15 UNK     1      30.628  -6.221  31.457  1.00  0.00     0.075 A 
HETATM   17  C18 UNK     1      29.278  -8.146  30.980  1.00  0.00     0.067 A 
HETATM   18  C19 UNK     1      29.567  -6.805  30.773  1.00  0.00     0.090 A 
ENDROOT
BRANCH   5  19
HETATM   19  C12 UNK     1      33.248  -6.450  35.212  1.00  0.00     0.012 A 
HETATM   20  C16 UNK     1      34.115  -6.905  36.211  1.00  0.00     0.077 A 
HETATM   21  C20 UNK     1      33.979  -6.442  37.520  1.00  0.00     0.075 A 
HETATM   22  C22 UNK     1      32.977  -5.524  37.836  1.00  0.00     0.090 A 
HETATM   23  C21 UNK     1      32.111  -5.068  36.843  1.00  0.00     0.068 A 
HETATM   24  C17 UNK     1      32.246  -5.530  35.534  1.00  0.00     0.039 A 
HETATM   25 Cl2  UNK     1      30.863  -3.933  37.204  1.00  0.00    -0.081 Cl
BRANCH  20  26
HETATM   26  O2  UNK     1      35.098  -7.800  35.920  1.00  0.00    -0.360 OA
HETATM   27  H20 UNK     1      35.830  -7.337  35.478  1.00  0.00     0.217 HD
ENDBRANCH  20  26
BRANCH  22  28
HETATM   28  O4  UNK     1      32.868  -5.090  39.123  1.00  0.00    -0.359 OA
HETATM   29  H22 UNK     1      33.484  -5.593  39.684  1.00  0.00     0.217 HD
ENDBRANCH  22  28
ENDBRANCH   5  19
BRANCH  18  30
HETATM   30  O3  UNK     1      28.840  -6.043  29.911  1.00  0.00    -0.359 OA
HETATM   31  H21 UNK     1      28.325  -5.401  30.431  1.00  0.00     0.217 HD
ENDBRANCH  18  30
TORSDOF 4
ENDMDL
MODEL 9
REMARK VINA RESULT:      -7.7      3.002      6.878
REMARK  4 active torsions:
REMARK  status: ('A' for Active; 'I' for Inactive)
REMARK    1  A    between atoms: C16_22  and  O2_4 
REMARK    2  A    between atoms: C19_25  and  O3_5 
REMARK    3  A    between atoms: C22_28  and  O4_6 
REMARK    4  A    between atoms: C12_18  and  C3_9 
ROOT
HETATM    1 Cl1  UNK     1      27.732  -9.330  28.763  1.00  0.00    -0.081 Cl
HETATM    2  O1  UNK     1      28.871  -6.825  33.950  1.00  0.00    -0.334 OA
HETATM    3  C1  UNK     1      30.544  -9.135  33.205  1.00  0.00    -0.004 C 
HETATM    4  C2  UNK     1      31.087  -7.988  34.087  1.00  0.00     0.039 C 
HETATM    5  C3  UNK     1      29.988  -7.151  34.797  1.00  0.00     0.102 C 
HETATM    6  C4  UNK     1      31.906  -6.928  33.333  1.00  0.00     0.009 C 
HETATM    7  C5  UNK     1      31.706  -9.826  32.448  1.00  0.00     0.015 C 
HETATM    8  C6  UNK     1      29.997 -10.299  34.066  1.00  0.00     0.015 C 
HETATM    9  C7  UNK     1      30.675  -5.776  35.065  1.00  0.00     0.044 C 
HETATM   10  C8  UNK     1      32.027  -5.812  34.355  1.00  0.00     0.004 C 
HETATM   11  C9  UNK     1      29.432  -8.578  32.327  1.00  0.00    -0.014 A 
HETATM   12  C10 UNK     1      31.383 -11.323  32.375  1.00  0.00     0.001 C 
HETATM   13  C11 UNK     1      30.117 -11.539  33.190  1.00  0.00     0.001 C 
HETATM   14  C13 UNK     1      28.673  -7.489  32.774  1.00  0.00     0.080 A 
HETATM   15  C14 UNK     1      29.114  -9.123  31.070  1.00  0.00     0.037 A 
HETATM   16  C15 UNK     1      27.622  -6.980  31.998  1.00  0.00     0.075 A 
HETATM   17  C18 UNK     1      28.069  -8.611  30.296  1.00  0.00     0.067 A 
HETATM   18  C19 UNK     1      27.320  -7.540  30.761  1.00  0.00     0.090 A 
ENDROOT
BRANCH   5  19
HETATM   19  C12 UNK     1      29.493  -7.762  36.110  1.00  0.00     0.012 A 
HETATM   20  C16 UNK     1      28.238  -7.429  36.628  1.00  0.00     0.077 A 
HETATM   21  C20 UNK     1      27.801  -7.996  37.825  1.00  0.00     0.075 A 
HETATM   22  C22 UNK     1      28.617  -8.898  38.509  1.00  0.00     0.090 A 
HETATM   23  C21 UNK     1      29.869  -9.233  37.996  1.00  0.00     0.068 A 
HETATM   24  C17 UNK     1      30.306  -8.667  36.798  1.00  0.00     0.039 A 
HETATM   25 Cl2  UNK     1      30.899 -10.345  38.820  1.00  0.00    -0.081 Cl
BRANCH  20  26
HETATM   26  O2  UNK     1      27.428  -6.551  35.973  1.00  0.00    -0.360 OA
HETATM   27  H20 UNK     1      26.500  -6.780  36.151  1.00  0.00     0.217 HD
ENDBRANCH  20  26
BRANCH  22  28
HETATM   28  O4  UNK     1      28.164  -9.435  39.677  1.00  0.00    -0.359 OA
HETATM   29  H22 UNK     1      27.400  -8.921  39.991  1.00  0.00     0.217 HD
ENDBRANCH  22  28
ENDBRANCH   5  19
BRANCH  18  30
HETATM   30  O3  UNK     1      26.296  -7.016  30.033  1.00  0.00    -0.359 OA
HETATM   31  H21 UNK     1      26.423  -6.053  29.976  1.00  0.00     0.217 HD
ENDBRANCH  18  30
TORSDOF 4
ENDMDL
MODEL 10
REMARK VINA RESULT:      -7.7      2.940      6.768
REMARK  4 active torsions:
REMARK  status: ('A' for Active; 'I' for Inactive)
REMARK    1  A    between atoms: C16_22  and  O2_4 
REMARK    2  A    between atoms: C19_25  and  O3_5 
REMARK    3  A    between atoms: C22_28  and  O4_6 
REMARK    4  A    between atoms: C12_18  and  C3_9 
ROOT
HETATM    1 Cl1  UNK     1      29.505  -7.440  29.088  1.00  0.00    -0.081 Cl
HETATM    2  O1  UNK     1      31.171  -5.845  34.487  1.00  0.00    -0.334 OA
HETATM    3  C1  UNK     1      30.857  -8.736  34.004  1.00  0.00    -0.004 C 
HETATM    4  C2  UNK     1      31.885  -8.188  35.018  1.00  0.00     0.039 C 
HETATM    5  C3  UNK     1      31.581  -6.753  35.527  1.00  0.00     0.102 C 
HETATM    6  C4  UNK     1      33.322  -8.076  34.483  1.00  0.00     0.009 C 
HETATM    7  C5  UNK     1      31.314 -10.116  33.467  1.00  0.00     0.015 C 
HETATM    8  C6  UNK     1      29.520  -9.098  34.695  1.00  0.00     0.015 C 
HETATM    9  C7  UNK     1      32.972  -6.209  35.977  1.00  0.00     0.044 C 
HETATM   10  C8  UNK     1      34.011  -7.244  35.549  1.00  0.00     0.004 C 
HETATM   11  C9  UNK     1      30.616  -7.670  32.944  1.00  0.00    -0.014 A 
HETATM   12  C10 UNK     1      30.060 -10.976  33.276  1.00  0.00     0.001 C 
HETATM   13  C11 UNK     1      28.889 -10.168  33.814  1.00  0.00     0.001 C 
HETATM   14  C13 UNK     1      30.768  -6.317  33.272  1.00  0.00     0.080 A 
HETATM   15  C14 UNK     1      30.225  -7.983  31.629  1.00  0.00     0.037 A 
HETATM   16  C15 UNK     1      30.519  -5.316  32.322  1.00  0.00     0.075 A 
HETATM   17  C18 UNK     1      29.982  -6.985  30.683  1.00  0.00     0.067 A 
HETATM   18  C19 UNK     1      30.126  -5.649  31.030  1.00  0.00     0.090 A 
ENDROOT
BRANCH   5  19
HETATM   19  C12 UNK     1      30.589  -6.703  36.691  1.00  0.00     0.012 A 
HETATM   20  C16 UNK     1      30.103  -5.482  37.168  1.00  0.00     0.077 A 
HETATM   21  C20 UNK     1      29.199  -5.455  38.230  1.00  0.00     0.075 A 
HETATM   22  C22 UNK     1      28.777  -6.647  38.819  1.00  0.00     0.090 A 
HETATM   23  C21 UNK     1      29.259  -7.867  38.345  1.00  0.00     0.068 A 
HETATM   24  C17 UNK     1      30.163  -7.895  37.284  1.00  0.00     0.039 A 
HETATM   25 Cl2  UNK     1      28.755  -9.357  39.054  1.00  0.00    -0.081 Cl
BRANCH  20  26
HETATM   26  O2  UNK     1      30.504  -4.309  36.605  1.00  0.00    -0.360 OA
HETATM   27  H20 UNK     1      31.142  -3.874  37.196  1.00  0.00     0.217 HD
ENDBRANCH  20  26
BRANCH  22  28
HETATM   28  O4  UNK     1      27.893  -6.590  39.855  1.00  0.00    -0.359 OA
HETATM   29  H22 UNK     1      26.995  -6.752  39.518  1.00  0.00     0.217 HD
ENDBRANCH  22  28
ENDBRANCH   5  19
BRANCH  18  30
HETATM   30  O3  UNK     1      29.898  -4.650  30.133  1.00  0.00    -0.359 OA
HETATM   31  H21 UNK     1      30.652  -4.036  30.162  1.00  0.00     0.217 HD
ENDBRANCH  18  30
TORSDOF 4
ENDMDL
