MODEL 1
REMARK VINA RESULT:     -10.5      0.000      0.000
REMARK  7 active torsions:
REMARK  status: ('A' for Active; 'I' for Inactive)
REMARK    1  A    between atoms: C3_13  and  O1_2 
REMARK    2  A    between atoms: C6_16  and  O1_2 
REMARK    3  A    between atoms: C21_31  and  N1_8 
REMARK    4  A    between atoms: C5_15  and  N1_8 
REMARK       I    between atoms: C17_27  and  N2_9 
REMARK    5  A    between atoms: N2_9  and  N3_10 
REMARK    6  A    between atoms: C21_31  and  N3_10 
REMARK    7  A    between atoms: C17_27  and  C3_13 
ROOT
HETATM    1  N3  UNK     1      19.788  -2.190  35.822  1.00  0.00    -0.273 N 
HETATM    2  H19 UNK     1      20.573  -1.673  36.204  1.00  0.00     0.189 HD
ENDROOT
BRANCH   1   3
HETATM    3  C21 UNK     1      18.801  -2.726  36.644  1.00  0.00     0.191 C 
HETATM    4  S1  UNK     1      17.862  -1.639  37.507  1.00  0.00    -0.039 SA
BRANCH   3   5
HETATM    5  N1  UNK     1      18.731  -4.131  36.620  1.00  0.00    -0.332 N 
HETATM    6  H17 UNK     1      17.815  -4.474  36.338  1.00  0.00     0.168 HD
BRANCH   5   7
HETATM    7  C5  UNK     1      19.656  -5.159  36.810  1.00  0.00     0.037 A 
HETATM    8  C12 UNK     1      20.495  -5.145  37.922  1.00  0.00     0.030 A 
HETATM    9  C10 UNK     1      21.425  -6.173  38.118  1.00  0.00     0.017 A 
HETATM   10  C1  UNK     1      21.530  -7.228  37.203  1.00  0.00     0.004 A 
HETATM   11  C2  UNK     1      20.676  -7.216  36.099  1.00  0.00     0.092 A 
HETATM   12  C4  UNK     1      22.481  -8.339  37.343  1.00  0.00    -0.043 A 
HETATM   13  O2  UNK     1      20.718  -8.241  35.132  1.00  0.00    -0.275 OA
HETATM   14  C9  UNK     1      19.743  -6.198  35.889  1.00  0.00     0.067 A 
HETATM   15  C20 UNK     1      21.605  -9.300  35.238  1.00  0.00     0.288 A 
HETATM   16  C15 UNK     1      22.499  -9.301  36.408  1.00  0.00     0.090 A 
HETATM   17  O6  UNK     1      21.650 -10.197  34.404  1.00  0.00    -0.260 OA
HETATM   18  C18 UNK     1      23.412  -8.383  38.519  1.00  0.00     0.049 C 
ENDBRANCH   5   7
ENDBRANCH   3   5
ENDBRANCH   1   3
BRANCH   1  19
HETATM   19  N2  UNK     1      19.747  -2.331  34.456  1.00  0.00    -0.266 N 
HETATM   20  C17 UNK     1      20.926  -2.265  33.737  1.00  0.00     0.265 C 
HETATM   21  O5  UNK     1      22.042  -2.086  34.222  1.00  0.00    -0.269 OA
HETATM   22  H18 UNK     1      18.856  -2.575  34.038  1.00  0.00     0.190 HD
BRANCH  20  23
HETATM   23  C3  UNK     1      20.700  -2.428  32.241  1.00  0.00     0.218 C 
HETATM   24  C16 UNK     1      21.300  -3.731  31.737  1.00  0.00     0.050 C 
BRANCH  23  25
HETATM   25  O1  UNK     1      21.324  -1.356  31.555  1.00  0.00    -0.337 OA
BRANCH  25  26
HETATM   26  C6  UNK     1      20.562  -0.675  30.641  1.00  0.00     0.072 A 
HETATM   27  C11 UNK     1      19.784   0.400  31.062  1.00  0.00     0.076 A 
HETATM   28  C7  UNK     1      19.035   1.054  30.105  1.00  0.00     0.107 A 
HETATM   29  O3  UNK     1      18.217   2.119  30.322  1.00  0.00    -0.323 OA
HETATM   30  C8  UNK     1      19.051   0.666  28.785  1.00  0.00     0.105 A 
HETATM   31  C19 UNK     1      17.719   2.359  28.990  1.00  0.00     0.352 A 
HETATM   32  O4  UNK     1      18.244   1.441  28.010  1.00  0.00    -0.323 OA
HETATM   33  C14 UNK     1      19.816  -0.396  28.349  1.00  0.00     0.042 A 
HETATM   34  C13 UNK     1      20.583  -1.075  29.298  1.00  0.00     0.040 A 
ENDBRANCH  25  26
ENDBRANCH  23  25
ENDBRANCH  20  23
ENDBRANCH   1  19
TORSDOF 7
ENDMDL
MODEL 2
REMARK VINA RESULT:     -10.2      1.922      2.240
REMARK  7 active torsions:
REMARK  status: ('A' for Active; 'I' for Inactive)
REMARK    1  A    between atoms: C3_13  and  O1_2 
REMARK    2  A    between atoms: C6_16  and  O1_2 
REMARK    3  A    between atoms: C21_31  and  N1_8 
REMARK    4  A    between atoms: C5_15  and  N1_8 
REMARK       I    between atoms: C17_27  and  N2_9 
REMARK    5  A    between atoms: N2_9  and  N3_10 
REMARK    6  A    between atoms: C21_31  and  N3_10 
REMARK    7  A    between atoms: C17_27  and  C3_13 
ROOT
HETATM    1  N3  UNK     1      19.423  -1.560  35.703  1.00  0.00    -0.273 N 
HETATM    2  H19 UNK     1      20.014  -0.799  36.019  1.00  0.00     0.189 HD
ENDROOT
BRANCH   1   3
HETATM    3  C21 UNK     1      18.589  -2.246  36.581  1.00  0.00     0.191 C 
HETATM    4  S1  UNK     1      17.626  -1.318  37.591  1.00  0.00    -0.039 SA
BRANCH   3   5
HETATM    5  N1  UNK     1      18.673  -3.647  36.480  1.00  0.00    -0.332 N 
HETATM    6  H17 UNK     1      18.075  -4.025  35.748  1.00  0.00     0.168 HD
BRANCH   5   7
HETATM    7  C5  UNK     1      19.453  -4.626  37.096  1.00  0.00     0.037 A 
HETATM    8  C12 UNK     1      18.900  -5.867  37.404  1.00  0.00     0.030 A 
HETATM    9  C10 UNK     1      19.677  -6.854  38.022  1.00  0.00     0.017 A 
HETATM   10  C1  UNK     1      21.019  -6.612  38.343  1.00  0.00     0.004 A 
HETATM   11  C2  UNK     1      21.546  -5.359  38.022  1.00  0.00     0.092 A 
HETATM   12  C4  UNK     1      21.894  -7.597  38.992  1.00  0.00    -0.043 A 
HETATM   13  O2  UNK     1      22.887  -5.036  38.312  1.00  0.00    -0.275 OA
HETATM   14  C9  UNK     1      20.784  -4.365  37.405  1.00  0.00     0.067 A 
HETATM   15  C20 UNK     1      23.736  -5.946  38.924  1.00  0.00     0.288 A 
HETATM   16  C15 UNK     1      23.166  -7.263  39.255  1.00  0.00     0.090 A 
HETATM   17  O6  UNK     1      24.903  -5.676  39.180  1.00  0.00    -0.260 OA
HETATM   18  C18 UNK     1      21.359  -8.953  39.348  1.00  0.00     0.049 C 
ENDBRANCH   5   7
ENDBRANCH   3   5
ENDBRANCH   1   3
BRANCH   1  19
HETATM   19  N2  UNK     1      19.486  -1.877  34.367  1.00  0.00    -0.266 N 
HETATM   20  C17 UNK     1      20.711  -2.178  33.803  1.00  0.00     0.265 C 
HETATM   21  O5  UNK     1      21.784  -2.189  34.404  1.00  0.00    -0.269 OA
HETATM   22  H18 UNK     1      18.607  -1.971  33.868  1.00  0.00     0.190 HD
BRANCH  20  23
HETATM   23  C3  UNK     1      20.602  -2.493  32.318  1.00  0.00     0.218 C 
HETATM   24  C16 UNK     1      21.240  -3.835  31.996  1.00  0.00     0.050 C 
BRANCH  23  25
HETATM   25  O1  UNK     1      21.277  -1.490  31.578  1.00  0.00    -0.337 OA
BRANCH  25  26
HETATM   26  C6  UNK     1      20.532  -0.778  30.673  1.00  0.00     0.072 A 
HETATM   27  C11 UNK     1      19.808   0.331  31.103  1.00  0.00     0.076 A 
HETATM   28  C7  UNK     1      19.074   1.015  30.155  1.00  0.00     0.107 A 
HETATM   29  O3  UNK     1      18.307   2.115  30.381  1.00  0.00    -0.323 OA
HETATM   30  C8  UNK     1      19.055   0.625  28.836  1.00  0.00     0.105 A 
HETATM   31  C19 UNK     1      17.802   2.375  29.055  1.00  0.00     0.352 A 
HETATM   32  O4  UNK     1      18.272   1.433  28.069  1.00  0.00    -0.323 OA
HETATM   33  C14 UNK     1      19.767  -0.471  28.391  1.00  0.00     0.042 A 
HETATM   34  C13 UNK     1      20.517  -1.181  29.331  1.00  0.00     0.040 A 
ENDBRANCH  25  26
ENDBRANCH  23  25
ENDBRANCH  20  23
ENDBRANCH   1  19
TORSDOF 7
ENDMDL
MODEL 3
REMARK VINA RESULT:     -10.2      1.460      1.647
REMARK  7 active torsions:
REMARK  status: ('A' for Active; 'I' for Inactive)
REMARK    1  A    between atoms: C3_13  and  O1_2 
REMARK    2  A    between atoms: C6_16  and  O1_2 
REMARK    3  A    between atoms: C21_31  and  N1_8 
REMARK    4  A    between atoms: C5_15  and  N1_8 
REMARK       I    between atoms: C17_27  and  N2_9 
REMARK    5  A    between atoms: N2_9  and  N3_10 
REMARK    6  A    between atoms: C21_31  and  N3_10 
REMARK    7  A    between atoms: C17_27  and  C3_13 
ROOT
HETATM    1  N3  UNK     1      19.350  -2.624  35.731  1.00  0.00    -0.273 N 
HETATM    2  H19 UNK     1      18.993  -1.765  36.135  1.00  0.00     0.189 HD
ENDROOT
BRANCH   1   3
HETATM    3  C21 UNK     1      19.703  -3.710  36.527  1.00  0.00     0.191 C 
HETATM    4  S1  UNK     1      20.775  -3.412  37.780  1.00  0.00    -0.039 SA
BRANCH   3   5
HETATM    5  N1  UNK     1      19.087  -4.919  36.158  1.00  0.00    -0.332 N 
HETATM    6  H17 UNK     1      18.335  -4.788  35.485  1.00  0.00     0.168 HD
BRANCH   5   7
HETATM    7  C5  UNK     1      19.328  -6.264  36.440  1.00  0.00     0.037 A 
HETATM    8  C12 UNK     1      18.681  -6.880  37.510  1.00  0.00     0.030 A 
HETATM    9  C10 UNK     1      18.919  -8.229  37.798  1.00  0.00     0.017 A 
HETATM   10  C1  UNK     1      19.808  -8.981  37.020  1.00  0.00     0.004 A 
HETATM   11  C2  UNK     1      20.441  -8.339  35.955  1.00  0.00     0.092 A 
HETATM   12  C4  UNK     1      20.107 -10.399  37.263  1.00  0.00    -0.043 A 
HETATM   13  O2  UNK     1      21.350  -9.025  35.125  1.00  0.00    -0.275 OA
HETATM   14  C9  UNK     1      20.214  -6.994  35.655  1.00  0.00     0.067 A 
HETATM   15  C20 UNK     1      21.651 -10.362  35.331  1.00  0.00     0.288 A 
HETATM   16  C15 UNK     1      20.976 -11.027  36.457  1.00  0.00     0.090 A 
HETATM   17  O6  UNK     1      22.440 -10.969  34.615  1.00  0.00    -0.260 OA
HETATM   18  C18 UNK     1      19.443 -11.120  38.400  1.00  0.00     0.049 C 
ENDBRANCH   5   7
ENDBRANCH   3   5
ENDBRANCH   1   3
BRANCH   1  19
HETATM   19  N2  UNK     1      19.462  -2.662  34.361  1.00  0.00    -0.266 N 
HETATM   20  C17 UNK     1      20.695  -2.429  33.781  1.00  0.00     0.265 C 
HETATM   21  O5  UNK     1      21.732  -2.183  34.395  1.00  0.00    -0.269 OA
HETATM   22  H18 UNK     1      18.647  -2.957  33.835  1.00  0.00     0.190 HD
BRANCH  20  23
HETATM   23  C3  UNK     1      20.639  -2.497  32.262  1.00  0.00     0.218 C 
HETATM   24  C16 UNK     1      21.405  -3.703  31.741  1.00  0.00     0.050 C 
BRANCH  23  25
HETATM   25  O1  UNK     1      21.229  -1.328  31.720  1.00  0.00    -0.337 OA
BRANCH  25  26
HETATM   26  C6  UNK     1      20.511  -0.654  30.765  1.00  0.00     0.072 A 
HETATM   27  C11 UNK     1      19.737   0.442  31.136  1.00  0.00     0.076 A 
HETATM   28  C7  UNK     1      19.034   1.087  30.139  1.00  0.00     0.107 A 
HETATM   29  O3  UNK     1      18.227   2.170  30.304  1.00  0.00    -0.323 OA
HETATM   30  C8  UNK     1      19.089   0.671  28.829  1.00  0.00     0.105 A 
HETATM   31  C19 UNK     1      17.781   2.389  28.951  1.00  0.00     0.352 A 
HETATM   32  O4  UNK     1      18.323   1.441  28.009  1.00  0.00    -0.323 OA
HETATM   33  C14 UNK     1      19.850  -0.414  28.443  1.00  0.00     0.042 A 
HETATM   34  C13 UNK     1      20.572  -1.084  29.433  1.00  0.00     0.040 A 
ENDBRANCH  25  26
ENDBRANCH  23  25
ENDBRANCH  20  23
ENDBRANCH   1  19
TORSDOF 7
ENDMDL
MODEL 4
REMARK VINA RESULT:     -10.0      5.115      7.384
REMARK  7 active torsions:
REMARK  status: ('A' for Active; 'I' for Inactive)
REMARK    1  A    between atoms: C3_13  and  O1_2 
REMARK    2  A    between atoms: C6_16  and  O1_2 
REMARK    3  A    between atoms: C21_31  and  N1_8 
REMARK    4  A    between atoms: C5_15  and  N1_8 
REMARK       I    between atoms: C17_27  and  N2_9 
REMARK    5  A    between atoms: N2_9  and  N3_10 
REMARK    6  A    between atoms: C21_31  and  N3_10 
REMARK    7  A    between atoms: C17_27  and  C3_13 
ROOT
HETATM    1  N3  UNK     1      20.490   0.302  31.031  1.00  0.00    -0.273 N 
HETATM    2  H19 UNK     1      21.098   0.594  31.789  1.00  0.00     0.189 HD
ENDROOT
BRANCH   1   3
HETATM    3  C21 UNK     1      20.336  -1.040  30.697  1.00  0.00     0.191 C 
HETATM    4  S1  UNK     1      20.510  -1.443  29.080  1.00  0.00    -0.039 SA
BRANCH   3   5
HETATM    5  N1  UNK     1      20.060  -1.878  31.793  1.00  0.00    -0.332 N 
HETATM    6  H17 UNK     1      20.377  -2.833  31.647  1.00  0.00     0.168 HD
BRANCH   5   7
HETATM    7  C5  UNK     1      19.530  -1.676  33.068  1.00  0.00     0.037 A 
HETATM    8  C12 UNK     1      20.192  -2.178  34.187  1.00  0.00     0.030 A 
HETATM    9  C10 UNK     1      19.665  -1.981  35.468  1.00  0.00     0.017 A 
HETATM   10  C1  UNK     1      18.467  -1.278  35.649  1.00  0.00     0.004 A 
HETATM   11  C2  UNK     1      17.826  -0.786  34.510  1.00  0.00     0.092 A 
HETATM   12  C4  UNK     1      17.855  -1.032  36.962  1.00  0.00    -0.043 A 
HETATM   13  O2  UNK     1      16.616  -0.069  34.607  1.00  0.00    -0.275 OA
HETATM   14  C9  UNK     1      18.339  -0.975  33.226  1.00  0.00     0.067 A 
HETATM   15  C20 UNK     1      16.016   0.177  35.831  1.00  0.00     0.288 A 
HETATM   16  C15 UNK     1      16.703  -0.347  37.023  1.00  0.00     0.090 A 
HETATM   17  O6  UNK     1      14.964   0.799  35.927  1.00  0.00    -0.260 OA
HETATM   18  C18 UNK     1      18.519  -1.546  38.205  1.00  0.00     0.049 C 
ENDBRANCH   5   7
ENDBRANCH   3   5
ENDBRANCH   1   3
BRANCH   1  19
HETATM   19  N2  UNK     1      19.826   1.298  30.354  1.00  0.00    -0.266 N 
HETATM   20  C17 UNK     1      18.806   1.979  30.991  1.00  0.00     0.265 C 
HETATM   21  O5  UNK     1      18.425   1.770  32.141  1.00  0.00    -0.269 OA
HETATM   22  H18 UNK     1      20.182   1.558  29.441  1.00  0.00     0.190 HD
BRANCH  20  23
HETATM   23  C3  UNK     1      18.173   3.037  30.098  1.00  0.00     0.218 C 
HETATM   24  C16 UNK     1      17.970   2.509  28.686  1.00  0.00     0.050 C 
BRANCH  23  25
HETATM   25  O1  UNK     1      19.029   4.164  30.033  1.00  0.00    -0.337 OA
BRANCH  25  26
HETATM   26  C6  UNK     1      19.013   5.020  31.104  1.00  0.00     0.072 A 
HETATM   27  C11 UNK     1      17.822   5.235  31.792  1.00  0.00     0.076 A 
HETATM   28  C7  UNK     1      17.857   6.105  32.863  1.00  0.00     0.107 A 
HETATM   29  O3  UNK     1      16.801   6.441  33.653  1.00  0.00    -0.323 OA
HETATM   30  C8  UNK     1      19.018   6.737  33.244  1.00  0.00     0.105 A 
HETATM   31  C19 UNK     1      17.427   7.357  34.574  1.00  0.00     0.352 A 
HETATM   32  O4  UNK     1      18.834   7.550  34.321  1.00  0.00    -0.323 OA
HETATM   33  C14 UNK     1      20.208   6.536  32.575  1.00  0.00     0.042 A 
HETATM   34  C13 UNK     1      20.200   5.661  31.487  1.00  0.00     0.040 A 
ENDBRANCH  25  26
ENDBRANCH  23  25
ENDBRANCH  20  23
ENDBRANCH   1  19
TORSDOF 7
ENDMDL
MODEL 5
REMARK VINA RESULT:      -9.9      3.105     10.804
REMARK  7 active torsions:
REMARK  status: ('A' for Active; 'I' for Inactive)
REMARK    1  A    between atoms: C3_13  and  O1_2 
REMARK    2  A    between atoms: C6_16  and  O1_2 
REMARK    3  A    between atoms: C21_31  and  N1_8 
REMARK    4  A    between atoms: C5_15  and  N1_8 
REMARK       I    between atoms: C17_27  and  N2_9 
REMARK    5  A    between atoms: N2_9  and  N3_10 
REMARK    6  A    between atoms: C21_31  and  N3_10 
REMARK    7  A    between atoms: C17_27  and  C3_13 
ROOT
HETATM    1  N3  UNK     1      20.458  -1.579  32.773  1.00  0.00    -0.273 N 
HETATM    2  H19 UNK     1      21.416  -1.283  32.922  1.00  0.00     0.189 HD
ENDROOT
BRANCH   1   3
HETATM    3  C21 UNK     1      19.782  -1.288  31.592  1.00  0.00     0.191 C 
HETATM    4  S1  UNK     1      20.245  -2.141  30.226  1.00  0.00    -0.039 SA
BRANCH   3   5
HETATM    5  N1  UNK     1      18.782  -0.308  31.726  1.00  0.00    -0.332 N 
HETATM    6  H17 UNK     1      17.916  -0.680  32.111  1.00  0.00     0.168 HD
BRANCH   5   7
HETATM    7  C5  UNK     1      18.736   1.073  31.534  1.00  0.00     0.037 A 
HETATM    8  C12 UNK     1      19.086   1.618  30.300  1.00  0.00     0.030 A 
HETATM    9  C10 UNK     1      19.042   3.002  30.100  1.00  0.00     0.017 A 
HETATM   10  C1  UNK     1      18.649   3.863  31.133  1.00  0.00     0.004 A 
HETATM   11  C2  UNK     1      18.304   3.289  32.358  1.00  0.00     0.092 A 
HETATM   12  C4  UNK     1      18.580   5.324  30.997  1.00  0.00    -0.043 A 
HETATM   13  O2  UNK     1      17.898   4.085  33.448  1.00  0.00    -0.275 OA
HETATM   14  C9  UNK     1      18.343   1.910  32.573  1.00  0.00     0.067 A 
HETATM   15  C20 UNK     1      17.825   5.466  33.349  1.00  0.00     0.288 A 
HETATM   16  C15 UNK     1      18.190   6.057  32.051  1.00  0.00     0.090 A 
HETATM   17  O6  UNK     1      17.473   6.168  34.290  1.00  0.00    -0.260 OA
HETATM   18  C18 UNK     1      18.943   5.972  29.693  1.00  0.00     0.049 C 
ENDBRANCH   5   7
ENDBRANCH   3   5
ENDBRANCH   1   3
BRANCH   1  19
HETATM   19  N2  UNK     1      19.863  -2.284  33.793  1.00  0.00    -0.266 N 
HETATM   20  C17 UNK     1      20.517  -2.392  35.007  1.00  0.00     0.265 C 
HETATM   21  O5  UNK     1      21.615  -1.902  35.266  1.00  0.00    -0.269 OA
HETATM   22  H18 UNK     1      18.917  -2.616  33.641  1.00  0.00     0.190 HD
BRANCH  20  23
HETATM   23  C3  UNK     1      19.727  -3.212  36.016  1.00  0.00     0.218 C 
HETATM   24  C16 UNK     1      19.154  -2.325  37.111  1.00  0.00     0.050 C 
BRANCH  23  25
HETATM   25  O1  UNK     1      20.586  -4.164  36.618  1.00  0.00    -0.337 OA
BRANCH  25  26
HETATM   26  C6  UNK     1      20.156  -5.467  36.635  1.00  0.00     0.072 A 
HETATM   27  C11 UNK     1      20.052  -6.138  37.851  1.00  0.00     0.076 A 
HETATM   28  C7  UNK     1      19.614  -7.446  37.816  1.00  0.00     0.107 A 
HETATM   29  O3  UNK     1      19.450  -8.262  38.892  1.00  0.00    -0.323 OA
HETATM   30  C8  UNK     1      19.290  -8.070  36.633  1.00  0.00     0.105 A 
HETATM   31  C19 UNK     1      18.986  -9.469  38.255  1.00  0.00     0.352 A 
HETATM   32  O4  UNK     1      18.883  -9.355  36.821  1.00  0.00    -0.323 OA
HETATM   33  C14 UNK     1      19.387  -7.420  35.419  1.00  0.00     0.042 A 
HETATM   34  C13 UNK     1      19.827  -6.095  35.427  1.00  0.00     0.040 A 
ENDBRANCH  25  26
ENDBRANCH  23  25
ENDBRANCH  20  23
ENDBRANCH   1  19
TORSDOF 7
ENDMDL
MODEL 6
REMARK VINA RESULT:      -9.9      5.183      8.182
REMARK  7 active torsions:
REMARK  status: ('A' for Active; 'I' for Inactive)
REMARK    1  A    between atoms: C3_13  and  O1_2 
REMARK    2  A    between atoms: C6_16  and  O1_2 
REMARK    3  A    between atoms: C21_31  and  N1_8 
REMARK    4  A    between atoms: C5_15  and  N1_8 
REMARK       I    between atoms: C17_27  and  N2_9 
REMARK    5  A    between atoms: N2_9  and  N3_10 
REMARK    6  A    between atoms: C21_31  and  N3_10 
REMARK    7  A    between atoms: C17_27  and  C3_13 
ROOT
HETATM    1  N3  UNK     1      19.258   1.509  29.524  1.00  0.00    -0.273 N 
HETATM    2  H19 UNK     1      18.982   1.402  28.554  1.00  0.00     0.189 HD
ENDROOT
BRANCH   1   3
HETATM    3  C21 UNK     1      19.524   0.405  30.330  1.00  0.00     0.191 C 
HETATM    4  S1  UNK     1      20.868  -0.514  29.934  1.00  0.00    -0.039 SA
BRANCH   3   5
HETATM    5  N1  UNK     1      18.611   0.230  31.385  1.00  0.00    -0.332 N 
HETATM    6  H17 UNK     1      17.654   0.449  31.118  1.00  0.00     0.168 HD
BRANCH   5   7
HETATM    7  C5  UNK     1      18.707  -0.260  32.689  1.00  0.00     0.037 A 
HETATM    8  C12 UNK     1      19.308  -1.494  32.928  1.00  0.00     0.030 A 
HETATM    9  C10 UNK     1      19.407  -1.991  34.233  1.00  0.00     0.017 A 
HETATM   10  C1  UNK     1      18.904  -1.260  35.317  1.00  0.00     0.004 A 
HETATM   11  C2  UNK     1      18.307  -0.028  35.047  1.00  0.00     0.092 A 
HETATM   12  C4  UNK     1      18.972  -1.718  36.712  1.00  0.00    -0.043 A 
HETATM   13  O2  UNK     1      17.777   0.768  36.083  1.00  0.00    -0.275 OA
HETATM   14  C9  UNK     1      18.201   0.481  33.752  1.00  0.00     0.067 A 
HETATM   15  C20 UNK     1      17.826   0.362  37.407  1.00  0.00     0.288 A 
HETATM   16  C15 UNK     1      18.459  -0.940  37.676  1.00  0.00     0.090 A 
HETATM   17  O6  UNK     1      17.368   1.045  38.315  1.00  0.00    -0.260 OA
HETATM   18  C18 UNK     1      19.608  -3.039  37.036  1.00  0.00     0.049 C 
ENDBRANCH   5   7
ENDBRANCH   3   5
ENDBRANCH   1   3
BRANCH   1  19
HETATM   19  N2  UNK     1      19.359   2.794  30.000  1.00  0.00    -0.266 N 
HETATM   20  C17 UNK     1      18.281   3.355  30.660  1.00  0.00     0.265 C 
HETATM   21  O5  UNK     1      17.208   2.792  30.867  1.00  0.00    -0.269 OA
HETATM   22  H18 UNK     1      20.264   3.248  29.930  1.00  0.00     0.190 HD
BRANCH  20  23
HETATM   23  C3  UNK     1      18.558   4.782  31.108  1.00  0.00     0.218 C 
HETATM   24  C16 UNK     1      19.838   5.313  30.481  1.00  0.00     0.050 C 
BRANCH  23  25
HETATM   25  O1  UNK     1      18.709   4.807  32.517  1.00  0.00    -0.337 OA
BRANCH  25  26
HETATM   26  C6  UNK     1      18.175   5.882  33.181  1.00  0.00     0.072 A 
HETATM   27  C11 UNK     1      16.853   6.247  32.941  1.00  0.00     0.076 A 
HETATM   28  C7  UNK     1      16.361   7.335  33.633  1.00  0.00     0.107 A 
HETATM   29  O3  UNK     1      15.102   7.842  33.534  1.00  0.00    -0.323 OA
HETATM   30  C8  UNK     1      17.138   8.036  34.527  1.00  0.00     0.105 A 
HETATM   31  C19 UNK     1      15.173   8.940  34.465  1.00  0.00     0.352 A 
HETATM   32  O4  UNK     1      16.462   9.070  35.099  1.00  0.00    -0.323 OA
HETATM   33  C14 UNK     1      18.450   7.689  34.777  1.00  0.00     0.042 A 
HETATM   34  C13 UNK     1      18.972   6.591  34.089  1.00  0.00     0.040 A 
ENDBRANCH  25  26
ENDBRANCH  23  25
ENDBRANCH  20  23
ENDBRANCH   1  19
TORSDOF 7
ENDMDL
MODEL 7
REMARK VINA RESULT:      -9.9      2.619      3.576
REMARK  7 active torsions:
REMARK  status: ('A' for Active; 'I' for Inactive)
REMARK    1  A    between atoms: C3_13  and  O1_2 
REMARK    2  A    between atoms: C6_16  and  O1_2 
REMARK    3  A    between atoms: C21_31  and  N1_8 
REMARK    4  A    between atoms: C5_15  and  N1_8 
REMARK       I    between atoms: C17_27  and  N2_9 
REMARK    5  A    between atoms: N2_9  and  N3_10 
REMARK    6  A    between atoms: C21_31  and  N3_10 
REMARK    7  A    between atoms: C17_27  and  C3_13 
ROOT
HETATM    1  N3  UNK     1      18.028  -2.733  36.554  1.00  0.00    -0.273 N 
HETATM    2  H19 UNK     1      17.133  -2.744  37.031  1.00  0.00     0.189 HD
ENDROOT
BRANCH   1   3
HETATM    3  C21 UNK     1      18.966  -3.743  36.744  1.00  0.00     0.191 C 
HETATM    4  S1  UNK     1      20.465  -3.283  37.335  1.00  0.00    -0.039 SA
BRANCH   3   5
HETATM    5  N1  UNK     1      18.503  -5.030  36.414  1.00  0.00    -0.332 N 
HETATM    6  H17 UNK     1      17.534  -5.031  36.101  1.00  0.00     0.168 HD
BRANCH   5   7
HETATM    7  C5  UNK     1      19.094  -6.291  36.336  1.00  0.00     0.037 A 
HETATM    8  C12 UNK     1      20.020  -6.567  35.332  1.00  0.00     0.030 A 
HETATM    9  C10 UNK     1      20.617  -7.830  35.248  1.00  0.00     0.017 A 
HETATM   10  C1  UNK     1      20.294  -8.837  36.166  1.00  0.00     0.004 A 
HETATM   11  C2  UNK     1      19.363  -8.533  37.161  1.00  0.00     0.092 A 
HETATM   12  C4  UNK     1      20.878 -10.185  36.139  1.00  0.00    -0.043 A 
HETATM   13  O2  UNK     1      18.984  -9.491  38.123  1.00  0.00    -0.275 OA
HETATM   14  C9  UNK     1      18.760  -7.277  37.258  1.00  0.00     0.067 A 
HETATM   15  C20 UNK     1      19.518 -10.770  38.122  1.00  0.00     0.288 A 
HETATM   16  C15 UNK     1      20.499 -11.076  37.067  1.00  0.00     0.090 A 
HETATM   17  O6  UNK     1      19.196 -11.610  38.953  1.00  0.00    -0.260 OA
HETATM   18  C18 UNK     1      21.883 -10.544  35.083  1.00  0.00     0.049 C 
ENDBRANCH   5   7
ENDBRANCH   3   5
ENDBRANCH   1   3
BRANCH   1  19
HETATM   19  N2  UNK     1      18.265  -1.674  35.710  1.00  0.00    -0.266 N 
HETATM   20  C17 UNK     1      18.289  -0.393  36.228  1.00  0.00     0.265 C 
HETATM   21  O5  UNK     1      18.112  -0.103  37.410  1.00  0.00    -0.269 OA
HETATM   22  H18 UNK     1      18.510  -1.890  34.749  1.00  0.00     0.190 HD
BRANCH  20  23
HETATM   23  C3  UNK     1      18.551   0.657  35.158  1.00  0.00     0.218 C 
HETATM   24  C16 UNK     1      18.166   2.044  35.648  1.00  0.00     0.050 C 
BRANCH  23  25
HETATM   25  O1  UNK     1      17.774   0.358  34.012  1.00  0.00    -0.337 OA
BRANCH  25  26
HETATM   26  C6  UNK     1      18.426   0.343  32.805  1.00  0.00     0.072 A 
HETATM   27  C11 UNK     1      18.991  -0.843  32.346  1.00  0.00     0.076 A 
HETATM   28  C7  UNK     1      19.636  -0.808  31.127  1.00  0.00     0.107 A 
HETATM   29  O3  UNK     1      20.247  -1.859  30.516  1.00  0.00    -0.323 OA
HETATM   30  C8  UNK     1      19.721   0.348  30.387  1.00  0.00     0.105 A 
HETATM   31  C19 UNK     1      20.727  -1.235  29.308  1.00  0.00     0.352 A 
HETATM   32  O4  UNK     1      20.397   0.166  29.219  1.00  0.00    -0.323 OA
HETATM   33  C14 UNK     1      19.167   1.534  30.825  1.00  0.00     0.042 A 
HETATM   34  C13 UNK     1      18.509   1.525  32.056  1.00  0.00     0.040 A 
ENDBRANCH  25  26
ENDBRANCH  23  25
ENDBRANCH  20  23
ENDBRANCH   1  19
TORSDOF 7
ENDMDL
MODEL 8
REMARK VINA RESULT:      -9.8      2.886      3.791
REMARK  7 active torsions:
REMARK  status: ('A' for Active; 'I' for Inactive)
REMARK    1  A    between atoms: C3_13  and  O1_2 
REMARK    2  A    between atoms: C6_16  and  O1_2 
REMARK    3  A    between atoms: C21_31  and  N1_8 
REMARK    4  A    between atoms: C5_15  and  N1_8 
REMARK       I    between atoms: C17_27  and  N2_9 
REMARK    5  A    between atoms: N2_9  and  N3_10 
REMARK    6  A    between atoms: C21_31  and  N3_10 
REMARK    7  A    between atoms: C17_27  and  C3_13 
ROOT
HETATM    1  N3  UNK     1      19.801  -2.423  34.655  1.00  0.00    -0.273 N 
HETATM    2  H19 UNK     1      20.071  -2.621  33.697  1.00  0.00     0.189 HD
ENDROOT
BRANCH   1   3
HETATM    3  C21 UNK     1      19.828  -3.408  35.637  1.00  0.00     0.191 C 
HETATM    4  S1  UNK     1      19.965  -2.890  37.225  1.00  0.00    -0.039 SA
BRANCH   3   5
HETATM    5  N1  UNK     1      19.724  -4.720  35.140  1.00  0.00    -0.332 N 
HETATM    6  H17 UNK     1      19.621  -4.751  34.128  1.00  0.00     0.168 HD
BRANCH   5   7
HETATM    7  C5  UNK     1      19.817  -5.991  35.710  1.00  0.00     0.037 A 
HETATM    8  C12 UNK     1      19.113  -6.285  36.876  1.00  0.00     0.030 A 
HETATM    9  C10 UNK     1      19.202  -7.558  37.453  1.00  0.00     0.017 A 
HETATM   10  C1  UNK     1      19.997  -8.554  36.871  1.00  0.00     0.004 A 
HETATM   11  C2  UNK     1      20.690  -8.230  35.703  1.00  0.00     0.092 A 
HETATM   12  C4  UNK     1      20.138  -9.909  37.420  1.00  0.00    -0.043 A 
HETATM   13  O2  UNK     1      21.511  -9.176  35.057  1.00  0.00    -0.275 OA
HETATM   14  C9  UNK     1      20.611  -6.966  35.116  1.00  0.00     0.067 A 
HETATM   15  C20 UNK     1      21.664 -10.461  35.552  1.00  0.00     0.288 A 
HETATM   16  C15 UNK     1      20.926 -10.788  36.784  1.00  0.00     0.090 A 
HETATM   17  O6  UNK     1      22.375 -11.291  34.998  1.00  0.00    -0.260 OA
HETATM   18  C18 UNK     1      19.406 -10.289  38.674  1.00  0.00     0.049 C 
ENDBRANCH   5   7
ENDBRANCH   3   5
ENDBRANCH   1   3
BRANCH   1  19
HETATM   19  N2  UNK     1      19.412  -1.134  34.932  1.00  0.00    -0.266 N 
HETATM   20  C17 UNK     1      18.609  -0.463  34.028  1.00  0.00     0.265 C 
HETATM   21  O5  UNK     1      18.198  -0.928  32.966  1.00  0.00    -0.269 OA
HETATM   22  H18 UNK     1      19.655  -0.760  35.843  1.00  0.00     0.190 HD
BRANCH  20  23
HETATM   23  C3  UNK     1      18.284   0.951  34.485  1.00  0.00     0.218 C 
HETATM   24  C16 UNK     1      17.477   0.937  35.774  1.00  0.00     0.050 C 
BRANCH  23  25
HETATM   25  O1  UNK     1      17.514   1.598  33.485  1.00  0.00    -0.337 OA
BRANCH  25  26
HETATM   26  C6  UNK     1      17.992   2.792  33.008  1.00  0.00     0.072 A 
HETATM   27  C11 UNK     1      18.228   2.939  31.644  1.00  0.00     0.076 A 
HETATM   28  C7  UNK     1      18.708   4.159  31.212  1.00  0.00     0.107 A 
HETATM   29  O3  UNK     1      18.998   4.493  29.926  1.00  0.00    -0.323 OA
HETATM   30  C8  UNK     1      18.945   5.193  32.088  1.00  0.00     0.105 A 
HETATM   31  C19 UNK     1      19.446   5.854  30.089  1.00  0.00     0.352 A 
HETATM   32  O4  UNK     1      19.416   6.305  31.458  1.00  0.00    -0.323 OA
HETATM   33  C14 UNK     1      18.718   5.066  33.443  1.00  0.00     0.042 A 
HETATM   34  C13 UNK     1      18.232   3.841  33.905  1.00  0.00     0.040 A 
ENDBRANCH  25  26
ENDBRANCH  23  25
ENDBRANCH  20  23
ENDBRANCH   1  19
TORSDOF 7
ENDMDL
MODEL 9
REMARK VINA RESULT:      -9.8      4.528      7.293
REMARK  7 active torsions:
REMARK  status: ('A' for Active; 'I' for Inactive)
REMARK    1  A    between atoms: C3_13  and  O1_2 
REMARK    2  A    between atoms: C6_16  and  O1_2 
REMARK    3  A    between atoms: C21_31  and  N1_8 
REMARK    4  A    between atoms: C5_15  and  N1_8 
REMARK       I    between atoms: C17_27  and  N2_9 
REMARK    5  A    between atoms: N2_9  and  N3_10 
REMARK    6  A    between atoms: C21_31  and  N3_10 
REMARK    7  A    between atoms: C17_27  and  C3_13 
ROOT
HETATM    1  N3  UNK     1      19.807   0.926  29.693  1.00  0.00    -0.273 N 
HETATM    2  H19 UNK     1      20.163   0.930  28.743  1.00  0.00     0.189 HD
ENDROOT
BRANCH   1   3
HETATM    3  C21 UNK     1      19.640  -0.260  30.402  1.00  0.00     0.191 C 
HETATM    4  S1  UNK     1      20.546  -1.577  29.899  1.00  0.00    -0.039 SA
BRANCH   3   5
HETATM    5  N1  UNK     1      18.723  -0.171  31.465  1.00  0.00    -0.332 N 
HETATM    6  H17 UNK     1      17.814   0.181  31.173  1.00  0.00     0.168 HD
BRANCH   5   7
HETATM    7  C5  UNK     1      18.750  -0.536  32.812  1.00  0.00     0.037 A 
HETATM    8  C12 UNK     1      18.046   0.213  33.753  1.00  0.00     0.030 A 
HETATM    9  C10 UNK     1      18.070  -0.147  35.105  1.00  0.00     0.017 A 
HETATM   10  C1  UNK     1      18.798  -1.263  35.536  1.00  0.00     0.004 A 
HETATM   11  C2  UNK     1      19.493  -1.996  34.571  1.00  0.00     0.092 A 
HETATM   12  C4  UNK     1      18.869  -1.701  36.936  1.00  0.00    -0.043 A 
HETATM   13  O2  UNK     1      20.250  -3.131  34.923  1.00  0.00    -0.275 OA
HETATM   14  C9  UNK     1      19.480  -1.648  33.219  1.00  0.00     0.067 A 
HETATM   15  C20 UNK     1      20.336  -3.567  36.236  1.00  0.00     0.288 A 
HETATM   16  C15 UNK     1      19.597  -2.786  37.242  1.00  0.00     0.090 A 
HETATM   17  O6  UNK     1      20.991  -4.553  36.553  1.00  0.00    -0.260 OA
HETATM   18  C18 UNK     1      18.133  -0.937  37.997  1.00  0.00     0.049 C 
ENDBRANCH   5   7
ENDBRANCH   3   5
ENDBRANCH   1   3
BRANCH   1  19
HETATM   19  N2  UNK     1      19.503   2.149  30.243  1.00  0.00    -0.266 N 
HETATM   20  C17 UNK     1      18.687   3.018  29.543  1.00  0.00     0.265 C 
HETATM   21  O5  UNK     1      18.194   2.792  28.440  1.00  0.00    -0.269 OA
HETATM   22  H18 UNK     1      19.816   2.323  31.193  1.00  0.00     0.190 HD
BRANCH  20  23
HETATM   23  C3  UNK     1      18.463   4.325  30.289  1.00  0.00     0.218 C 
HETATM   24  C16 UNK     1      19.531   5.348  29.932  1.00  0.00     0.050 C 
BRANCH  23  25
HETATM   25  O1  UNK     1      18.528   4.083  31.684  1.00  0.00    -0.337 OA
BRANCH  25  26
HETATM   26  C6  UNK     1      18.302   5.153  32.512  1.00  0.00     0.072 A 
HETATM   27  C11 UNK     1      17.043   5.746  32.538  1.00  0.00     0.076 A 
HETATM   28  C7  UNK     1      16.866   6.819  33.387  1.00  0.00     0.107 A 
HETATM   29  O3  UNK     1      15.715   7.526  33.550  1.00  0.00    -0.323 OA
HETATM   30  C8  UNK     1      17.886   7.290  34.181  1.00  0.00     0.105 A 
HETATM   31  C19 UNK     1      16.125   8.495  34.536  1.00  0.00     0.352 A 
HETATM   32  O4  UNK     1      17.502   8.352  34.941  1.00  0.00    -0.323 OA
HETATM   33  C14 UNK     1      19.141   6.715  34.169  1.00  0.00     0.042 A 
HETATM   34  C13 UNK     1      19.346   5.627  33.317  1.00  0.00     0.040 A 
ENDBRANCH  25  26
ENDBRANCH  23  25
ENDBRANCH  20  23
ENDBRANCH   1  19
TORSDOF 7
ENDMDL
MODEL 10
REMARK VINA RESULT:      -9.7      3.222      4.099
REMARK  7 active torsions:
REMARK  status: ('A' for Active; 'I' for Inactive)
REMARK    1  A    between atoms: C3_13  and  O1_2 
REMARK    2  A    between atoms: C6_16  and  O1_2 
REMARK    3  A    between atoms: C21_31  and  N1_8 
REMARK    4  A    between atoms: C5_15  and  N1_8 
REMARK       I    between atoms: C17_27  and  N2_9 
REMARK    5  A    between atoms: N2_9  and  N3_10 
REMARK    6  A    between atoms: C21_31  and  N3_10 
REMARK    7  A    between atoms: C17_27  and  C3_13 
ROOT
HETATM    1  N3  UNK     1      18.022  -2.329  35.981  1.00  0.00    -0.273 N 
HETATM    2  H19 UNK     1      17.051  -2.579  35.830  1.00  0.00     0.189 HD
ENDROOT
BRANCH   1   3
HETATM    3  C21 UNK     1      18.959  -3.268  36.401  1.00  0.00     0.191 C 
HETATM    4  S1  UNK     1      20.505  -2.705  36.722  1.00  0.00    -0.039 SA
BRANCH   3   5
HETATM    5  N1  UNK     1      18.455  -4.577  36.507  1.00  0.00    -0.332 N 
HETATM    6  H17 UNK     1      17.442  -4.602  36.606  1.00  0.00     0.168 HD
BRANCH   5   7
HETATM    7  C5  UNK     1      19.018  -5.851  36.419  1.00  0.00     0.037 A 
HETATM    8  C12 UNK     1      19.887  -6.160  35.374  1.00  0.00     0.030 A 
HETATM    9  C10 UNK     1      20.454  -7.436  35.280  1.00  0.00     0.017 A 
HETATM   10  C1  UNK     1      20.159  -8.422  36.230  1.00  0.00     0.004 A 
HETATM   11  C2  UNK     1      19.286  -8.085  37.265  1.00  0.00     0.092 A 
HETATM   12  C4  UNK     1      20.716  -9.781  36.195  1.00  0.00    -0.043 A 
HETATM   13  O2  UNK     1      18.938  -9.021  38.260  1.00  0.00    -0.275 OA
HETATM   14  C9  UNK     1      18.712  -6.817  37.373  1.00  0.00     0.067 A 
HETATM   15  C20 UNK     1      19.448 -10.310  38.252  1.00  0.00     0.288 A 
HETATM   16  C15 UNK     1      20.368 -10.651  37.155  1.00  0.00     0.090 A 
HETATM   17  O6  UNK     1      19.152 -11.131  39.112  1.00  0.00    -0.260 OA
HETATM   18  C18 UNK     1      21.659 -10.176  35.095  1.00  0.00     0.049 C 
ENDBRANCH   5   7
ENDBRANCH   3   5
ENDBRANCH   1   3
BRANCH   1  19
HETATM   19  N2  UNK     1      18.365  -1.019  35.746  1.00  0.00    -0.266 N 
HETATM   20  C17 UNK     1      17.998  -0.430  34.550  1.00  0.00     0.265 C 
HETATM   21  O5  UNK     1      17.373  -0.988  33.649  1.00  0.00    -0.269 OA
HETATM   22  H18 UNK     1      18.795  -0.505  36.509  1.00  0.00     0.190 HD
BRANCH  20  23
HETATM   23  C3  UNK     1      18.466   1.014  34.450  1.00  0.00     0.218 C 
HETATM   24  C16 UNK     1      18.539   1.661  35.825  1.00  0.00     0.050 C 
BRANCH  23  25
HETATM   25  O1  UNK     1      17.545   1.748  33.661  1.00  0.00    -0.337 OA
BRANCH  25  26
HETATM   26  C6  UNK     1      18.005   2.905  33.086  1.00  0.00     0.072 A 
HETATM   27  C11 UNK     1      18.244   2.941  31.714  1.00  0.00     0.076 A 
HETATM   28  C7  UNK     1      18.705   4.127  31.182  1.00  0.00     0.107 A 
HETATM   29  O3  UNK     1      18.995   4.355  29.873  1.00  0.00    -0.323 OA
HETATM   30  C8  UNK     1      18.922   5.237  31.967  1.00  0.00     0.105 A 
HETATM   31  C19 UNK     1      19.419   5.733  29.921  1.00  0.00     0.352 A 
HETATM   32  O4  UNK     1      19.376   6.299  31.247  1.00  0.00    -0.323 OA
HETATM   33  C14 UNK     1      18.690   5.221  33.328  1.00  0.00     0.042 A 
HETATM   34  C13 UNK     1      18.223   4.031  33.891  1.00  0.00     0.040 A 
ENDBRANCH  25  26
ENDBRANCH  23  25
ENDBRANCH  20  23
ENDBRANCH   1  19
TORSDOF 7
ENDMDL
