MODEL 1
REMARK VINA RESULT:      -8.2      0.000      0.000
REMARK  2 active torsions:
REMARK  status: ('A' for Active; 'I' for Inactive)
REMARK    1  A    between atoms: N1_5  and  N2_6 
REMARK       I    between atoms: C5_11  and  N2_6 
REMARK    2  A    between atoms: C5_11  and  C6_12 
ROOT
HETATM    1  O2  UNK     1      19.612   6.542  31.732  1.00  0.00    -0.274 OA
HETATM    2  O4  UNK     1      20.136   5.000  30.130  1.00  0.00    -0.259 OA
HETATM    3  C6  UNK     1      18.419   4.409  31.653  1.00  0.00     0.109 A 
HETATM    4  C7  UNK     1      17.866   6.047  33.350  1.00  0.00    -0.001 A 
HETATM    5  C8  UNK     1      17.674   4.755  32.710  1.00  0.00     0.037 A 
HETATM    6  C9  UNK     1      18.832   6.912  32.845  1.00  0.00     0.089 A 
HETATM    7  C10 UNK     1      19.453   5.313  31.099  1.00  0.00     0.304 A 
HETATM    8  C11 UNK     1      17.113   6.449  34.455  1.00  0.00     0.014 A 
HETATM    9  C12 UNK     1      19.065   8.163  33.413  1.00  0.00     0.038 A 
HETATM   10  C13 UNK     1      17.334   7.702  35.034  1.00  0.00     0.001 A 
HETATM   11  C14 UNK     1      18.308   8.557  34.513  1.00  0.00     0.003 A 
ENDROOT
BRANCH   3  12
HETATM   12  C5  UNK     1      18.152   3.086  31.076  1.00  0.00     0.272 C 
HETATM   13  O3  UNK     1      17.001   2.718  30.848  1.00  0.00    -0.266 OA
HETATM   14  N2  UNK     1      19.306   2.365  30.842  1.00  0.00    -0.285 N 
HETATM   15  H9  UNK     1      20.232   2.711  31.073  1.00  0.00     0.184 HD
BRANCH  14  16
HETATM   16  N1  UNK     1      19.209   1.098  30.300  1.00  0.00    -0.225 NA
HETATM   17  C1  UNK     1      20.359   0.281  30.705  1.00  0.00     0.140 C 
HETATM   18  C3  UNK     1      20.255  -1.104  30.074  1.00  0.00     0.183 C 
HETATM   19  O1  UNK     1      20.189  -1.000  28.650  1.00  0.00    -0.389 OA
HETATM   20  C4  UNK     1      19.053  -0.232  28.250  1.00  0.00     0.183 C 
HETATM   21  C2  UNK     1      19.129   1.175  28.837  1.00  0.00     0.140 C 
ENDBRANCH  14  16
ENDBRANCH   3  12
TORSDOF 2
ENDMDL
MODEL 2
REMARK VINA RESULT:      -8.2     13.953     16.476
REMARK  2 active torsions:
REMARK  status: ('A' for Active; 'I' for Inactive)
REMARK    1  A    between atoms: N1_5  and  N2_6 
REMARK       I    between atoms: C5_11  and  N2_6 
REMARK    2  A    between atoms: C5_11  and  C6_12 
ROOT
HETATM    1  O2  UNK     1      19.349   1.268  15.511  1.00  0.00    -0.274 OA
HETATM    2  O4  UNK     1      19.377  -0.324  13.873  1.00  0.00    -0.259 OA
HETATM    3  C6  UNK     1      19.017  -1.085  16.089  1.00  0.00     0.109 A 
HETATM    4  C7  UNK     1      18.988   0.606  17.823  1.00  0.00    -0.001 A 
HETATM    5  C8  UNK     1      18.889  -0.777  17.385  1.00  0.00     0.037 A 
HETATM    6  C9  UNK     1      19.215   1.598  16.874  1.00  0.00     0.089 A 
HETATM    7  C10 UNK     1      19.260  -0.047  15.062  1.00  0.00     0.304 A 
HETATM    8  C11 UNK     1      18.861   0.973  19.165  1.00  0.00     0.014 A 
HETATM    9  C12 UNK     1      19.320   2.942  17.229  1.00  0.00     0.038 A 
HETATM   10  C13 UNK     1      18.963   2.317  19.535  1.00  0.00     0.001 A 
HETATM   11  C14 UNK     1      19.192   3.299  18.568  1.00  0.00     0.003 A 
ENDROOT
BRANCH   3  12
HETATM   12  C5  UNK     1      18.902  -2.508  15.745  1.00  0.00     0.272 C 
HETATM   13  O3  UNK     1      17.820  -3.088  15.815  1.00  0.00    -0.266 OA
HETATM   14  N2  UNK     1      20.106  -3.060  15.356  1.00  0.00    -0.285 N 
HETATM   15  H9  UNK     1      20.976  -2.536  15.339  1.00  0.00     0.184 HD
BRANCH  14  16
HETATM   16  N1  UNK     1      20.151  -4.395  15.002  1.00  0.00    -0.225 NA
HETATM   17  C1  UNK     1      21.291  -5.055  15.648  1.00  0.00     0.140 C 
HETATM   18  C3  UNK     1      21.347  -6.520  15.224  1.00  0.00     0.183 C 
HETATM   19  O1  UNK     1      21.445  -6.623  13.802  1.00  0.00    -0.389 OA
HETATM   20  C4  UNK     1      20.321  -6.010  13.170  1.00  0.00     0.183 C 
HETATM   21  C2  UNK     1      20.242  -4.532  13.544  1.00  0.00     0.140 C 
ENDBRANCH  14  16
ENDBRANCH   3  12
TORSDOF 2
ENDMDL
MODEL 3
REMARK VINA RESULT:      -8.1      7.696      9.087
REMARK  2 active torsions:
REMARK  status: ('A' for Active; 'I' for Inactive)
REMARK    1  A    between atoms: N1_5  and  N2_6 
REMARK       I    between atoms: C5_11  and  N2_6 
REMARK    2  A    between atoms: C5_11  and  C6_12 
ROOT
HETATM    1  O2  UNK     1      19.454  -0.992  34.682  1.00  0.00    -0.274 OA
HETATM    2  O4  UNK     1      20.578  -2.929  34.228  1.00  0.00    -0.259 OA
HETATM    3  C6  UNK     1      19.619  -2.738  36.387  1.00  0.00     0.109 A 
HETATM    4  C7  UNK     1      18.428  -0.683  36.865  1.00  0.00    -0.001 A 
HETATM    5  C8  UNK     1      18.913  -1.999  37.251  1.00  0.00     0.037 A 
HETATM    6  C9  UNK     1      18.710  -0.210  35.587  1.00  0.00     0.089 A 
HETATM    7  C10 UNK     1      19.932  -2.254  35.023  1.00  0.00     0.304 A 
HETATM    8  C11 UNK     1      17.688   0.122  37.733  1.00  0.00     0.014 A 
HETATM    9  C12 UNK     1      18.275   1.042  35.156  1.00  0.00     0.038 A 
HETATM   10  C13 UNK     1      17.244   1.380  37.314  1.00  0.00     0.001 A 
HETATM   11  C14 UNK     1      17.536   1.838  36.027  1.00  0.00     0.003 A 
ENDROOT
BRANCH   3  12
HETATM   12  C5  UNK     1      20.065  -4.051  36.869  1.00  0.00     0.272 C 
HETATM   13  O3  UNK     1      20.942  -4.143  37.726  1.00  0.00    -0.266 OA
HETATM   14  N2  UNK     1      19.399  -5.095  36.260  1.00  0.00    -0.285 N 
HETATM   15  H9  UNK     1      18.697  -4.959  35.539  1.00  0.00     0.184 HD
BRANCH  14  16
HETATM   16  N1  UNK     1      19.715  -6.393  36.615  1.00  0.00    -0.225 NA
HETATM   17  C1  UNK     1      19.981  -7.198  35.417  1.00  0.00     0.140 C 
HETATM   18  C3  UNK     1      20.298  -8.634  35.822  1.00  0.00     0.183 C 
HETATM   19  O1  UNK     1      19.216  -9.191  36.572  1.00  0.00    -0.389 OA
HETATM   20  C4  UNK     1      18.973  -8.429  37.755  1.00  0.00     0.183 C 
HETATM   21  C2  UNK     1      18.624  -6.987  37.396  1.00  0.00     0.140 C 
ENDBRANCH  14  16
ENDBRANCH   3  12
TORSDOF 2
ENDMDL
MODEL 4
REMARK VINA RESULT:      -8.1      1.950      7.273
REMARK  2 active torsions:
REMARK  status: ('A' for Active; 'I' for Inactive)
REMARK    1  A    between atoms: N1_5  and  N2_6 
REMARK       I    between atoms: C5_11  and  N2_6 
REMARK    2  A    between atoms: C5_11  and  C6_12 
ROOT
HETATM    1  O2  UNK     1      19.245   1.401  28.983  1.00  0.00    -0.274 OA
HETATM    2  O4  UNK     1      18.411   3.515  29.219  1.00  0.00    -0.259 OA
HETATM    3  C6  UNK     1      18.725   2.268  31.210  1.00  0.00     0.109 A 
HETATM    4  C7  UNK     1      19.611   0.027  30.955  1.00  0.00    -0.001 A 
HETATM    5  C8  UNK     1      19.120   1.122  31.778  1.00  0.00     0.037 A 
HETATM    6  C9  UNK     1      19.662   0.193  29.575  1.00  0.00     0.089 A 
HETATM    7  C10 UNK     1      18.771   2.466  29.743  1.00  0.00     0.304 A 
HETATM    8  C11 UNK     1      20.032  -1.185  31.505  1.00  0.00     0.014 A 
HETATM    9  C12 UNK     1      20.122  -0.817  28.732  1.00  0.00     0.038 A 
HETATM   10  C13 UNK     1      20.496  -2.207  30.672  1.00  0.00     0.001 A 
HETATM   11  C14 UNK     1      20.541  -2.023  29.288  1.00  0.00     0.003 A 
ENDROOT
BRANCH   3  12
HETATM   12  C5  UNK     1      18.246   3.314  32.122  1.00  0.00     0.272 C 
HETATM   13  O3  UNK     1      17.600   3.025  33.128  1.00  0.00    -0.266 OA
HETATM   14  N2  UNK     1      18.603   4.582  31.712  1.00  0.00    -0.285 N 
HETATM   15  H9  UNK     1      19.119   4.763  30.856  1.00  0.00     0.184 HD
BRANCH  14  16
HETATM   16  N1  UNK     1      18.219   5.669  32.475  1.00  0.00    -0.225 NA
HETATM   17  C1  UNK     1      17.738   6.753  31.611  1.00  0.00     0.140 C 
HETATM   18  C3  UNK     1      17.347   7.956  32.464  1.00  0.00     0.183 C 
HETATM   19  O1  UNK     1      18.459   8.394  33.247  1.00  0.00    -0.389 OA
HETATM   20  C4  UNK     1      18.912   7.352  34.113  1.00  0.00     0.183 C 
HETATM   21  C2  UNK     1      19.340   6.134  33.299  1.00  0.00     0.140 C 
ENDBRANCH  14  16
ENDBRANCH   3  12
TORSDOF 2
ENDMDL
MODEL 5
REMARK VINA RESULT:      -8.0      2.122      7.346
REMARK  2 active torsions:
REMARK  status: ('A' for Active; 'I' for Inactive)
REMARK    1  A    between atoms: N1_5  and  N2_6 
REMARK       I    between atoms: C5_11  and  N2_6 
REMARK    2  A    between atoms: C5_11  and  C6_12 
ROOT
HETATM    1  O2  UNK     1      18.717   0.587  32.517  1.00  0.00    -0.274 OA
HETATM    2  O4  UNK     1      17.898   2.537  33.381  1.00  0.00    -0.259 OA
HETATM    3  C6  UNK     1      18.794   2.638  31.189  1.00  0.00     0.109 A 
HETATM    4  C7  UNK     1      19.661   0.568  30.277  1.00  0.00    -0.001 A 
HETATM    5  C8  UNK     1      19.372   1.990  30.171  1.00  0.00     0.037 A 
HETATM    6  C9  UNK     1      19.326  -0.102  31.449  1.00  0.00     0.089 A 
HETATM    7  C10 UNK     1      18.429   1.947  32.447  1.00  0.00     0.304 A 
HETATM    8  C11 UNK     1      20.263  -0.147  29.240  1.00  0.00     0.014 A 
HETATM    9  C12 UNK     1      19.576  -1.462  31.613  1.00  0.00     0.038 A 
HETATM   10  C13 UNK     1      20.520  -1.513  29.390  1.00  0.00     0.001 A 
HETATM   11  C14 UNK     1      20.176  -2.169  30.575  1.00  0.00     0.003 A 
ENDROOT
BRANCH   3  12
HETATM   12  C5  UNK     1      18.542   4.071  30.989  1.00  0.00     0.272 C 
HETATM   13  O3  UNK     1      18.699   4.589  29.884  1.00  0.00    -0.266 OA
HETATM   14  N2  UNK     1      18.132   4.706  32.143  1.00  0.00    -0.285 N 
HETATM   15  H9  UNK     1      18.043   4.230  33.036  1.00  0.00     0.184 HD
BRANCH  14  16
HETATM   16  N1  UNK     1      17.858   6.060  32.105  1.00  0.00    -0.225 NA
HETATM   17  C1  UNK     1      18.576   6.755  33.179  1.00  0.00     0.140 C 
HETATM   18  C3  UNK     1      18.241   8.243  33.145  1.00  0.00     0.183 C 
HETATM   19  O1  UNK     1      16.831   8.439  33.274  1.00  0.00    -0.389 OA
HETATM   20  C4  UNK     1      16.129   7.791  32.212  1.00  0.00     0.183 C 
HETATM   21  C2  UNK     1      16.414   6.291  32.225  1.00  0.00     0.140 C 
ENDBRANCH  14  16
ENDBRANCH   3  12
TORSDOF 2
ENDMDL
MODEL 6
REMARK VINA RESULT:      -8.0      8.237      9.679
REMARK  2 active torsions:
REMARK  status: ('A' for Active; 'I' for Inactive)
REMARK    1  A    between atoms: N1_5  and  N2_6 
REMARK       I    between atoms: C5_11  and  N2_6 
REMARK    2  A    between atoms: C5_11  and  C6_12 
ROOT
HETATM    1  O2  UNK     1      19.767  -1.007  34.851  1.00  0.00    -0.274 OA
HETATM    2  O4  UNK     1      20.787  -2.868  34.004  1.00  0.00    -0.259 OA
HETATM    3  C6  UNK     1      19.606  -3.137  36.041  1.00  0.00     0.109 A 
HETATM    4  C7  UNK     1      18.526  -1.161  36.936  1.00  0.00    -0.001 A 
HETATM    5  C8  UNK     1      18.864  -2.575  37.002  1.00  0.00     0.037 A 
HETATM    6  C9  UNK     1      18.986  -0.409  35.859  1.00  0.00     0.089 A 
HETATM    7  C10 UNK     1      20.107  -2.356  34.887  1.00  0.00     0.304 A 
HETATM    8  C11 UNK     1      17.755  -0.534  37.916  1.00  0.00     0.014 A 
HETATM    9  C12 UNK     1      18.698   0.948  35.737  1.00  0.00     0.038 A 
HETATM   10  C13 UNK     1      17.457   0.828  37.806  1.00  0.00     0.001 A 
HETATM   11  C14 UNK     1      17.928   1.567  36.718  1.00  0.00     0.003 A 
ENDROOT
BRANCH   3  12
HETATM   12  C5  UNK     1      19.894  -4.568  36.196  1.00  0.00     0.272 C 
HETATM   13  O3  UNK     1      20.213  -5.256  35.227  1.00  0.00    -0.266 OA
HETATM   14  N2  UNK     1      19.764  -4.999  37.501  1.00  0.00    -0.285 N 
HETATM   15  H9  UNK     1      19.474  -4.389  38.259  1.00  0.00     0.184 HD
BRANCH  14  16
HETATM   16  N1  UNK     1      20.005  -6.327  37.798  1.00  0.00    -0.225 NA
HETATM   17  C1  UNK     1      18.747  -7.083  37.807  1.00  0.00     0.140 C 
HETATM   18  C3  UNK     1      19.024  -8.540  38.168  1.00  0.00     0.183 C 
HETATM   19  O1  UNK     1      19.671  -8.624  39.439  1.00  0.00    -0.389 OA
HETATM   20  C4  UNK     1      20.911  -7.916  39.426  1.00  0.00     0.183 C 
HETATM   21  C2  UNK     1      20.679  -6.444  39.096  1.00  0.00     0.140 C 
ENDBRANCH  14  16
ENDBRANCH   3  12
TORSDOF 2
ENDMDL
MODEL 7
REMARK VINA RESULT:      -7.9     13.368     18.218
REMARK  2 active torsions:
REMARK  status: ('A' for Active; 'I' for Inactive)
REMARK    1  A    between atoms: N1_5  and  N2_6 
REMARK       I    between atoms: C5_11  and  N2_6 
REMARK    2  A    between atoms: C5_11  and  C6_12 
ROOT
HETATM    1  O2  UNK     1      19.796  -2.615  13.165  1.00  0.00    -0.274 OA
HETATM    2  O4  UNK     1      19.460  -0.518  14.008  1.00  0.00    -0.259 OA
HETATM    3  C6  UNK     1      18.783  -2.334  15.373  1.00  0.00     0.109 A 
HETATM    4  C7  UNK     1      19.141  -4.556  14.475  1.00  0.00    -0.001 A 
HETATM    5  C8  UNK     1      18.680  -3.660  15.524  1.00  0.00     0.037 A 
HETATM    6  C9  UNK     1      19.690  -4.011  13.318  1.00  0.00     0.089 A 
HETATM    7  C10 UNK     1      19.363  -1.732  14.150  1.00  0.00     0.304 A 
HETATM    8  C11 UNK     1      19.052  -5.944  14.591  1.00  0.00     0.014 A 
HETATM    9  C12 UNK     1      20.150  -4.815  12.277  1.00  0.00     0.038 A 
HETATM   10  C13 UNK     1      19.511  -6.763  13.554  1.00  0.00     0.001 A 
HETATM   11  C14 UNK     1      20.059  -6.198  12.400  1.00  0.00     0.003 A 
ENDROOT
BRANCH   3  12
HETATM   12  C5  UNK     1      18.290  -1.513  16.486  1.00  0.00     0.272 C 
HETATM   13  O3  UNK     1      17.200  -1.744  17.005  1.00  0.00    -0.266 OA
HETATM   14  N2  UNK     1      19.172  -0.511  16.839  1.00  0.00    -0.285 N 
HETATM   15  H9  UNK     1      20.052  -0.352  16.358  1.00  0.00     0.184 HD
BRANCH  14  16
HETATM   16  N1  UNK     1      18.840   0.343  17.874  1.00  0.00    -0.225 NA
HETATM   17  C1  UNK     1      19.172   1.727  17.518  1.00  0.00     0.140 C 
HETATM   18  C3  UNK     1      18.829   2.655  18.680  1.00  0.00     0.183 C 
HETATM   19  O1  UNK     1      19.532   2.257  19.859  1.00  0.00    -0.389 OA
HETATM   20  C4  UNK     1      19.189   0.920  20.227  1.00  0.00     0.183 C 
HETATM   21  C2  UNK     1      19.541  -0.049  19.102  1.00  0.00     0.140 C 
ENDBRANCH  14  16
ENDBRANCH   3  12
TORSDOF 2
ENDMDL
MODEL 8
REMARK VINA RESULT:      -7.9      4.202      5.221
REMARK  2 active torsions:
REMARK  status: ('A' for Active; 'I' for Inactive)
REMARK    1  A    between atoms: N1_5  and  N2_6 
REMARK       I    between atoms: C5_11  and  N2_6 
REMARK    2  A    between atoms: C5_11  and  C6_12 
ROOT
HETATM    1  O2  UNK     1      19.017   2.525  30.739  1.00  0.00    -0.274 OA
HETATM    2  O4  UNK     1      18.808   0.319  31.295  1.00  0.00    -0.259 OA
HETATM    3  C6  UNK     1      18.124   1.896  32.927  1.00  0.00     0.109 A 
HETATM    4  C7  UNK     1      18.347   4.235  32.333  1.00  0.00    -0.001 A 
HETATM    5  C8  UNK     1      17.973   3.182  33.265  1.00  0.00     0.037 A 
HETATM    6  C9  UNK     1      18.861   3.881  31.089  1.00  0.00     0.089 A 
HETATM    7  C10 UNK     1      18.669   1.496  31.610  1.00  0.00     0.304 A 
HETATM    8  C11 UNK     1      18.208   5.588  32.644  1.00  0.00     0.014 A 
HETATM    9  C12 UNK     1      19.238   4.840  30.152  1.00  0.00     0.038 A 
HETATM   10  C13 UNK     1      18.581   6.562  31.713  1.00  0.00     0.001 A 
HETATM   11  C14 UNK     1      19.095   6.188  30.469  1.00  0.00     0.003 A 
ENDROOT
BRANCH   3  12
HETATM   12  C5  UNK     1      17.719   0.908  33.934  1.00  0.00     0.272 C 
HETATM   13  O3  UNK     1      16.535   0.760  34.231  1.00  0.00    -0.266 OA
HETATM   14  N2  UNK     1      18.790   0.216  34.461  1.00  0.00    -0.285 N 
HETATM   15  H9  UNK     1      19.753   0.398  34.194  1.00  0.00     0.184 HD
BRANCH  14  16
HETATM   16  N1  UNK     1      18.560  -0.749  35.423  1.00  0.00    -0.225 NA
HETATM   17  C1  UNK     1      18.345  -0.123  36.732  1.00  0.00     0.140 C 
HETATM   18  C3  UNK     1      18.123  -1.200  37.790  1.00  0.00     0.183 C 
HETATM   19  O1  UNK     1      19.240  -2.090  37.836  1.00  0.00    -0.389 OA
HETATM   20  C4  UNK     1      19.435  -2.727  36.572  1.00  0.00     0.183 C 
HETATM   21  C2  UNK     1      19.689  -1.685  35.486  1.00  0.00     0.140 C 
ENDBRANCH  14  16
ENDBRANCH   3  12
TORSDOF 2
ENDMDL
MODEL 9
REMARK VINA RESULT:      -7.8      8.980     12.618
REMARK  2 active torsions:
REMARK  status: ('A' for Active; 'I' for Inactive)
REMARK    1  A    between atoms: N1_5  and  N2_6 
REMARK       I    between atoms: C5_11  and  N2_6 
REMARK    2  A    between atoms: C5_11  and  C6_12 
ROOT
HETATM    1  O2  UNK     1      19.989  -7.807  35.715  1.00  0.00    -0.274 OA
HETATM    2  O4  UNK     1      20.184  -5.853  34.548  1.00  0.00    -0.259 OA
HETATM    3  C6  UNK     1      20.118  -5.678  36.910  1.00  0.00     0.109 A 
HETATM    4  C7  UNK     1      19.911  -7.752  38.145  1.00  0.00    -0.001 A 
HETATM    5  C8  UNK     1      20.029  -6.303  38.090  1.00  0.00     0.037 A 
HETATM    6  C9  UNK     1      19.895  -8.472  36.954  1.00  0.00     0.089 A 
HETATM    7  C10 UNK     1      20.101  -6.422  35.631  1.00  0.00     0.304 A 
HETATM    8  C11 UNK     1      19.816  -8.446  39.353  1.00  0.00     0.014 A 
HETATM    9  C12 UNK     1      19.784  -9.860  36.938  1.00  0.00     0.038 A 
HETATM   10  C13 UNK     1      19.705  -9.839  39.352  1.00  0.00     0.001 A 
HETATM   11  C14 UNK     1      19.690 -10.545  38.147  1.00  0.00     0.003 A 
ENDROOT
BRANCH   3  12
HETATM   12  C5  UNK     1      20.233  -4.215  36.958  1.00  0.00     0.272 C 
HETATM   13  O3  UNK     1      21.318  -3.674  37.163  1.00  0.00    -0.266 OA
HETATM   14  N2  UNK     1      19.026  -3.579  36.751  1.00  0.00    -0.285 N 
HETATM   15  H9  UNK     1      18.153  -4.080  36.609  1.00  0.00     0.184 HD
BRANCH  14  16
HETATM   16  N1  UNK     1      18.980  -2.198  36.768  1.00  0.00    -0.225 NA
HETATM   17  C1  UNK     1      17.825  -1.736  37.546  1.00  0.00     0.140 C 
HETATM   18  C3  UNK     1      17.770  -0.211  37.530  1.00  0.00     0.183 C 
HETATM   19  O1  UNK     1      17.697   0.271  36.187  1.00  0.00    -0.389 OA
HETATM   20  C4  UNK     1      18.836  -0.150  35.434  1.00  0.00     0.183 C 
HETATM   21  C2  UNK     1      18.915  -1.674  35.399  1.00  0.00     0.140 C 
ENDBRANCH  14  16
ENDBRANCH   3  12
TORSDOF 2
ENDMDL
MODEL 10
REMARK VINA RESULT:      -7.6      8.965     12.210
REMARK  2 active torsions:
REMARK  status: ('A' for Active; 'I' for Inactive)
REMARK    1  A    between atoms: N1_5  and  N2_6 
REMARK       I    between atoms: C5_11  and  N2_6 
REMARK    2  A    between atoms: C5_11  and  C6_12 
ROOT
HETATM    1  O2  UNK     1      19.057  -7.189  37.710  1.00  0.00    -0.274 OA
HETATM    2  O4  UNK     1      17.734  -5.789  36.481  1.00  0.00    -0.259 OA
HETATM    3  C6  UNK     1      19.825  -4.927  37.191  1.00  0.00     0.109 A 
HETATM    4  C7  UNK     1      21.225  -6.415  38.493  1.00  0.00    -0.001 A 
HETATM    5  C8  UNK     1      20.970  -5.134  37.851  1.00  0.00     0.037 A 
HETATM    6  C9  UNK     1      20.261  -7.415  38.406  1.00  0.00     0.089 A 
HETATM    7  C10 UNK     1      18.785  -5.975  37.087  1.00  0.00     0.304 A 
HETATM    8  C11 UNK     1      22.405  -6.675  39.192  1.00  0.00     0.014 A 
HETATM    9  C12 UNK     1      20.443  -8.662  38.998  1.00  0.00     0.038 A 
HETATM   10  C13 UNK     1      22.602  -7.923  39.791  1.00  0.00     0.001 A 
HETATM   11  C14 UNK     1      21.623  -8.914  39.693  1.00  0.00     0.003 A 
ENDROOT
BRANCH   3  12
HETATM   12  C5  UNK     1      19.660  -3.603  36.578  1.00  0.00     0.272 C 
HETATM   13  O3  UNK     1      20.378  -3.247  35.645  1.00  0.00    -0.266 OA
HETATM   14  N2  UNK     1      18.649  -2.868  37.162  1.00  0.00    -0.285 N 
HETATM   15  H9  UNK     1      18.102  -3.205  37.949  1.00  0.00     0.184 HD
BRANCH  14  16
HETATM   16  N1  UNK     1      18.378  -1.599  36.687  1.00  0.00    -0.225 NA
HETATM   17  C1  UNK     1      18.072  -0.693  37.800  1.00  0.00     0.140 C 
HETATM   18  C3  UNK     1      17.745   0.696  37.259  1.00  0.00     0.183 C 
HETATM   19  O1  UNK     1      16.646   0.630  36.348  1.00  0.00    -0.389 OA
HETATM   20  C4  UNK     1      16.951  -0.226  35.247  1.00  0.00     0.183 C 
HETATM   21  C2  UNK     1      17.258  -1.638  35.740  1.00  0.00     0.140 C 
ENDBRANCH  14  16
ENDBRANCH   3  12
TORSDOF 2
ENDMDL
