MODEL 1
REMARK VINA RESULT:      -8.9      0.000      0.000
REMARK  6 active torsions:
REMARK  status: ('A' for Active; 'I' for Inactive)
REMARK    1  A    between atoms: C4_9  and  O1_1 
REMARK    2  A    between atoms: C6_11  and  O2_2 
REMARK       I    between atoms: C16_21  and  N1_5 
REMARK    3  A    between atoms: C5_10  and  N1_5 
REMARK    4  A    between atoms: C1_6  and  C8_13 
REMARK    5  A    between atoms: C11_16  and  C2_7 
REMARK    6  A    between atoms: C11_16  and  C15_20 
ROOT
HETATM    1  O3  UNK     1      18.237   2.712  28.465  1.00  0.00    -0.288 OA
HETATM    2  C11 UNK     1      18.648   2.419  29.598  1.00  0.00     0.182 C 
ENDROOT
BRANCH   2   3
HETATM    3  C2  UNK     1      19.160   1.090  29.886  1.00  0.00     0.014 A 
HETATM    4  C10 UNK     1      19.055   0.566  31.175  1.00  0.00     0.018 A 
HETATM    5  C14 UNK     1      19.546  -0.710  31.452  1.00  0.00     0.030 A 
HETATM    6  C5  UNK     1      20.143  -1.463  30.440  1.00  0.00     0.034 A 
HETATM    7  C13 UNK     1      20.248  -0.939  29.151  1.00  0.00     0.030 A 
HETATM    8  C9  UNK     1      19.756   0.337  28.874  1.00  0.00     0.018 A 
BRANCH   6   9
HETATM    9  N1  UNK     1      20.634  -2.738  30.717  1.00  0.00    -0.328 N 
HETATM   10  C16 UNK     1      21.226  -3.199  31.900  1.00  0.00     0.218 C 
HETATM   11  O4  UNK     1      21.424  -2.564  32.931  1.00  0.00    -0.274 OA
HETATM   12  C19 UNK     1      21.626  -4.649  31.798  1.00  0.00     0.117 C 
HETATM   13  H10 UNK     1      20.548  -3.412  29.958  1.00  0.00     0.169 HD
ENDBRANCH   6   9
ENDBRANCH   2   3
BRANCH   2  14
HETATM   14  C15 UNK     1      18.655   3.447  30.695  1.00  0.00     0.056 C 
HETATM   15  C8  UNK     1      18.935   4.730  30.427  1.00  0.00     0.015 C 
BRANCH  15  16
HETATM   16  C1  UNK     1      18.980   5.804  31.435  1.00  0.00    -0.033 A 
HETATM   17  C3  UNK     1      17.929   6.716  31.529  1.00  0.00     0.051 A 
HETATM   18  C4  UNK     1      17.971   7.733  32.483  1.00  0.00     0.102 A 
HETATM   19  C6  UNK     1      19.064   7.837  33.343  1.00  0.00     0.101 A 
HETATM   20  C12 UNK     1      20.115   6.925  33.250  1.00  0.00     0.040 A 
HETATM   21  C7  UNK     1      20.073   5.908  32.296  1.00  0.00     0.014 A 
BRANCH  18  22
HETATM   22  O1  UNK     1      16.939   8.619  32.564  1.00  0.00    -0.353 OA
HETATM   23  C17 UNK     1      15.767   8.320  31.808  1.00  0.00     0.210 C 
ENDBRANCH  18  22
BRANCH  19  24
HETATM   24  O2  UNK     1      19.117   8.825  34.279  1.00  0.00    -0.353 OA
HETATM   25  C18 UNK     1      20.372   9.478  34.463  1.00  0.00     0.210 C 
ENDBRANCH  19  24
ENDBRANCH  15  16
ENDBRANCH   2  14
TORSDOF 6
ENDMDL
MODEL 2
REMARK VINA RESULT:      -8.3      4.464     10.170
REMARK  6 active torsions:
REMARK  status: ('A' for Active; 'I' for Inactive)
REMARK    1  A    between atoms: C4_9  and  O1_1 
REMARK    2  A    between atoms: C6_11  and  O2_2 
REMARK       I    between atoms: C16_21  and  N1_5 
REMARK    3  A    between atoms: C5_10  and  N1_5 
REMARK    4  A    between atoms: C1_6  and  C8_13 
REMARK    5  A    between atoms: C11_16  and  C2_7 
REMARK    6  A    between atoms: C11_16  and  C15_20 
ROOT
HETATM    1  O3  UNK     1      20.513   8.794  34.200  1.00  0.00    -0.288 OA
HETATM    2  C11 UNK     1      19.391   8.302  34.008  1.00  0.00     0.182 C 
ENDROOT
BRANCH   2   3
HETATM    3  C2  UNK     1      18.186   9.088  34.216  1.00  0.00     0.014 A 
HETATM    4  C10 UNK     1      17.003   8.460  34.608  1.00  0.00     0.018 A 
HETATM    5  C14 UNK     1      15.846   9.214  34.808  1.00  0.00     0.030 A 
HETATM    6  C5  UNK     1      15.873  10.596  34.617  1.00  0.00     0.034 A 
HETATM    7  C13 UNK     1      17.055  11.224  34.226  1.00  0.00     0.030 A 
HETATM    8  C9  UNK     1      18.212  10.470  34.026  1.00  0.00     0.018 A 
BRANCH   6   9
HETATM    9  N1  UNK     1      14.716  11.349  34.818  1.00  0.00    -0.328 N 
HETATM   10  C16 UNK     1      14.002  11.538  36.009  1.00  0.00     0.218 C 
HETATM   11  O4  UNK     1      14.263  11.076  37.116  1.00  0.00    -0.274 OA
HETATM   12  C19 UNK     1      12.801  12.425  35.807  1.00  0.00     0.117 C 
HETATM   13  H10 UNK     1      14.352  11.815  33.990  1.00  0.00     0.169 HD
ENDBRANCH   6   9
ENDBRANCH   2   3
BRANCH   2  14
HETATM   14  C15 UNK     1      19.252   6.886  33.521  1.00  0.00     0.056 C 
HETATM   15  C8  UNK     1      18.911   6.632  32.250  1.00  0.00     0.015 C 
BRANCH  15  16
HETATM   16  C1  UNK     1      18.738   5.282  31.687  1.00  0.00    -0.033 A 
HETATM   17  C3  UNK     1      18.271   4.244  32.493  1.00  0.00     0.051 A 
HETATM   18  C4  UNK     1      18.107   2.965  31.961  1.00  0.00     0.102 A 
HETATM   19  C6  UNK     1      18.410   2.724  30.621  1.00  0.00     0.101 A 
HETATM   20  C12 UNK     1      18.877   3.761  29.813  1.00  0.00     0.040 A 
HETATM   21  C7  UNK     1      19.041   5.040  30.346  1.00  0.00     0.014 A 
BRANCH  18  22
HETATM   22  O1  UNK     1      17.651   1.960  32.759  1.00  0.00    -0.353 OA
HETATM   23  C17 UNK     1      18.138   1.924  34.099  1.00  0.00     0.210 C 
ENDBRANCH  18  22
BRANCH  19  24
HETATM   24  O2  UNK     1      18.255   1.480  30.088  1.00  0.00    -0.353 OA
HETATM   25  C18 UNK     1      18.114   1.394  28.672  1.00  0.00     0.210 C 
ENDBRANCH  19  24
ENDBRANCH  15  16
ENDBRANCH   2  14
TORSDOF 6
ENDMDL
MODEL 3
REMARK VINA RESULT:      -8.3      5.545     12.270
REMARK  6 active torsions:
REMARK  status: ('A' for Active; 'I' for Inactive)
REMARK    1  A    between atoms: C4_9  and  O1_1 
REMARK    2  A    between atoms: C6_11  and  O2_2 
REMARK       I    between atoms: C16_21  and  N1_5 
REMARK    3  A    between atoms: C5_10  and  N1_5 
REMARK    4  A    between atoms: C1_6  and  C8_13 
REMARK    5  A    between atoms: C11_16  and  C2_7 
REMARK    6  A    between atoms: C11_16  and  C15_20 
ROOT
HETATM    1  O3  UNK     1      19.289  -2.142  37.746  1.00  0.00    -0.288 OA
HETATM    2  C11 UNK     1      19.664  -2.709  36.709  1.00  0.00     0.182 C 
ENDROOT
BRANCH   2   3
HETATM    3  C2  UNK     1      19.441  -2.106  35.406  1.00  0.00     0.014 A 
HETATM    4  C10 UNK     1      20.169  -2.546  34.299  1.00  0.00     0.018 A 
HETATM    5  C14 UNK     1      19.955  -1.966  33.048  1.00  0.00     0.030 A 
HETATM    6  C5  UNK     1      19.012  -0.948  32.903  1.00  0.00     0.034 A 
HETATM    7  C13 UNK     1      18.285  -0.508  34.009  1.00  0.00     0.030 A 
HETATM    8  C9  UNK     1      18.499  -1.087  35.261  1.00  0.00     0.018 A 
BRANCH   6   9
HETATM    9  N1  UNK     1      18.798  -0.369  31.653  1.00  0.00    -0.328 N 
HETATM   10  C16 UNK     1      19.751   0.148  30.764  1.00  0.00     0.218 C 
HETATM   11  O4  UNK     1      20.968   0.187  30.916  1.00  0.00    -0.274 OA
HETATM   12  C19 UNK     1      19.111   0.687  29.510  1.00  0.00     0.117 C 
HETATM   13  H10 UNK     1      17.826  -0.320  31.357  1.00  0.00     0.169 HD
ENDBRANCH   6   9
ENDBRANCH   2   3
BRANCH   2  14
HETATM   14  C15 UNK     1      20.390  -4.024  36.779  1.00  0.00     0.056 C 
HETATM   15  C8  UNK     1      19.781  -5.161  36.412  1.00  0.00     0.015 C 
BRANCH  15  16
HETATM   16  C1  UNK     1      20.404  -6.494  36.458  1.00  0.00    -0.033 A 
HETATM   17  C3  UNK     1      20.881  -7.000  37.667  1.00  0.00     0.051 A 
HETATM   18  C4  UNK     1      21.472  -8.263  37.711  1.00  0.00     0.102 A 
HETATM   19  C6  UNK     1      21.586  -9.020  36.545  1.00  0.00     0.101 A 
HETATM   20  C12 UNK     1      21.109  -8.516  35.336  1.00  0.00     0.040 A 
HETATM   21  C7  UNK     1      20.518  -7.253  35.292  1.00  0.00     0.014 A 
BRANCH  18  22
HETATM   22  O1  UNK     1      21.935  -8.746  38.898  1.00  0.00    -0.353 OA
HETATM   23  C17 UNK     1      22.417  -7.791  39.842  1.00  0.00     0.210 C 
ENDBRANCH  18  22
BRANCH  19  24
HETATM   24  O2  UNK     1      22.161 -10.255  36.575  1.00  0.00    -0.353 OA
HETATM   25  C18 UNK     1      22.141 -11.008  35.364  1.00  0.00     0.210 C 
ENDBRANCH  19  24
ENDBRANCH  15  16
ENDBRANCH   2  14
TORSDOF 6
ENDMDL
MODEL 4
REMARK VINA RESULT:      -8.1      2.291      2.674
REMARK  6 active torsions:
REMARK  status: ('A' for Active; 'I' for Inactive)
REMARK    1  A    between atoms: C4_9  and  O1_1 
REMARK    2  A    between atoms: C6_11  and  O2_2 
REMARK       I    between atoms: C16_21  and  N1_5 
REMARK    3  A    between atoms: C5_10  and  N1_5 
REMARK    4  A    between atoms: C1_6  and  C8_13 
REMARK    5  A    between atoms: C11_16  and  C2_7 
REMARK    6  A    between atoms: C11_16  and  C15_20 
ROOT
HETATM    1  O3  UNK     1      18.907   2.487  29.971  1.00  0.00    -0.288 OA
HETATM    2  C11 UNK     1      18.547   2.659  31.145  1.00  0.00     0.182 C 
ENDROOT
BRANCH   2   3
HETATM    3  C2  UNK     1      18.570   1.564  32.101  1.00  0.00     0.014 A 
HETATM    4  C10 UNK     1      18.138   1.772  33.411  1.00  0.00     0.018 A 
HETATM    5  C14 UNK     1      18.160   0.721  34.329  1.00  0.00     0.030 A 
HETATM    6  C5  UNK     1      18.614  -0.538  33.935  1.00  0.00     0.034 A 
HETATM    7  C13 UNK     1      19.045  -0.747  32.625  1.00  0.00     0.030 A 
HETATM    8  C9  UNK     1      19.023   0.304  31.708  1.00  0.00     0.018 A 
BRANCH   6   9
HETATM    9  N1  UNK     1      18.635  -1.589  34.852  1.00  0.00    -0.328 N 
HETATM   10  C16 UNK     1      19.711  -2.035  35.632  1.00  0.00     0.218 C 
HETATM   11  O4  UNK     1      20.850  -1.580  35.660  1.00  0.00    -0.274 OA
HETATM   12  C19 UNK     1      19.325  -3.204  36.502  1.00  0.00     0.117 C 
HETATM   13  H10 UNK     1      17.755  -2.088  34.962  1.00  0.00     0.169 HD
ENDBRANCH   6   9
ENDBRANCH   2   3
BRANCH   2  14
HETATM   14  C15 UNK     1      18.107   4.017  31.617  1.00  0.00     0.056 C 
HETATM   15  C8  UNK     1      19.009   4.929  32.007  1.00  0.00     0.015 C 
BRANCH  15  16
HETATM   16  C1  UNK     1      18.675   6.278  32.497  1.00  0.00    -0.033 A 
HETATM   17  C3  UNK     1      17.516   6.913  32.052  1.00  0.00     0.051 A 
HETATM   18  C4  UNK     1      17.199   8.191  32.515  1.00  0.00     0.102 A 
HETATM   19  C6  UNK     1      18.041   8.832  33.423  1.00  0.00     0.101 A 
HETATM   20  C12 UNK     1      19.200   8.198  33.868  1.00  0.00     0.040 A 
HETATM   21  C7  UNK     1      19.517   6.920  33.405  1.00  0.00     0.014 A 
BRANCH  18  22
HETATM   22  O1  UNK     1      16.064   8.801  32.072  1.00  0.00    -0.353 OA
HETATM   23  C17 UNK     1      14.835   8.401  32.676  1.00  0.00     0.210 C 
ENDBRANCH  18  22
BRANCH  19  24
HETATM   24  O2  UNK     1      17.742  10.080  33.882  1.00  0.00    -0.353 OA
HETATM   25  C18 UNK     1      18.808  11.026  33.927  1.00  0.00     0.210 C 
ENDBRANCH  19  24
ENDBRANCH  15  16
ENDBRANCH   2  14
TORSDOF 6
ENDMDL
MODEL 5
REMARK VINA RESULT:      -8.0      4.374      9.841
REMARK  6 active torsions:
REMARK  status: ('A' for Active; 'I' for Inactive)
REMARK    1  A    between atoms: C4_9  and  O1_1 
REMARK    2  A    between atoms: C6_11  and  O2_2 
REMARK       I    between atoms: C16_21  and  N1_5 
REMARK    3  A    between atoms: C5_10  and  N1_5 
REMARK    4  A    between atoms: C1_6  and  C8_13 
REMARK    5  A    between atoms: C11_16  and  C2_7 
REMARK    6  A    between atoms: C11_16  and  C15_20 
ROOT
HETATM    1  O3  UNK     1      19.622   6.085  32.663  1.00  0.00    -0.288 OA
HETATM    2  C11 UNK     1      18.467   5.708  32.909  1.00  0.00     0.182 C 
ENDROOT
BRANCH   2   3
HETATM    3  C2  UNK     1      17.350   6.637  32.853  1.00  0.00     0.014 A 
HETATM    4  C10 UNK     1      17.016   7.254  31.647  1.00  0.00     0.018 A 
HETATM    5  C14 UNK     1      15.944   8.146  31.593  1.00  0.00     0.030 A 
HETATM    6  C5  UNK     1      15.207   8.421  32.745  1.00  0.00     0.034 A 
HETATM    7  C13 UNK     1      15.542   7.805  33.951  1.00  0.00     0.030 A 
HETATM    8  C9  UNK     1      16.613   6.913  34.005  1.00  0.00     0.018 A 
BRANCH   6   9
HETATM    9  N1  UNK     1      14.136   9.313  32.690  1.00  0.00    -0.328 N 
HETATM   10  C16 UNK     1      14.100  10.649  33.113  1.00  0.00     0.218 C 
HETATM   11  O4  UNK     1      15.014  11.297  33.613  1.00  0.00    -0.274 OA
HETATM   12  C19 UNK     1      12.747  11.272  32.882  1.00  0.00     0.117 C 
HETATM   13  H10 UNK     1      13.278   8.937  32.293  1.00  0.00     0.169 HD
ENDBRANCH   6   9
ENDBRANCH   2   3
BRANCH   2  14
HETATM   14  C15 UNK     1      18.188   4.269  33.243  1.00  0.00     0.056 C 
HETATM   15  C8  UNK     1      18.595   3.747  34.409  1.00  0.00     0.015 C 
BRANCH  15  16
HETATM   16  C1  UNK     1      18.381   2.348  34.818  1.00  0.00    -0.033 A 
HETATM   17  C3  UNK     1      18.180   1.362  33.852  1.00  0.00     0.051 A 
HETATM   18  C4  UNK     1      17.977   0.038  34.238  1.00  0.00     0.102 A 
HETATM   19  C6  UNK     1      17.975  -0.302  35.591  1.00  0.00     0.101 A 
HETATM   20  C12 UNK     1      18.175   0.683  36.558  1.00  0.00     0.040 A 
HETATM   21  C7  UNK     1      18.378   2.008  36.171  1.00  0.00     0.014 A 
BRANCH  18  22
HETATM   22  O1  UNK     1      17.781  -0.916  33.285  1.00  0.00    -0.353 OA
HETATM   23  C17 UNK     1      18.919  -1.312  32.521  1.00  0.00     0.210 C 
ENDBRANCH  18  22
BRANCH  19  24
HETATM   24  O2  UNK     1      17.777  -1.592  35.981  1.00  0.00    -0.353 OA
HETATM   25  C18 UNK     1      18.898  -2.282  36.530  1.00  0.00     0.210 C 
ENDBRANCH  19  24
ENDBRANCH  15  16
ENDBRANCH   2  14
TORSDOF 6
ENDMDL
MODEL 6
REMARK VINA RESULT:      -7.9      2.703      4.414
REMARK  6 active torsions:
REMARK  status: ('A' for Active; 'I' for Inactive)
REMARK    1  A    between atoms: C4_9  and  O1_1 
REMARK    2  A    between atoms: C6_11  and  O2_2 
REMARK       I    between atoms: C16_21  and  N1_5 
REMARK    3  A    between atoms: C5_10  and  N1_5 
REMARK    4  A    between atoms: C1_6  and  C8_13 
REMARK    5  A    between atoms: C11_16  and  C2_7 
REMARK    6  A    between atoms: C11_16  and  C15_20 
ROOT
HETATM    1  O3  UNK     1      19.430   6.592  30.191  1.00  0.00    -0.288 OA
HETATM    2  C11 UNK     1      18.561   5.992  30.842  1.00  0.00     0.182 C 
ENDROOT
BRANCH   2   3
HETATM    3  C2  UNK     1      18.594   4.545  30.976  1.00  0.00     0.014 A 
HETATM    4  C10 UNK     1      18.876   3.749  29.866  1.00  0.00     0.018 A 
HETATM    5  C14 UNK     1      18.907   2.360  29.993  1.00  0.00     0.030 A 
HETATM    6  C5  UNK     1      18.657   1.767  31.231  1.00  0.00     0.034 A 
HETATM    7  C13 UNK     1      18.375   2.564  32.341  1.00  0.00     0.030 A 
HETATM    8  C9  UNK     1      18.344   3.953  32.214  1.00  0.00     0.018 A 
BRANCH   6   9
HETATM    9  N1  UNK     1      18.689   0.379  31.359  1.00  0.00    -0.328 N 
HETATM   10  C16 UNK     1      19.806  -0.467  31.336  1.00  0.00     0.218 C 
HETATM   11  O4  UNK     1      20.983  -0.144  31.202  1.00  0.00    -0.274 OA
HETATM   12  C19 UNK     1      19.417  -1.913  31.506  1.00  0.00     0.117 C 
HETATM   13  H10 UNK     1      17.783  -0.067  31.482  1.00  0.00     0.169 HD
ENDBRANCH   6   9
ENDBRANCH   2   3
BRANCH   2  14
HETATM   14  C15 UNK     1      17.468   6.754  31.539  1.00  0.00     0.056 C 
HETATM   15  C8  UNK     1      17.759   7.634  32.508  1.00  0.00     0.015 C 
BRANCH  15  16
HETATM   16  C1  UNK     1      16.758   8.416  33.254  1.00  0.00    -0.033 A 
HETATM   17  C3  UNK     1      17.124   9.615  33.865  1.00  0.00     0.051 A 
HETATM   18  C4  UNK     1      16.176  10.355  34.572  1.00  0.00     0.102 A 
HETATM   19  C6  UNK     1      14.863   9.896  34.669  1.00  0.00     0.101 A 
HETATM   20  C12 UNK     1      14.496   8.696  34.059  1.00  0.00     0.040 A 
HETATM   21  C7  UNK     1      15.444   7.956  33.352  1.00  0.00     0.014 A 
BRANCH  18  22
HETATM   22  O1  UNK     1      16.545  11.525  35.165  1.00  0.00    -0.353 OA
HETATM   23  C17 UNK     1      16.831  12.626  34.304  1.00  0.00     0.210 C 
ENDBRANCH  18  22
BRANCH  19  24
HETATM   24  O2  UNK     1      13.928  10.609  35.357  1.00  0.00    -0.353 OA
HETATM   25  C18 UNK     1      13.159  11.554  34.616  1.00  0.00     0.210 C 
ENDBRANCH  19  24
ENDBRANCH  15  16
ENDBRANCH   2  14
TORSDOF 6
ENDMDL
MODEL 7
REMARK VINA RESULT:      -7.8      3.364      6.384
REMARK  6 active torsions:
REMARK  status: ('A' for Active; 'I' for Inactive)
REMARK    1  A    between atoms: C4_9  and  O1_1 
REMARK    2  A    between atoms: C6_11  and  O2_2 
REMARK       I    between atoms: C16_21  and  N1_5 
REMARK    3  A    between atoms: C5_10  and  N1_5 
REMARK    4  A    between atoms: C1_6  and  C8_13 
REMARK    5  A    between atoms: C11_16  and  C2_7 
REMARK    6  A    between atoms: C11_16  and  C15_20 
ROOT
HETATM    1  O3  UNK     1      19.597   7.760  33.467  1.00  0.00    -0.288 OA
HETATM    2  C11 UNK     1      18.612   7.297  32.873  1.00  0.00     0.182 C 
ENDROOT
BRANCH   2   3
HETATM    3  C2  UNK     1      18.689   6.022  32.179  1.00  0.00     0.014 A 
HETATM    4  C10 UNK     1      19.347   5.934  30.952  1.00  0.00     0.018 A 
HETATM    5  C14 UNK     1      19.421   4.710  30.286  1.00  0.00     0.030 A 
HETATM    6  C5  UNK     1      18.837   3.574  30.848  1.00  0.00     0.034 A 
HETATM    7  C13 UNK     1      18.178   3.662  32.075  1.00  0.00     0.030 A 
HETATM    8  C9  UNK     1      18.105   4.886  32.741  1.00  0.00     0.018 A 
BRANCH   6   9
HETATM    9  N1  UNK     1      18.911   2.351  30.183  1.00  0.00    -0.328 N 
HETATM   10  C16 UNK     1      18.398   2.019  28.921  1.00  0.00     0.218 C 
HETATM   11  O4  UNK     1      17.783   2.751  28.151  1.00  0.00    -0.274 OA
HETATM   12  C19 UNK     1      18.690   0.586  28.558  1.00  0.00     0.117 C 
HETATM   13  H10 UNK     1      19.400   1.612  30.684  1.00  0.00     0.169 HD
ENDBRANCH   6   9
ENDBRANCH   2   3
BRANCH   2  14
HETATM   14  C15 UNK     1      17.301   8.033  32.883  1.00  0.00     0.056 C 
HETATM   15  C8  UNK     1      17.014   8.903  33.862  1.00  0.00     0.015 C 
BRANCH  15  16
HETATM   16  C1  UNK     1      15.753   9.659  33.964  1.00  0.00    -0.033 A 
HETATM   17  C3  UNK     1      15.371  10.216  35.184  1.00  0.00     0.051 A 
HETATM   18  C4  UNK     1      14.177  10.931  35.281  1.00  0.00     0.102 A 
HETATM   19  C6  UNK     1      13.366  11.089  34.158  1.00  0.00     0.101 A 
HETATM   20  C12 UNK     1      13.747  10.533  32.937  1.00  0.00     0.040 A 
HETATM   21  C7  UNK     1      14.941   9.817  32.840  1.00  0.00     0.014 A 
BRANCH  18  22
HETATM   22  O1  UNK     1      13.814  11.470  36.479  1.00  0.00    -0.353 OA
HETATM   23  C17 UNK     1      14.393  12.726  36.827  1.00  0.00     0.210 C 
ENDBRANCH  18  22
BRANCH  19  24
HETATM   24  O2  UNK     1      12.197  11.785  34.240  1.00  0.00    -0.353 OA
HETATM   25  C18 UNK     1      11.703  12.366  33.035  1.00  0.00     0.210 C 
ENDBRANCH  19  24
ENDBRANCH  15  16
ENDBRANCH   2  14
TORSDOF 6
ENDMDL
MODEL 8
REMARK VINA RESULT:      -7.8      5.761     12.275
REMARK  6 active torsions:
REMARK  status: ('A' for Active; 'I' for Inactive)
REMARK    1  A    between atoms: C4_9  and  O1_1 
REMARK    2  A    between atoms: C6_11  and  O2_2 
REMARK       I    between atoms: C16_21  and  N1_5 
REMARK    3  A    between atoms: C5_10  and  N1_5 
REMARK    4  A    between atoms: C1_6  and  C8_13 
REMARK    5  A    between atoms: C11_16  and  C2_7 
REMARK    6  A    between atoms: C11_16  and  C15_20 
ROOT
HETATM    1  O3  UNK     1      19.508  -1.717  37.661  1.00  0.00    -0.288 OA
HETATM    2  C11 UNK     1      19.381  -2.508  36.715  1.00  0.00     0.182 C 
ENDROOT
BRANCH   2   3
HETATM    3  C2  UNK     1      19.283  -2.026  35.347  1.00  0.00     0.014 A 
HETATM    4  C10 UNK     1      18.383  -1.008  35.028  1.00  0.00     0.018 A 
HETATM    5  C14 UNK     1      18.289  -0.545  33.715  1.00  0.00     0.030 A 
HETATM    6  C5  UNK     1      19.095  -1.100  32.721  1.00  0.00     0.034 A 
HETATM    7  C13 UNK     1      19.994  -2.118  33.039  1.00  0.00     0.030 A 
HETATM    8  C9  UNK     1      20.089  -2.581  34.352  1.00  0.00     0.018 A 
BRANCH   6   9
HETATM    9  N1  UNK     1      19.001  -0.638  31.409  1.00  0.00    -0.328 N 
HETATM   10  C16 UNK     1      20.012  -0.084  30.611  1.00  0.00     0.218 C 
HETATM   11  O4  UNK     1      21.187   0.097  30.917  1.00  0.00    -0.274 OA
HETATM   12  C19 UNK     1      19.502   0.294  29.244  1.00  0.00     0.117 C 
HETATM   13  H10 UNK     1      18.078  -0.714  30.986  1.00  0.00     0.169 HD
ENDBRANCH   6   9
ENDBRANCH   2   3
BRANCH   2  14
HETATM   14  C15 UNK     1      19.357  -3.991  36.958  1.00  0.00     0.056 C 
HETATM   15  C8  UNK     1      20.412  -4.610  37.508  1.00  0.00     0.015 C 
BRANCH  15  16
HETATM   16  C1  UNK     1      20.486  -6.057  37.772  1.00  0.00    -0.033 A 
HETATM   17  C3  UNK     1      21.163  -6.894  36.885  1.00  0.00     0.051 A 
HETATM   18  C4  UNK     1      21.233  -8.265  37.134  1.00  0.00     0.102 A 
HETATM   19  C6  UNK     1      20.627  -8.798  38.271  1.00  0.00     0.101 A 
HETATM   20  C12 UNK     1      19.950  -7.963  39.159  1.00  0.00     0.040 A 
HETATM   21  C7  UNK     1      19.880  -6.592  38.909  1.00  0.00     0.014 A 
BRANCH  18  22
HETATM   22  O1  UNK     1      21.897  -9.072  36.260  1.00  0.00    -0.353 OA
HETATM   23  C17 UNK     1      23.274  -9.326  36.530  1.00  0.00     0.210 C 
ENDBRANCH  18  22
BRANCH  19  24
HETATM   24  O2  UNK     1      20.688 -10.135  38.526  1.00  0.00    -0.353 OA
HETATM   25  C18 UNK     1      19.458 -10.856  38.510  1.00  0.00     0.210 C 
ENDBRANCH  19  24
ENDBRANCH  15  16
ENDBRANCH   2  14
TORSDOF 6
ENDMDL
MODEL 9
REMARK VINA RESULT:      -7.7     12.753     15.396
REMARK  6 active torsions:
REMARK  status: ('A' for Active; 'I' for Inactive)
REMARK    1  A    between atoms: C4_9  and  O1_1 
REMARK    2  A    between atoms: C6_11  and  O2_2 
REMARK       I    between atoms: C16_21  and  N1_5 
REMARK    3  A    between atoms: C5_10  and  N1_5 
REMARK    4  A    between atoms: C1_6  and  C8_13 
REMARK    5  A    between atoms: C11_16  and  C2_7 
REMARK    6  A    between atoms: C11_16  and  C15_20 
ROOT
HETATM    1  O3  UNK     1      27.189  -9.272  39.794  1.00  0.00    -0.288 OA
HETATM    2  C11 UNK     1      26.821  -8.441  38.950  1.00  0.00     0.182 C 
ENDROOT
BRANCH   2   3
HETATM    3  C2  UNK     1      27.727  -7.409  38.473  1.00  0.00     0.014 A 
HETATM    4  C10 UNK     1      28.034  -7.323  37.115  1.00  0.00     0.018 A 
HETATM    5  C14 UNK     1      28.904  -6.333  36.657  1.00  0.00     0.030 A 
HETATM    6  C5  UNK     1      29.466  -5.427  37.559  1.00  0.00     0.034 A 
HETATM    7  C13 UNK     1      29.159  -5.513  38.917  1.00  0.00     0.030 A 
HETATM    8  C9  UNK     1      28.289  -6.504  39.374  1.00  0.00     0.018 A 
BRANCH   6   9
HETATM    9  N1  UNK     1      30.335  -4.437  37.101  1.00  0.00    -0.328 N 
HETATM   10  C16 UNK     1      31.705  -4.547  36.828  1.00  0.00     0.218 C 
HETATM   11  O4  UNK     1      32.409  -5.546  36.937  1.00  0.00    -0.274 OA
HETATM   12  C19 UNK     1      32.286  -3.241  36.350  1.00  0.00     0.117 C 
HETATM   13  H10 UNK     1      29.912  -3.524  36.950  1.00  0.00     0.169 HD
ENDBRANCH   6   9
ENDBRANCH   2   3
BRANCH   2  14
HETATM   14  C15 UNK     1      25.434  -8.503  38.374  1.00  0.00     0.056 C 
HETATM   15  C8  UNK     1      24.393  -7.989  39.045  1.00  0.00     0.015 C 
BRANCH  15  16
HETATM   16  C1  UNK     1      22.999  -8.014  38.569  1.00  0.00    -0.033 A 
HETATM   17  C3  UNK     1      22.717  -8.385  37.255  1.00  0.00     0.051 A 
HETATM   18  C4  UNK     1      21.397  -8.408  36.804  1.00  0.00     0.102 A 
HETATM   19  C6  UNK     1      20.359  -8.060  37.667  1.00  0.00     0.101 A 
HETATM   20  C12 UNK     1      20.639  -7.688  38.982  1.00  0.00     0.040 A 
HETATM   21  C7  UNK     1      21.959  -7.665  39.433  1.00  0.00     0.014 A 
BRANCH  18  22
HETATM   22  O1  UNK     1      21.135  -8.772  35.517  1.00  0.00    -0.353 OA
HETATM   23  C17 UNK     1      21.684 -10.010  35.069  1.00  0.00     0.210 C 
ENDBRANCH  18  22
BRANCH  19  24
HETATM   24  O2  UNK     1      19.066  -8.079  37.239  1.00  0.00    -0.353 OA
HETATM   25  C18 UNK     1      18.411  -6.819  37.098  1.00  0.00     0.210 C 
ENDBRANCH  19  24
ENDBRANCH  15  16
ENDBRANCH   2  14
TORSDOF 6
ENDMDL
MODEL 10
REMARK VINA RESULT:      -7.7      4.173      5.960
REMARK  6 active torsions:
REMARK  status: ('A' for Active; 'I' for Inactive)
REMARK    1  A    between atoms: C4_9  and  O1_1 
REMARK    2  A    between atoms: C6_11  and  O2_2 
REMARK       I    between atoms: C16_21  and  N1_5 
REMARK    3  A    between atoms: C5_10  and  N1_5 
REMARK    4  A    between atoms: C1_6  and  C8_13 
REMARK    5  A    between atoms: C11_16  and  C2_7 
REMARK    6  A    between atoms: C11_16  and  C15_20 
ROOT
HETATM    1  O3  UNK     1      17.660   1.527  37.574  1.00  0.00    -0.288 OA
HETATM    2  C11 UNK     1      18.227   1.057  36.576  1.00  0.00     0.182 C 
ENDROOT
BRANCH   2   3
HETATM    3  C2  UNK     1      18.538  -0.360  36.492  1.00  0.00     0.014 A 
HETATM    4  C10 UNK     1      17.898  -1.266  37.338  1.00  0.00     0.018 A 
HETATM    5  C14 UNK     1      18.196  -2.627  37.258  1.00  0.00     0.030 A 
HETATM    6  C5  UNK     1      19.135  -3.081  36.330  1.00  0.00     0.034 A 
HETATM    7  C13 UNK     1      19.775  -2.175  35.485  1.00  0.00     0.030 A 
HETATM    8  C9  UNK     1      19.476  -0.815  35.565  1.00  0.00     0.018 A 
BRANCH   6   9
HETATM    9  N1  UNK     1      19.433  -4.441  36.250  1.00  0.00    -0.328 N 
HETATM   10  C16 UNK     1      20.529  -5.121  36.799  1.00  0.00     0.218 C 
HETATM   11  O4  UNK     1      21.444  -4.645  37.465  1.00  0.00    -0.274 OA
HETATM   12  C19 UNK     1      20.488  -6.595  36.485  1.00  0.00     0.117 C 
HETATM   13  H10 UNK     1      18.766  -5.002  35.725  1.00  0.00     0.169 HD
ENDBRANCH   6   9
ENDBRANCH   2   3
BRANCH   2  14
HETATM   14  C15 UNK     1      18.577   1.941  35.411  1.00  0.00     0.056 C 
HETATM   15  C8  UNK     1      17.920   1.830  34.247  1.00  0.00     0.015 C 
BRANCH  15  16
HETATM   16  C1  UNK     1      18.200   2.640  33.049  1.00  0.00    -0.033 A 
HETATM   17  C3  UNK     1      18.426   2.016  31.823  1.00  0.00     0.051 A 
HETATM   18  C4  UNK     1      18.693   2.783  30.688  1.00  0.00     0.102 A 
HETATM   19  C6  UNK     1      18.733   4.174  30.780  1.00  0.00     0.101 A 
HETATM   20  C12 UNK     1      18.507   4.799  32.007  1.00  0.00     0.040 A 
HETATM   21  C7  UNK     1      18.241   4.032  33.141  1.00  0.00     0.014 A 
BRANCH  18  22
HETATM   22  O1  UNK     1      18.913   2.161  29.496  1.00  0.00    -0.353 OA
HETATM   23  C17 UNK     1      19.319   0.795  29.542  1.00  0.00     0.210 C 
ENDBRANCH  18  22
BRANCH  19  24
HETATM   24  O2  UNK     1      18.992   4.934  29.680  1.00  0.00    -0.353 OA
HETATM   25  C18 UNK     1      19.863   6.049  29.853  1.00  0.00     0.210 C 
ENDBRANCH  19  24
ENDBRANCH  15  16
ENDBRANCH   2  14
TORSDOF 6
ENDMDL
