MODEL 1
REMARK VINA RESULT:      -8.6      0.000      0.000
REMARK  8 active torsions:
REMARK  status: ('A' for Active; 'I' for Inactive)
REMARK    1  A    between atoms: C20_28  and  O2_3 
REMARK    2  A    between atoms: C8_16  and  O2_3 
REMARK    3  A    between atoms: C18_26  and  O5_6 
REMARK    4  A    between atoms: C1_9  and  N1_8 
REMARK       I    between atoms: C4_12  and  N1_8 
REMARK    5  A    between atoms: C1_9  and  C2_10 
REMARK    6  A    between atoms: C1_9  and  C3_11 
REMARK    7  A    between atoms: C2_10  and  C8_16 
REMARK    8  A    between atoms: C4_12  and  C7_15 
ROOT
HETATM    1  O3  UNK     1      19.295   2.231  35.311  1.00  0.00    -0.267 OA
HETATM    2  N1  UNK     1      18.186   1.003  33.669  1.00  0.00    -0.348 N 
HETATM    3  C4  UNK     1      18.639   2.162  34.274  1.00  0.00     0.258 C 
HETATM    4  H4  UNK     1      17.595   1.070  32.845  1.00  0.00     0.163 HD
ENDROOT
BRANCH   2   5
HETATM    5  C1  UNK     1      18.440  -0.315  34.203  1.00  0.00     0.129 C 
BRANCH   5   6
HETATM    6  C2  UNK     1      17.127  -1.021  34.579  1.00  0.00     0.141 C 
BRANCH   6   7
HETATM    7  C8  UNK     1      16.094  -0.077  35.160  1.00  0.00     0.261 C 
HETATM    8  O4  UNK     1      15.284   0.572  34.512  1.00  0.00    -0.265 OA
BRANCH   7   9
HETATM    9  O2  UNK     1      16.207  -0.085  36.522  1.00  0.00    -0.322 OA
BRANCH   9  10
HETATM   10  C20 UNK     1      16.449   1.189  37.128  1.00  0.00     0.174 C 
HETATM   11  C21 UNK     1      17.603   1.061  38.100  1.00  0.00     0.034 C 
ENDBRANCH   9  10
ENDBRANCH   7   9
ENDBRANCH   6   7
ENDBRANCH   5   6
BRANCH   5  12
HETATM   12  C3  UNK     1      19.259  -1.137  33.228  1.00  0.00    -0.013 A 
HETATM   13  C5  UNK     1      20.086  -2.154  33.673  1.00  0.00     0.042 A 
HETATM   14  C12 UNK     1      20.823  -2.889  32.745  1.00  0.00     0.024 A 
HETATM   15 Cl1  UNK     1      20.237  -2.545  35.347  1.00  0.00    -0.084 Cl
HETATM   16  C15 UNK     1      20.722  -2.596  31.384  1.00  0.00     0.002 A 
HETATM   17  C13 UNK     1      19.883  -1.568  30.953  1.00  0.00     0.001 A 
HETATM   18  C6  UNK     1      19.145  -0.834  31.881  1.00  0.00     0.011 A 
ENDBRANCH   5  12
ENDBRANCH   2   5
BRANCH   3  19
HETATM   19  C7  UNK     1      18.256   3.375  33.542  1.00  0.00     0.108 A 
HETATM   20  C10 UNK     1      18.236   4.511  34.250  1.00  0.00     0.037 A 
HETATM   21  C9  UNK     1      17.869   5.766  33.611  1.00  0.00     0.002 A 
HETATM   22  C11 UNK     1      17.542   5.763  32.259  1.00  0.00     0.089 A 
HETATM   23  C16 UNK     1      17.835   6.975  34.310  1.00  0.00     0.051 A 
HETATM   24  O1  UNK     1      17.565   4.564  31.519  1.00  0.00    -0.274 OA
HETATM   25  C17 UNK     1      17.182   6.929  31.588  1.00  0.00     0.041 A 
HETATM   26  C14 UNK     1      17.912   3.348  32.102  1.00  0.00     0.304 A 
HETATM   27  O6  UNK     1      17.928   2.309  31.452  1.00  0.00    -0.259 OA
HETATM   28  C19 UNK     1      17.149   8.131  32.293  1.00  0.00     0.039 A 
HETATM   29  C18 UNK     1      17.475   8.154  33.650  1.00  0.00     0.069 A 
BRANCH  29  30
HETATM   30  O5  UNK     1      17.443   9.331  34.335  1.00  0.00    -0.356 OA
HETATM   31  C22 UNK     1      16.159   9.907  34.575  1.00  0.00     0.210 C 
ENDBRANCH  29  30
ENDBRANCH   3  19
TORSDOF 8
ENDMDL
MODEL 2
REMARK VINA RESULT:      -8.4      5.545      8.564
REMARK  8 active torsions:
REMARK  status: ('A' for Active; 'I' for Inactive)
REMARK    1  A    between atoms: C20_28  and  O2_3 
REMARK    2  A    between atoms: C8_16  and  O2_3 
REMARK    3  A    between atoms: C18_26  and  O5_6 
REMARK    4  A    between atoms: C1_9  and  N1_8 
REMARK       I    between atoms: C4_12  and  N1_8 
REMARK    5  A    between atoms: C1_9  and  C2_10 
REMARK    6  A    between atoms: C1_9  and  C3_11 
REMARK    7  A    between atoms: C2_10  and  C8_16 
REMARK    8  A    between atoms: C4_12  and  C7_15 
ROOT
HETATM    1  O3  UNK     1      20.872  -3.260  38.112  1.00  0.00    -0.267 OA
HETATM    2  N1  UNK     1      20.504  -5.100  36.730  1.00  0.00    -0.348 N 
HETATM    3  C4  UNK     1      20.496  -3.755  37.051  1.00  0.00     0.258 C 
HETATM    4  H4  UNK     1      20.109  -5.402  35.843  1.00  0.00     0.163 HD
ENDROOT
BRANCH   2   5
HETATM    5  C1  UNK     1      20.970  -6.125  37.636  1.00  0.00     0.129 C 
BRANCH   5   6
HETATM    6  C2  UNK     1      19.911  -6.441  38.703  1.00  0.00     0.141 C 
BRANCH   6   7
HETATM    7  C8  UNK     1      18.761  -7.269  38.168  1.00  0.00     0.261 C 
HETATM    8  O4  UNK     1      17.878  -6.860  37.426  1.00  0.00    -0.265 OA
BRANCH   7   9
HETATM    9  O2  UNK     1      18.882  -8.548  38.638  1.00  0.00    -0.322 OA
BRANCH   9  10
HETATM   10  C20 UNK     1      18.744  -9.581  37.657  1.00  0.00     0.174 C 
HETATM   11  C21 UNK     1      19.558 -10.782  38.089  1.00  0.00     0.034 C 
ENDBRANCH   9  10
ENDBRANCH   7   9
ENDBRANCH   6   7
ENDBRANCH   5   6
BRANCH   5  12
HETATM   12  C3  UNK     1      21.384  -7.366  36.871  1.00  0.00    -0.013 A 
HETATM   13  C5  UNK     1      22.283  -8.268  37.412  1.00  0.00     0.042 A 
HETATM   14  C12 UNK     1      22.639  -9.400  36.678  1.00  0.00     0.024 A 
HETATM   15 Cl1  UNK     1      22.983  -8.040  38.973  1.00  0.00    -0.084 Cl
HETATM   16  C15 UNK     1      22.089  -9.612  35.413  1.00  0.00     0.002 A 
HETATM   17  C13 UNK     1      21.184  -8.692  34.883  1.00  0.00     0.001 A 
HETATM   18  C6  UNK     1      20.828  -7.561  35.617  1.00  0.00     0.011 A 
ENDBRANCH   5  12
ENDBRANCH   2   5
BRANCH   3  19
HETATM   19  C7  UNK     1      19.979  -2.912  35.966  1.00  0.00     0.108 A 
HETATM   20  C10 UNK     1      20.559  -3.067  34.769  1.00  0.00     0.037 A 
HETATM   21  C9  UNK     1      20.115  -2.276  33.632  1.00  0.00     0.002 A 
HETATM   22  C11 UNK     1      19.083  -1.361  33.811  1.00  0.00     0.089 A 
HETATM   23  C16 UNK     1      20.691  -2.404  32.365  1.00  0.00     0.051 A 
HETATM   24  O1  UNK     1      18.477  -1.202  35.073  1.00  0.00    -0.274 OA
HETATM   25  C17 UNK     1      18.612  -0.572  32.763  1.00  0.00     0.041 A 
HETATM   26  C14 UNK     1      18.880  -1.944  36.180  1.00  0.00     0.304 A 
HETATM   27  O6  UNK     1      18.348  -1.799  37.274  1.00  0.00    -0.259 OA
HETATM   28  C19 UNK     1      19.192  -0.706  31.503  1.00  0.00     0.039 A 
HETATM   29  C18 UNK     1      20.228  -1.620  31.304  1.00  0.00     0.069 A 
BRANCH  29  30
HETATM   30  O5  UNK     1      20.792  -1.749  30.071  1.00  0.00    -0.356 OA
HETATM   31  C22 UNK     1      20.376  -0.823  29.068  1.00  0.00     0.210 C 
ENDBRANCH  29  30
ENDBRANCH   3  19
TORSDOF 8
ENDMDL
MODEL 3
REMARK VINA RESULT:      -8.1      4.620     10.530
REMARK  8 active torsions:
REMARK  status: ('A' for Active; 'I' for Inactive)
REMARK    1  A    between atoms: C20_28  and  O2_3 
REMARK    2  A    between atoms: C8_16  and  O2_3 
REMARK    3  A    between atoms: C18_26  and  O5_6 
REMARK    4  A    between atoms: C1_9  and  N1_8 
REMARK       I    between atoms: C4_12  and  N1_8 
REMARK    5  A    between atoms: C1_9  and  C2_10 
REMARK    6  A    between atoms: C1_9  and  C3_11 
REMARK    7  A    between atoms: C2_10  and  C8_16 
REMARK    8  A    between atoms: C4_12  and  C7_15 
ROOT
HETATM    1  O3  UNK     1      20.818  -2.798  34.024  1.00  0.00    -0.267 OA
HETATM    2  N1  UNK     1      19.065  -2.072  35.377  1.00  0.00    -0.348 N 
HETATM    3  C4  UNK     1      20.073  -2.937  34.992  1.00  0.00     0.258 C 
HETATM    4  H4  UNK     1      18.468  -2.322  36.160  1.00  0.00     0.163 HD
ENDROOT
BRANCH   2   5
HETATM    5  C1  UNK     1      18.754  -0.855  34.662  1.00  0.00     0.129 C 
BRANCH   5   6
HETATM    6  C2  UNK     1      18.401  -1.152  33.196  1.00  0.00     0.141 C 
BRANCH   6   7
HETATM    7  C8  UNK     1      18.987  -0.142  32.230  1.00  0.00     0.261 C 
HETATM    8  O4  UNK     1      18.551   0.984  32.032  1.00  0.00    -0.265 OA
BRANCH   7   9
HETATM    9  O2  UNK     1      20.087  -0.691  31.633  1.00  0.00    -0.322 OA
BRANCH   9  10
HETATM   10  C20 UNK     1      20.526  -0.041  30.435  1.00  0.00     0.174 C 
HETATM   11  C21 UNK     1      20.585  -1.060  29.316  1.00  0.00     0.034 C 
ENDBRANCH   9  10
ENDBRANCH   7   9
ENDBRANCH   6   7
ENDBRANCH   5   6
BRANCH   5  12
HETATM   12  C3  UNK     1      17.646  -0.094  35.362  1.00  0.00    -0.013 A 
HETATM   13  C5  UNK     1      17.904   1.101  36.011  1.00  0.00     0.042 A 
HETATM   14  C12 UNK     1      16.859   1.774  36.643  1.00  0.00     0.024 A 
HETATM   15 Cl1  UNK     1      19.485   1.791  36.065  1.00  0.00    -0.084 Cl
HETATM   16  C15 UNK     1      15.569   1.241  36.616  1.00  0.00     0.002 A 
HETATM   17  C13 UNK     1      15.327   0.036  35.957  1.00  0.00     0.001 A 
HETATM   18  C6  UNK     1      16.372  -0.637  35.325  1.00  0.00     0.011 A 
ENDBRANCH   5  12
ENDBRANCH   2   5
BRANCH   3  19
HETATM   19  C7  UNK     1      20.196  -4.100  35.878  1.00  0.00     0.108 A 
HETATM   20  C10 UNK     1      20.255  -5.296  35.278  1.00  0.00     0.037 A 
HETATM   21  C9  UNK     1      20.378  -6.509  36.073  1.00  0.00     0.002 A 
HETATM   22  C11 UNK     1      20.433  -6.403  37.459  1.00  0.00     0.089 A 
HETATM   23  C16 UNK     1      20.443  -7.777  35.490  1.00  0.00     0.051 A 
HETATM   24  O1  UNK     1      20.370  -5.142  38.084  1.00  0.00    -0.274 OA
HETATM   25  C17 UNK     1      20.549  -7.525  38.276  1.00  0.00     0.041 A 
HETATM   26  C14 UNK     1      20.252  -3.964  37.351  1.00  0.00     0.304 A 
HETATM   27  O6  UNK     1      20.197  -2.871  37.903  1.00  0.00    -0.259 OA
HETATM   28  C19 UNK     1      20.613  -8.787  37.688  1.00  0.00     0.039 A 
HETATM   29  C18 UNK     1      20.561  -8.912  36.298  1.00  0.00     0.069 A 
BRANCH  29  30
HETATM   30  O5  UNK     1      20.624 -10.147  35.726  1.00  0.00    -0.356 OA
HETATM   31  C22 UNK     1      21.872 -10.531  35.150  1.00  0.00     0.210 C 
ENDBRANCH  29  30
ENDBRANCH   3  19
TORSDOF 8
ENDMDL
MODEL 4
REMARK VINA RESULT:      -8.0      2.112      4.079
REMARK  8 active torsions:
REMARK  status: ('A' for Active; 'I' for Inactive)
REMARK    1  A    between atoms: C20_28  and  O2_3 
REMARK    2  A    between atoms: C8_16  and  O2_3 
REMARK    3  A    between atoms: C18_26  and  O5_6 
REMARK    4  A    between atoms: C1_9  and  N1_8 
REMARK       I    between atoms: C4_12  and  N1_8 
REMARK    5  A    between atoms: C1_9  and  C2_10 
REMARK    6  A    between atoms: C1_9  and  C3_11 
REMARK    7  A    between atoms: C2_10  and  C8_16 
REMARK    8  A    between atoms: C4_12  and  C7_15 
ROOT
HETATM    1  O3  UNK     1      16.631   1.025  34.058  1.00  0.00    -0.267 OA
HETATM    2  N1  UNK     1      18.867   0.415  33.816  1.00  0.00    -0.348 N 
HETATM    3  C4  UNK     1      17.824   1.309  33.978  1.00  0.00     0.258 C 
HETATM    4  H4  UNK     1      19.812   0.770  33.699  1.00  0.00     0.163 HD
ENDROOT
BRANCH   2   5
HETATM    5  C1  UNK     1      18.673  -1.013  33.716  1.00  0.00     0.129 C 
BRANCH   5   6
HETATM    6  C2  UNK     1      19.287  -1.564  32.419  1.00  0.00     0.141 C 
BRANCH   6   7
HETATM    7  C8  UNK     1      19.794  -0.476  31.496  1.00  0.00     0.261 C 
HETATM    8  O4  UNK     1      20.970  -0.209  31.294  1.00  0.00    -0.265 OA
BRANCH   7   9
HETATM    9  O2  UNK     1      18.722   0.144  30.916  1.00  0.00    -0.322 OA
BRANCH   9  10
HETATM   10  C20 UNK     1      19.007   1.387  30.265  1.00  0.00     0.174 C 
HETATM   11  C21 UNK     1      18.338   1.396  28.907  1.00  0.00     0.034 C 
ENDBRANCH   9  10
ENDBRANCH   7   9
ENDBRANCH   6   7
ENDBRANCH   5   6
BRANCH   5  12
HETATM   12  C3  UNK     1      19.228  -1.714  34.941  1.00  0.00    -0.013 A 
HETATM   13  C5  UNK     1      18.496  -1.782  36.114  1.00  0.00     0.042 A 
HETATM   14  C12 UNK     1      19.039  -2.436  37.219  1.00  0.00     0.024 A 
HETATM   15 Cl1  UNK     1      16.925  -1.082  36.255  1.00  0.00    -0.084 Cl
HETATM   16  C15 UNK     1      20.308  -3.012  37.135  1.00  0.00     0.002 A 
HETATM   17  C13 UNK     1      21.032  -2.934  35.945  1.00  0.00     0.001 A 
HETATM   18  C6  UNK     1      20.488  -2.280  34.839  1.00  0.00     0.011 A 
ENDBRANCH   5  12
ENDBRANCH   2   5
BRANCH   3  19
HETATM   19  C7  UNK     1      18.274   2.703  34.056  1.00  0.00     0.108 A 
HETATM   20  C10 UNK     1      17.720   3.553  33.182  1.00  0.00     0.037 A 
HETATM   21  C9  UNK     1      18.103   4.957  33.181  1.00  0.00     0.002 A 
HETATM   22  C11 UNK     1      19.049   5.397  34.101  1.00  0.00     0.089 A 
HETATM   23  C16 UNK     1      17.551   5.878  32.287  1.00  0.00     0.051 A 
HETATM   24  O1  UNK     1      19.629   4.498  35.018  1.00  0.00    -0.274 OA
HETATM   25  C17 UNK     1      19.459   6.727  34.152  1.00  0.00     0.041 A 
HETATM   26  C14 UNK     1      19.283   3.150  35.043  1.00  0.00     0.304 A 
HETATM   27  O6  UNK     1      19.793   2.374  35.844  1.00  0.00    -0.259 OA
HETATM   28  C19 UNK     1      18.904   7.641  33.257  1.00  0.00     0.039 A 
HETATM   29  C18 UNK     1      17.952   7.217  32.327  1.00  0.00     0.069 A 
BRANCH  29  30
HETATM   30  O5  UNK     1      17.412   8.112  31.455  1.00  0.00    -0.356 OA
HETATM   31  C22 UNK     1      15.997   8.295  31.506  1.00  0.00     0.210 C 
ENDBRANCH  29  30
ENDBRANCH   3  19
TORSDOF 8
ENDMDL
MODEL 5
REMARK VINA RESULT:      -8.0     11.794     14.918
REMARK  8 active torsions:
REMARK  status: ('A' for Active; 'I' for Inactive)
REMARK    1  A    between atoms: C20_28  and  O2_3 
REMARK    2  A    between atoms: C8_16  and  O2_3 
REMARK    3  A    between atoms: C18_26  and  O5_6 
REMARK    4  A    between atoms: C1_9  and  N1_8 
REMARK       I    between atoms: C4_12  and  N1_8 
REMARK    5  A    between atoms: C1_9  and  C2_10 
REMARK    6  A    between atoms: C1_9  and  C3_11 
REMARK    7  A    between atoms: C2_10  and  C8_16 
REMARK    8  A    between atoms: C4_12  and  C7_15 
ROOT
HETATM    1  O3  UNK     1      27.234  -8.615  39.820  1.00  0.00    -0.267 OA
HETATM    2  N1  UNK     1      27.560  -7.533  37.782  1.00  0.00    -0.348 N 
HETATM    3  C4  UNK     1      26.834  -7.906  38.899  1.00  0.00     0.258 C 
HETATM    4  H4  UNK     1      27.104  -6.995  37.050  1.00  0.00     0.163 HD
ENDROOT
BRANCH   2   5
HETATM    5  C1  UNK     1      28.926  -7.945  37.555  1.00  0.00     0.129 C 
BRANCH   5   6
HETATM    6  C2  UNK     1      29.103  -8.512  36.138  1.00  0.00     0.141 C 
BRANCH   6   7
HETATM    7  C8  UNK     1      28.868  -7.480  35.054  1.00  0.00     0.261 C 
HETATM    8  O4  UNK     1      27.834  -6.848  34.890  1.00  0.00    -0.265 OA
BRANCH   7   9
HETATM    9  O2  UNK     1      30.005  -7.364  34.303  1.00  0.00    -0.322 OA
BRANCH   9  10
HETATM   10  C20 UNK     1      30.445  -6.024  34.055  1.00  0.00     0.174 C 
HETATM   11  C21 UNK     1      31.817  -5.836  34.666  1.00  0.00     0.034 C 
ENDBRANCH   9  10
ENDBRANCH   7   9
ENDBRANCH   6   7
ENDBRANCH   5   6
BRANCH   5  12
HETATM   12  C3  UNK     1      29.881  -6.799  37.824  1.00  0.00    -0.013 A 
HETATM   13  C5  UNK     1      31.203  -7.038  38.158  1.00  0.00     0.042 A 
HETATM   14  C12 UNK     1      32.052  -5.957  38.397  1.00  0.00     0.024 A 
HETATM   15 Cl1  UNK     1      31.840  -8.636  38.289  1.00  0.00    -0.084 Cl
HETATM   16  C15 UNK     1      31.565  -4.653  38.299  1.00  0.00     0.002 A 
HETATM   17  C13 UNK     1      30.230  -4.431  37.961  1.00  0.00     0.001 A 
HETATM   18  C6  UNK     1      29.381  -5.511  37.721  1.00  0.00     0.011 A 
ENDBRANCH   5  12
ENDBRANCH   2   5
BRANCH   3  19
HETATM   19  C7  UNK     1      25.472  -7.360  38.903  1.00  0.00     0.108 A 
HETATM   20  C10 UNK     1      24.478  -8.254  38.981  1.00  0.00     0.037 A 
HETATM   21  C9  UNK     1      23.092  -7.809  38.992  1.00  0.00     0.002 A 
HETATM   22  C11 UNK     1      22.823  -6.446  38.921  1.00  0.00     0.089 A 
HETATM   23  C16 UNK     1      22.023  -8.705  39.071  1.00  0.00     0.051 A 
HETATM   24  O1  UNK     1      23.873  -5.511  38.840  1.00  0.00    -0.274 OA
HETATM   25  C17 UNK     1      21.519  -5.955  38.927  1.00  0.00     0.041 A 
HETATM   26  C14 UNK     1      25.208  -5.906  38.827  1.00  0.00     0.304 A 
HETATM   27  O6  UNK     1      26.117  -5.086  38.755  1.00  0.00    -0.259 OA
HETATM   28  C19 UNK     1      20.458  -6.854  39.006  1.00  0.00     0.039 A 
HETATM   29  C18 UNK     1      20.709  -8.226  39.079  1.00  0.00     0.069 A 
BRANCH  29  30
HETATM   30  O5  UNK     1      19.670  -9.103  39.157  1.00  0.00    -0.356 OA
HETATM   31  C22 UNK     1      19.759 -10.287  38.364  1.00  0.00     0.210 C 
ENDBRANCH  29  30
ENDBRANCH   3  19
TORSDOF 8
ENDMDL
MODEL 6
REMARK VINA RESULT:      -7.9      5.436     11.224
REMARK  8 active torsions:
REMARK  status: ('A' for Active; 'I' for Inactive)
REMARK    1  A    between atoms: C20_28  and  O2_3 
REMARK    2  A    between atoms: C8_16  and  O2_3 
REMARK    3  A    between atoms: C18_26  and  O5_6 
REMARK    4  A    between atoms: C1_9  and  N1_8 
REMARK       I    between atoms: C4_12  and  N1_8 
REMARK    5  A    between atoms: C1_9  and  C2_10 
REMARK    6  A    between atoms: C1_9  and  C3_11 
REMARK    7  A    between atoms: C2_10  and  C8_16 
REMARK    8  A    between atoms: C4_12  and  C7_15 
ROOT
HETATM    1  O3  UNK     1      21.139  -3.587  36.673  1.00  0.00    -0.267 OA
HETATM    2  N1  UNK     1      19.164  -3.342  35.460  1.00  0.00    -0.348 N 
HETATM    3  C4  UNK     1      20.086  -4.035  36.224  1.00  0.00     0.258 C 
HETATM    4  H4  UNK     1      18.356  -3.833  35.088  1.00  0.00     0.163 HD
ENDROOT
BRANCH   2   5
HETATM    5  C1  UNK     1      19.334  -1.957  35.084  1.00  0.00     0.129 C 
BRANCH   5   6
HETATM    6  C2  UNK     1      19.591  -1.822  33.575  1.00  0.00     0.141 C 
BRANCH   6   7
HETATM    7  C8  UNK     1      21.001  -2.208  33.178  1.00  0.00     0.261 C 
HETATM    8  O4  UNK     1      21.976  -2.186  33.916  1.00  0.00    -0.265 OA
BRANCH   7   9
HETATM    9  O2  UNK     1      20.998  -2.598  31.867  1.00  0.00    -0.322 OA
BRANCH   9  10
HETATM   10  C20 UNK     1      19.929  -2.076  31.071  1.00  0.00     0.174 C 
HETATM   11  C21 UNK     1      20.445  -1.796  29.675  1.00  0.00     0.034 C 
ENDBRANCH   9  10
ENDBRANCH   7   9
ENDBRANCH   6   7
ENDBRANCH   5   6
BRANCH   5  12
HETATM   12  C3  UNK     1      18.140  -1.134  35.525  1.00  0.00    -0.013 A 
HETATM   13  C5  UNK     1      17.853  -0.960  36.868  1.00  0.00     0.042 A 
HETATM   14  C12 UNK     1      16.746  -0.195  37.235  1.00  0.00     0.024 A 
HETATM   15 Cl1  UNK     1      18.824  -1.662  38.110  1.00  0.00    -0.084 Cl
HETATM   16  C15 UNK     1      15.942   0.385  36.253  1.00  0.00     0.002 A 
HETATM   17  C13 UNK     1      16.246   0.200  34.904  1.00  0.00     0.001 A 
HETATM   18  C6  UNK     1      17.354  -0.565  34.537  1.00  0.00     0.011 A 
ENDBRANCH   5  12
ENDBRANCH   2   5
BRANCH   3  19
HETATM   19  C7  UNK     1      19.689  -5.425  36.475  1.00  0.00     0.108 A 
HETATM   20  C10 UNK     1      20.661  -6.342  36.392  1.00  0.00     0.037 A 
HETATM   21  C9  UNK     1      20.365  -7.747  36.625  1.00  0.00     0.002 A 
HETATM   22  C11 UNK     1      19.061  -8.118  36.933  1.00  0.00     0.089 A 
HETATM   23  C16 UNK     1      21.348  -8.737  36.549  1.00  0.00     0.051 A 
HETATM   24  O1  UNK     1      18.041  -7.149  37.019  1.00  0.00    -0.274 OA
HETATM   25  C17 UNK     1      18.711  -9.446  37.166  1.00  0.00     0.041 A 
HETATM   26  C14 UNK     1      18.294  -5.797  36.801  1.00  0.00     0.304 A 
HETATM   27  O6  UNK     1      17.401  -4.960  36.876  1.00  0.00    -0.259 OA
HETATM   28  C19 UNK     1      19.697 -10.428  37.089  1.00  0.00     0.039 A 
HETATM   29  C18 UNK     1      21.013 -10.075  36.781  1.00  0.00     0.069 A 
BRANCH  29  30
HETATM   30  O5  UNK     1      21.974 -11.037  36.707  1.00  0.00    -0.356 OA
HETATM   31  C22 UNK     1      22.948 -10.901  35.673  1.00  0.00     0.210 C 
ENDBRANCH  29  30
ENDBRANCH   3  19
TORSDOF 8
ENDMDL
MODEL 7
REMARK VINA RESULT:      -7.8     10.979     14.080
REMARK  8 active torsions:
REMARK  status: ('A' for Active; 'I' for Inactive)
REMARK    1  A    between atoms: C20_28  and  O2_3 
REMARK    2  A    between atoms: C8_16  and  O2_3 
REMARK    3  A    between atoms: C18_26  and  O5_6 
REMARK    4  A    between atoms: C1_9  and  N1_8 
REMARK       I    between atoms: C4_12  and  N1_8 
REMARK    5  A    between atoms: C1_9  and  C2_10 
REMARK    6  A    between atoms: C1_9  and  C3_11 
REMARK    7  A    between atoms: C2_10  and  C8_16 
REMARK    8  A    between atoms: C4_12  and  C7_15 
ROOT
HETATM    1  O3  UNK     1      25.620  -9.259  38.105  1.00  0.00    -0.267 OA
HETATM    2  N1  UNK     1      24.107  -7.555  38.597  1.00  0.00    -0.348 N 
HETATM    3  C4  UNK     1      25.365  -8.086  38.373  1.00  0.00     0.258 C 
HETATM    4  H4  UNK     1      24.021  -6.581  38.874  1.00  0.00     0.163 HD
ENDROOT
BRANCH   2   5
HETATM    5  C1  UNK     1      22.897  -8.343  38.542  1.00  0.00     0.129 C 
BRANCH   5   6
HETATM    6  C2  UNK     1      22.085  -8.198  39.838  1.00  0.00     0.141 C 
BRANCH   6   7
HETATM    7  C8  UNK     1      20.633  -8.600  39.675  1.00  0.00     0.261 C 
HETATM    8  O4  UNK     1      19.670  -7.870  39.863  1.00  0.00    -0.265 OA
BRANCH   7   9
HETATM    9  O2  UNK     1      20.581  -9.905  39.269  1.00  0.00    -0.322 OA
BRANCH   9  10
HETATM   10  C20 UNK     1      19.336 -10.323  38.697  1.00  0.00     0.174 C 
HETATM   11  C21 UNK     1      19.610 -11.042  37.393  1.00  0.00     0.034 C 
ENDBRANCH   9  10
ENDBRANCH   7   9
ENDBRANCH   6   7
ENDBRANCH   5   6
BRANCH   5  12
HETATM   12  C3  UNK     1      22.077  -7.975  37.322  1.00  0.00    -0.013 A 
HETATM   13  C5  UNK     1      22.029  -8.809  36.218  1.00  0.00     0.042 A 
HETATM   14  C12 UNK     1      21.262  -8.437  35.114  1.00  0.00     0.024 A 
HETATM   15 Cl1  UNK     1      22.892 -10.303  36.161  1.00  0.00    -0.084 Cl
HETATM   16  C15 UNK     1      20.553  -7.235  35.131  1.00  0.00     0.002 A 
HETATM   17  C13 UNK     1      20.612  -6.406  36.251  1.00  0.00     0.001 A 
HETATM   18  C6  UNK     1      21.379  -6.779  37.355  1.00  0.00     0.011 A 
ENDBRANCH   5  12
ENDBRANCH   2   5
BRANCH   3  19
HETATM   19  C7  UNK     1      26.434  -7.088  38.482  1.00  0.00     0.108 A 
HETATM   20  C10 UNK     1      27.685  -7.544  38.343  1.00  0.00     0.037 A 
HETATM   21  C9  UNK     1      28.813  -6.629  38.436  1.00  0.00     0.002 A 
HETATM   22  C11 UNK     1      28.568  -5.280  38.670  1.00  0.00     0.089 A 
HETATM   23  C16 UNK     1      30.135  -7.061  38.298  1.00  0.00     0.051 A 
HETATM   24  O1  UNK     1      27.250  -4.806  38.816  1.00  0.00    -0.274 OA
HETATM   25  C17 UNK     1      29.603  -4.353  38.771  1.00  0.00     0.041 A 
HETATM   26  C14 UNK     1      26.150  -5.657  38.732  1.00  0.00     0.304 A 
HETATM   27  O6  UNK     1      25.006  -5.236  38.861  1.00  0.00    -0.259 OA
HETATM   28  C19 UNK     1      30.919  -4.791  38.632  1.00  0.00     0.039 A 
HETATM   29  C18 UNK     1      31.184  -6.142  38.395  1.00  0.00     0.069 A 
BRANCH  29  30
HETATM   30  O5  UNK     1      32.471  -6.567  38.259  1.00  0.00    -0.356 OA
HETATM   31  C22 UNK     1      32.674  -7.826  37.619  1.00  0.00     0.210 C 
ENDBRANCH  29  30
ENDBRANCH   3  19
TORSDOF 8
ENDMDL
MODEL 8
REMARK VINA RESULT:      -7.8      3.992      6.557
REMARK  8 active torsions:
REMARK  status: ('A' for Active; 'I' for Inactive)
REMARK    1  A    between atoms: C20_28  and  O2_3 
REMARK    2  A    between atoms: C8_16  and  O2_3 
REMARK    3  A    between atoms: C18_26  and  O5_6 
REMARK    4  A    between atoms: C1_9  and  N1_8 
REMARK       I    between atoms: C4_12  and  N1_8 
REMARK    5  A    between atoms: C1_9  and  C2_10 
REMARK    6  A    between atoms: C1_9  and  C3_11 
REMARK    7  A    between atoms: C2_10  and  C8_16 
REMARK    8  A    between atoms: C4_12  and  C7_15 
ROOT
HETATM    1  O3  UNK     1      16.685   7.971  30.542  1.00  0.00    -0.267 OA
HETATM    2  N1  UNK     1      17.339   6.585  32.298  1.00  0.00    -0.348 N 
HETATM    3  C4  UNK     1      16.680   7.662  31.732  1.00  0.00     0.258 C 
HETATM    4  H4  UNK     1      17.316   6.462  33.306  1.00  0.00     0.163 HD
ENDROOT
BRANCH   2   5
HETATM    5  C1  UNK     1      18.142   5.660  31.531  1.00  0.00     0.129 C 
BRANCH   5   6
HETATM    6  C2  UNK     1      19.548   6.228  31.279  1.00  0.00     0.141 C 
BRANCH   6   7
HETATM    7  C8  UNK     1      20.251   6.654  32.552  1.00  0.00     0.261 C 
HETATM    8  O4  UNK     1      21.223   6.098  33.045  1.00  0.00    -0.265 OA
BRANCH   7   9
HETATM    9  O2  UNK     1      19.629   7.768  33.046  1.00  0.00    -0.322 OA
BRANCH   9  10
HETATM   10  C20 UNK     1      19.865   8.041  34.431  1.00  0.00     0.174 C 
HETATM   11  C21 UNK     1      20.451   9.430  34.567  1.00  0.00     0.034 C 
ENDBRANCH   9  10
ENDBRANCH   7   9
ENDBRANCH   6   7
ENDBRANCH   5   6
BRANCH   5  12
HETATM   12  C3  UNK     1      18.197   4.308  32.214  1.00  0.00    -0.013 A 
HETATM   13  C5  UNK     1      18.343   3.145  31.478  1.00  0.00     0.042 A 
HETATM   14  C12 UNK     1      18.391   1.919  32.142  1.00  0.00     0.024 A 
HETATM   15 Cl1  UNK     1      18.468   3.160  29.757  1.00  0.00    -0.084 Cl
HETATM   16  C15 UNK     1      18.292   1.876  33.533  1.00  0.00     0.002 A 
HETATM   17  C13 UNK     1      18.146   3.058  34.259  1.00  0.00     0.001 A 
HETATM   18  C6  UNK     1      18.099   4.284  33.595  1.00  0.00     0.011 A 
ENDBRANCH   5  12
ENDBRANCH   2   5
BRANCH   3  19
HETATM   19  C7  UNK     1      15.929   8.452  32.714  1.00  0.00     0.108 A 
HETATM   20  C10 UNK     1      16.542   9.545  33.186  1.00  0.00     0.037 A 
HETATM   21  C9  UNK     1      15.877  10.392  34.164  1.00  0.00     0.002 A 
HETATM   22  C11 UNK     1      14.600  10.048  34.597  1.00  0.00     0.089 A 
HETATM   23  C16 UNK     1      16.478  11.542  34.684  1.00  0.00     0.051 A 
HETATM   24  O1  UNK     1      13.961   8.896  34.096  1.00  0.00    -0.274 OA
HETATM   25  C17 UNK     1      13.910  10.816  35.531  1.00  0.00     0.041 A 
HETATM   26  C14 UNK     1      14.571   8.066  33.160  1.00  0.00     0.304 A 
HETATM   27  O6  UNK     1      14.008   7.065  32.730  1.00  0.00    -0.259 OA
HETATM   28  C19 UNK     1      14.516  11.961  36.046  1.00  0.00     0.039 A 
HETATM   29  C18 UNK     1      15.797  12.323  35.623  1.00  0.00     0.069 A 
BRANCH  29  30
HETATM   30  O5  UNK     1      16.385  13.443  36.127  1.00  0.00    -0.356 OA
HETATM   31  C22 UNK     1      15.854  13.963  37.345  1.00  0.00     0.210 C 
ENDBRANCH  29  30
ENDBRANCH   3  19
TORSDOF 8
ENDMDL
MODEL 9
REMARK VINA RESULT:      -7.8     15.110     16.659
REMARK  8 active torsions:
REMARK  status: ('A' for Active; 'I' for Inactive)
REMARK    1  A    between atoms: C20_28  and  O2_3 
REMARK    2  A    between atoms: C8_16  and  O2_3 
REMARK    3  A    between atoms: C18_26  and  O5_6 
REMARK    4  A    between atoms: C1_9  and  N1_8 
REMARK       I    between atoms: C4_12  and  N1_8 
REMARK    5  A    between atoms: C1_9  and  C2_10 
REMARK    6  A    between atoms: C1_9  and  C3_11 
REMARK    7  A    between atoms: C2_10  and  C8_16 
REMARK    8  A    between atoms: C4_12  and  C7_15 
ROOT
HETATM    1  O3  UNK     1      31.665  -8.533  35.892  1.00  0.00    -0.267 OA
HETATM    2  N1  UNK     1      30.047  -6.988  36.546  1.00  0.00    -0.348 N 
HETATM    3  C4  UNK     1      30.815  -7.684  35.630  1.00  0.00     0.258 C 
HETATM    4  H4  UNK     1      29.418  -6.261  36.217  1.00  0.00     0.163 HD
ENDROOT
BRANCH   2   5
HETATM    5  C1  UNK     1      30.154  -7.181  37.974  1.00  0.00     0.129 C 
BRANCH   5   6
HETATM    6  C2  UNK     1      30.283  -5.836  38.705  1.00  0.00     0.141 C 
BRANCH   6   7
HETATM    7  C8  UNK     1      31.251  -4.886  38.030  1.00  0.00     0.261 C 
HETATM    8  O4  UNK     1      30.941  -3.983  37.266  1.00  0.00    -0.265 OA
BRANCH   7   9
HETATM    9  O2  UNK     1      32.522  -5.196  38.429  1.00  0.00    -0.322 OA
BRANCH   9  10
HETATM   10  C20 UNK     1      33.423  -5.567  37.381  1.00  0.00     0.174 C 
HETATM   11  C21 UNK     1      34.054  -6.900  37.722  1.00  0.00     0.034 C 
ENDBRANCH   9  10
ENDBRANCH   7   9
ENDBRANCH   6   7
ENDBRANCH   5   6
BRANCH   5  12
HETATM   12  C3  UNK     1      28.982  -7.991  38.492  1.00  0.00    -0.013 A 
HETATM   13  C5  UNK     1      29.130  -9.328  38.819  1.00  0.00     0.042 A 
HETATM   14  C12 UNK     1      28.029 -10.040  39.294  1.00  0.00     0.024 A 
HETATM   15 Cl1  UNK     1      30.640 -10.148  38.659  1.00  0.00    -0.084 Cl
HETATM   16  C15 UNK     1      26.795  -9.404  39.434  1.00  0.00     0.002 A 
HETATM   17  C13 UNK     1      26.663  -8.056  39.099  1.00  0.00     0.001 A 
HETATM   18  C6  UNK     1      27.765  -7.344  38.625  1.00  0.00     0.011 A 
ENDBRANCH   5  12
ENDBRANCH   2   5
BRANCH   3  19
HETATM   19  C7  UNK     1      30.522  -7.314  34.241  1.00  0.00     0.108 A 
HETATM   20  C10 UNK     1      29.825  -8.206  33.526  1.00  0.00     0.037 A 
HETATM   21  C9  UNK     1      29.486  -7.929  32.139  1.00  0.00     0.002 A 
HETATM   22  C11 UNK     1      29.897  -6.727  31.572  1.00  0.00     0.089 A 
HETATM   23  C16 UNK     1      28.760  -8.830  31.355  1.00  0.00     0.051 A 
HETATM   24  O1  UNK     1      30.630  -5.792  32.329  1.00  0.00    -0.274 OA
HETATM   25  C17 UNK     1      29.605  -6.401  30.249  1.00  0.00     0.041 A 
HETATM   26  C14 UNK     1      30.970  -6.029  33.659  1.00  0.00     0.304 A 
HETATM   27  O6  UNK     1      31.609  -5.210  34.310  1.00  0.00    -0.259 OA
HETATM   28  C19 UNK     1      28.881  -7.306  29.474  1.00  0.00     0.039 A 
HETATM   29  C18 UNK     1      28.459  -8.517  30.026  1.00  0.00     0.069 A 
BRANCH  29  30
HETATM   30  O5  UNK     1      27.751  -9.398  29.266  1.00  0.00    -0.356 OA
HETATM   31  C22 UNK     1      28.479 -10.142  28.289  1.00  0.00     0.210 C 
ENDBRANCH  29  30
ENDBRANCH   3  19
TORSDOF 8
ENDMDL
MODEL 10
REMARK VINA RESULT:      -7.7     10.266     13.782
REMARK  8 active torsions:
REMARK  status: ('A' for Active; 'I' for Inactive)
REMARK    1  A    between atoms: C20_28  and  O2_3 
REMARK    2  A    between atoms: C8_16  and  O2_3 
REMARK    3  A    between atoms: C18_26  and  O5_6 
REMARK    4  A    between atoms: C1_9  and  N1_8 
REMARK       I    between atoms: C4_12  and  N1_8 
REMARK    5  A    between atoms: C1_9  and  C2_10 
REMARK    6  A    between atoms: C1_9  and  C3_11 
REMARK    7  A    between atoms: C2_10  and  C8_16 
REMARK    8  A    between atoms: C4_12  and  C7_15 
ROOT
HETATM    1  O3  UNK     1      23.778  -8.877  39.986  1.00  0.00    -0.267 OA
HETATM    2  N1  UNK     1      22.843  -7.382  38.461  1.00  0.00    -0.348 N 
HETATM    3  C4  UNK     1      23.869  -7.923  39.215  1.00  0.00     0.258 C 
HETATM    4  H4  UNK     1      23.020  -6.551  37.905  1.00  0.00     0.163 HD
ENDROOT
BRANCH   2   5
HETATM    5  C1  UNK     1      21.491  -7.891  38.489  1.00  0.00     0.129 C 
BRANCH   5   6
HETATM    6  C2  UNK     1      20.470  -6.756  38.308  1.00  0.00     0.141 C 
BRANCH   6   7
HETATM    7  C8  UNK     1      20.873  -5.764  37.236  1.00  0.00     0.261 C 
HETATM    8  O4  UNK     1      21.789  -4.959  37.324  1.00  0.00    -0.265 OA
BRANCH   7   9
HETATM    9  O2  UNK     1      20.054  -5.930  36.153  1.00  0.00    -0.322 OA
BRANCH   9  10
HETATM   10  C20 UNK     1      18.722  -6.365  36.448  1.00  0.00     0.174 C 
HETATM   11  C21 UNK     1      18.328  -7.446  35.465  1.00  0.00     0.034 C 
ENDBRANCH   9  10
ENDBRANCH   7   9
ENDBRANCH   6   7
ENDBRANCH   5   6
BRANCH   5  12
HETATM   12  C3  UNK     1      21.309  -8.980  37.451  1.00  0.00    -0.013 A 
HETATM   13  C5  UNK     1      20.441 -10.035  37.671  1.00  0.00     0.042 A 
HETATM   14  C12 UNK     1      20.299 -11.018  36.691  1.00  0.00     0.024 A 
HETATM   15 Cl1  UNK     1      19.522 -10.177  39.125  1.00  0.00    -0.084 Cl
HETATM   16  C15 UNK     1      21.029 -10.930  35.505  1.00  0.00     0.002 A 
HETATM   17  C13 UNK     1      21.899  -9.859  35.299  1.00  0.00     0.001 A 
HETATM   18  C6  UNK     1      22.040  -8.876  36.279  1.00  0.00     0.011 A 
ENDBRANCH   5  12
ENDBRANCH   2   5
BRANCH   3  19
HETATM   19  C7  UNK     1      25.149  -7.236  39.014  1.00  0.00     0.108 A 
HETATM   20  C10 UNK     1      26.217  -8.020  38.818  1.00  0.00     0.037 A 
HETATM   21  C9  UNK     1      27.530  -7.431  38.608  1.00  0.00     0.002 A 
HETATM   22  C11 UNK     1      27.656  -6.046  38.616  1.00  0.00     0.089 A 
HETATM   23  C16 UNK     1      28.671  -8.210  38.400  1.00  0.00     0.051 A 
HETATM   24  O1  UNK     1      26.529  -5.225  38.823  1.00  0.00    -0.274 OA
HETATM   25  C17 UNK     1      28.885  -5.419  38.422  1.00  0.00     0.041 A 
HETATM   26  C14 UNK     1      25.259  -5.760  39.026  1.00  0.00     0.304 A 
HETATM   27  O6  UNK     1      24.284  -5.039  39.207  1.00  0.00    -0.259 OA
HETATM   28  C19 UNK     1      30.018  -6.203  38.215  1.00  0.00     0.039 A 
HETATM   29  C18 UNK     1      29.911  -7.596  38.203  1.00  0.00     0.069 A 
BRANCH  29  30
HETATM   30  O5  UNK     1      31.021  -8.359  38.000  1.00  0.00    -0.356 OA
HETATM   31  C22 UNK     1      32.282  -7.763  38.303  1.00  0.00     0.210 C 
ENDBRANCH  29  30
ENDBRANCH   3  19
TORSDOF 8
ENDMDL
