MODEL 1
REMARK VINA RESULT:      -8.3      0.000      0.000
REMARK  6 active torsions:
REMARK  status: ('A' for Active; 'I' for Inactive)
REMARK    1  A    between atoms: C14_20  and  O3_3 
REMARK    2  A    between atoms: C20_26  and  O3_3 
REMARK    3  A    between atoms: C12_18  and  C6_12 
REMARK    4  A    between atoms: C10_16  and  C14_20 
REMARK    5  A    between atoms: C20_26  and  C22_28 
REMARK    6  A    between atoms: C22_28  and  C25_31 
ROOT
HETATM    1  O1  UNK     1      29.169  -7.482  36.089  1.00  0.00    -0.293 OA
HETATM    2  N1  UNK     1      32.935  -4.672  35.497  1.00  0.00    -0.362 N 
HETATM    3  C1  UNK     1      30.383  -4.849  38.267  1.00  0.00    -0.036 C 
HETATM    4  C2  UNK     1      31.320  -4.139  37.269  1.00  0.00     0.067 C 
HETATM    5  C3  UNK     1      29.259  -5.553  37.493  1.00  0.00     0.092 C 
HETATM    6  C4  UNK     1      31.739  -5.003  36.106  1.00  0.00     0.021 C 
HETATM    7  C5  UNK     1      31.034  -6.073  35.682  1.00  0.00     0.024 C 
HETATM    8  C6  UNK     1      31.504  -6.910  34.493  1.00  0.00     0.104 C 
HETATM    9  C7  UNK     1      29.784  -6.464  36.403  1.00  0.00     0.159 C 
HETATM   10  C8  UNK     1      29.770  -3.805  39.216  1.00  0.00     0.015 C 
HETATM   11  C9  UNK     1      31.169  -5.869  39.120  1.00  0.00     0.015 C 
HETATM   12  C10 UNK     1      32.926  -6.549  34.055  1.00  0.00     0.052 C 
HETATM   13  C11 UNK     1      33.556  -5.452  34.534  1.00  0.00     0.018 C 
HETATM   14  C13 UNK     1      34.925  -4.982  34.121  1.00  0.00     0.069 C 
HETATM   15  H12 UNK     1      33.435  -3.862  35.843  1.00  0.00     0.165 HD
ENDROOT
BRANCH   8  16
HETATM   16  C12 UNK     1      30.549  -6.766  33.333  1.00  0.00     0.029 A 
HETATM   17  C15 UNK     1      29.828  -7.973  32.856  1.00  0.00     0.194 A 
HETATM   18  O5  UNK     1      29.982  -9.072  33.373  1.00  0.00    -0.287 OA
HETATM   19  C17 UNK     1      28.910  -7.778  31.718  1.00  0.00     0.048 A 
HETATM   20  C18 UNK     1      28.773  -6.502  31.168  1.00  0.00     0.089 A 
HETATM   21  C19 UNK     1      28.184  -8.851  31.196  1.00  0.00     0.018 A 
HETATM   22  O2  UNK     1      29.460  -5.413  31.641  1.00  0.00    -0.321 OA
HETATM   23  C21 UNK     1      27.910  -6.295  30.092  1.00  0.00     0.038 A 
HETATM   24  C16 UNK     1      30.312  -5.611  32.701  1.00  0.00     0.154 A 
HETATM   25  C24 UNK     1      27.184  -7.365  29.569  1.00  0.00     0.003 A 
HETATM   26  C23 UNK     1      27.322  -8.641  30.120  1.00  0.00     0.001 A 
ENDBRANCH   8  16
BRANCH  12  27
HETATM   27  C14 UNK     1      33.592  -7.483  33.132  1.00  0.00     0.292 C 
HETATM   28  O4  UNK     1      33.919  -8.613  33.445  1.00  0.00    -0.259 OA
BRANCH  27  29
HETATM   29  O3  UNK     1      33.752  -6.864  31.938  1.00  0.00    -0.317 OA
BRANCH  29  30
HETATM   30  C20 UNK     1      33.617  -7.710  30.792  1.00  0.00     0.183 C 
BRANCH  30  31
HETATM   31  C22 UNK     1      32.352  -7.341  30.025  1.00  0.00     0.065 C 
BRANCH  31  32
HETATM   32  C25 UNK     1      31.589  -8.558  29.559  1.00  0.00    -0.056 A 
HETATM   33  C26 UNK     1      30.777  -8.462  28.441  1.00  0.00     0.007 A 
HETATM   34  C28 UNK     1      30.072  -9.586  28.009  1.00  0.00     0.001 A 
HETATM   35  C30 UNK     1      30.188 -10.791  28.703  1.00  0.00     0.000 A 
HETATM   36  C29 UNK     1      31.009 -10.871  29.827  1.00  0.00     0.001 A 
HETATM   37  C27 UNK     1      31.715  -9.748  30.258  1.00  0.00     0.007 A 
ENDBRANCH  31  32
ENDBRANCH  30  31
ENDBRANCH  29  30
ENDBRANCH  27  29
ENDBRANCH  12  27
TORSDOF 6
ENDMDL
MODEL 2
REMARK VINA RESULT:      -8.2      2.553      3.489
REMARK  6 active torsions:
REMARK  status: ('A' for Active; 'I' for Inactive)
REMARK    1  A    between atoms: C14_20  and  O3_3 
REMARK    2  A    between atoms: C20_26  and  O3_3 
REMARK    3  A    between atoms: C12_18  and  C6_12 
REMARK    4  A    between atoms: C10_16  and  C14_20 
REMARK    5  A    between atoms: C20_26  and  C22_28 
REMARK    6  A    between atoms: C22_28  and  C25_31 
ROOT
HETATM    1  O1  UNK     1      27.320 -10.240  35.904  1.00  0.00    -0.293 OA
HETATM    2  N1  UNK     1      28.569  -5.919  37.390  1.00  0.00    -0.362 N 
HETATM    3  C1  UNK     1      25.853  -8.257  38.563  1.00  0.00    -0.036 C 
HETATM    4  C2  UNK     1      26.458  -6.889  38.191  1.00  0.00     0.067 C 
HETATM    5  C3  UNK     1      25.737  -9.120  37.299  1.00  0.00     0.092 C 
HETATM    6  C4  UNK     1      27.688  -6.982  37.322  1.00  0.00     0.021 C 
HETATM    7  C5  UNK     1      27.968  -8.048  36.542  1.00  0.00     0.024 C 
HETATM    8  C6  UNK     1      29.227  -8.086  35.678  1.00  0.00     0.104 C 
HETATM    9  C7  UNK     1      27.045  -9.224  36.542  1.00  0.00     0.159 C 
HETATM   10  C8  UNK     1      24.452  -8.044  39.164  1.00  0.00     0.015 C 
HETATM   11  C9  UNK     1      26.724  -8.968  39.622  1.00  0.00     0.015 C 
HETATM   12  C10 UNK     1      30.191  -6.943  36.005  1.00  0.00     0.052 C 
HETATM   13  C11 UNK     1      29.822  -5.912  36.799  1.00  0.00     0.018 C 
HETATM   14  C13 UNK     1      30.674  -4.717  37.131  1.00  0.00     0.069 C 
HETATM   15  H12 UNK     1      28.323  -5.137  37.986  1.00  0.00     0.165 HD
ENDROOT
BRANCH   8  16
HETATM   16  C12 UNK     1      28.865  -8.058  34.213  1.00  0.00     0.029 A 
HETATM   17  C15 UNK     1      29.372  -9.145  33.337  1.00  0.00     0.194 A 
HETATM   18  O5  UNK     1      30.067 -10.056  33.765  1.00  0.00    -0.287 OA
HETATM   19  C17 UNK     1      28.991  -9.067  31.914  1.00  0.00     0.048 A 
HETATM   20  C18 UNK     1      28.197  -8.005  31.481  1.00  0.00     0.089 A 
HETATM   21  C19 UNK     1      29.418 -10.042  31.008  1.00  0.00     0.018 A 
HETATM   22  O2  UNK     1      27.750  -7.021  32.326  1.00  0.00    -0.321 OA
HETATM   23  C21 UNK     1      27.825  -7.912  30.139  1.00  0.00     0.038 A 
HETATM   24  C16 UNK     1      28.113  -7.105  33.648  1.00  0.00     0.154 A 
HETATM   25  C24 UNK     1      28.249  -8.885  29.234  1.00  0.00     0.003 A 
HETATM   26  C23 UNK     1      29.044  -9.947  29.668  1.00  0.00     0.001 A 
ENDBRANCH   8  16
BRANCH  12  27
HETATM   27  C14 UNK     1      31.556  -7.051  35.461  1.00  0.00     0.292 C 
HETATM   28  O4  UNK     1      32.388  -7.827  35.892  1.00  0.00    -0.259 OA
BRANCH  27  29
HETATM   29  O3  UNK     1      31.682  -6.163  34.446  1.00  0.00    -0.317 OA
BRANCH  29  30
HETATM   30  C20 UNK     1      32.254  -6.692  33.246  1.00  0.00     0.183 C 
BRANCH  30  31
HETATM   31  C22 UNK     1      31.402  -6.289  32.047  1.00  0.00     0.065 C 
BRANCH  31  32
HETATM   32  C25 UNK     1      31.732  -7.092  30.812  1.00  0.00    -0.056 A 
HETATM   33  C26 UNK     1      31.224  -6.694  29.587  1.00  0.00     0.007 A 
HETATM   34  C28 UNK     1      31.528  -7.436  28.446  1.00  0.00     0.001 A 
HETATM   35  C30 UNK     1      32.337  -8.568  28.546  1.00  0.00     0.000 A 
HETATM   36  C29 UNK     1      32.840  -8.958  29.787  1.00  0.00     0.001 A 
HETATM   37  C27 UNK     1      32.536  -8.215  30.928  1.00  0.00     0.007 A 
ENDBRANCH  31  32
ENDBRANCH  30  31
ENDBRANCH  29  30
ENDBRANCH  27  29
ENDBRANCH  12  27
TORSDOF 6
ENDMDL
MODEL 3
REMARK VINA RESULT:      -8.1      2.190      6.270
REMARK  6 active torsions:
REMARK  status: ('A' for Active; 'I' for Inactive)
REMARK    1  A    between atoms: C14_20  and  O3_3 
REMARK    2  A    between atoms: C20_26  and  O3_3 
REMARK    3  A    between atoms: C12_18  and  C6_12 
REMARK    4  A    between atoms: C10_16  and  C14_20 
REMARK    5  A    between atoms: C20_26  and  C22_28 
REMARK    6  A    between atoms: C22_28  and  C25_31 
ROOT
HETATM    1  O1  UNK     1      32.080  -5.401  33.583  1.00  0.00    -0.293 OA
HETATM    2  N1  UNK     1      32.603  -9.044  36.565  1.00  0.00    -0.362 N 
HETATM    3  C1  UNK     1      35.131  -6.677  35.071  1.00  0.00    -0.036 C 
HETATM    4  C2  UNK     1      34.602  -8.048  35.541  1.00  0.00     0.067 C 
HETATM    5  C3  UNK     1      34.311  -6.206  33.862  1.00  0.00     0.092 C 
HETATM    6  C4  UNK     1      33.101  -8.107  35.678  1.00  0.00     0.021 C 
HETATM    7  C5  UNK     1      32.261  -7.280  35.021  1.00  0.00     0.024 C 
HETATM    8  C6  UNK     1      30.747  -7.389  35.194  1.00  0.00     0.104 C 
HETATM    9  C7  UNK     1      32.820  -6.220  34.127  1.00  0.00     0.159 C 
HETATM   10  C8  UNK     1      36.608  -6.819  34.661  1.00  0.00     0.015 C 
HETATM   11  C9  UNK     1      35.050  -5.641  36.214  1.00  0.00     0.015 C 
HETATM   12  C10 UNK     1      30.360  -8.325  36.343  1.00  0.00     0.052 C 
HETATM   13  C11 UNK     1      31.273  -9.121  36.944  1.00  0.00     0.018 C 
HETATM   14  C13 UNK     1      30.980 -10.114  38.036  1.00  0.00     0.069 C 
HETATM   15  H12 UNK     1      33.266  -9.648  37.038  1.00  0.00     0.165 HD
ENDROOT
BRANCH   8  16
HETATM   16  C12 UNK     1      30.098  -7.846  33.911  1.00  0.00     0.029 A 
HETATM   17  C15 UNK     1      28.984  -7.037  33.353  1.00  0.00     0.194 A 
HETATM   18  O5  UNK     1      28.581  -6.019  33.900  1.00  0.00    -0.287 OA
HETATM   19  C17 UNK     1      28.384  -7.529  32.099  1.00  0.00     0.048 A 
HETATM   20  C18 UNK     1      28.883  -8.696  31.520  1.00  0.00     0.089 A 
HETATM   21  C19 UNK     1      27.330  -6.839  31.495  1.00  0.00     0.018 A 
HETATM   22  O2  UNK     1      29.916  -9.413  32.069  1.00  0.00    -0.321 OA
HETATM   23  C21 UNK     1      28.331  -9.179  30.334  1.00  0.00     0.038 A 
HETATM   24  C16 UNK     1      30.465  -8.943  33.238  1.00  0.00     0.154 A 
HETATM   25  C24 UNK     1      27.279  -8.491  29.728  1.00  0.00     0.003 A 
HETATM   26  C23 UNK     1      26.780  -7.324  30.309  1.00  0.00     0.001 A 
ENDBRANCH   8  16
BRANCH  12  27
HETATM   27  C14 UNK     1      28.960  -8.272  36.797  1.00  0.00     0.292 C 
HETATM   28  O4  UNK     1      28.202  -9.222  36.739  1.00  0.00    -0.259 OA
BRANCH  27  29
HETATM   29  O3  UNK     1      28.709  -7.026  37.264  1.00  0.00    -0.317 OA
BRANCH  29  30
HETATM   30  C20 UNK     1      28.256  -6.966  38.620  1.00  0.00     0.183 C 
BRANCH  30  31
HETATM   31  C22 UNK     1      28.820  -5.723  39.298  1.00  0.00     0.065 C 
BRANCH  31  32
HETATM   32  C25 UNK     1      30.032  -5.179  38.582  1.00  0.00    -0.056 A 
HETATM   33  C26 UNK     1      31.257  -5.803  38.750  1.00  0.00     0.007 A 
HETATM   34  C28 UNK     1      32.378  -5.301  38.088  1.00  0.00     0.001 A 
HETATM   35  C30 UNK     1      32.258  -4.179  37.267  1.00  0.00     0.000 A 
HETATM   36  C29 UNK     1      31.018  -3.561  37.108  1.00  0.00     0.001 A 
HETATM   37  C27 UNK     1      29.898  -4.064  37.770  1.00  0.00     0.007 A 
ENDBRANCH  31  32
ENDBRANCH  30  31
ENDBRANCH  29  30
ENDBRANCH  27  29
ENDBRANCH  12  27
TORSDOF 6
ENDMDL
MODEL 4
REMARK VINA RESULT:      -8.1      2.081      4.873
REMARK  6 active torsions:
REMARK  status: ('A' for Active; 'I' for Inactive)
REMARK    1  A    between atoms: C14_20  and  O3_3 
REMARK    2  A    between atoms: C20_26  and  O3_3 
REMARK    3  A    between atoms: C12_18  and  C6_12 
REMARK    4  A    between atoms: C10_16  and  C14_20 
REMARK    5  A    between atoms: C20_26  and  C22_28 
REMARK    6  A    between atoms: C22_28  and  C25_31 
ROOT
HETATM    1  O1  UNK     1      28.555 -10.248  35.273  1.00  0.00    -0.293 OA
HETATM    2  N1  UNK     1      29.840  -5.704  35.645  1.00  0.00    -0.362 N 
HETATM    3  C1  UNK     1      27.515  -7.805  37.744  1.00  0.00    -0.036 C 
HETATM    4  C2  UNK     1      27.969  -6.528  37.009  1.00  0.00     0.067 C 
HETATM    5  C3  UNK     1      27.208  -8.899  36.713  1.00  0.00     0.092 C 
HETATM    6  C4  UNK     1      29.017  -6.772  35.952  1.00  0.00     0.021 C 
HETATM    7  C5  UNK     1      29.199  -7.965  35.347  1.00  0.00     0.024 C 
HETATM    8  C6  UNK     1      30.273  -8.155  34.278  1.00  0.00     0.104 C 
HETATM    9  C7  UNK     1      28.353  -9.131  35.749  1.00  0.00     0.159 C 
HETATM   10  C8  UNK     1      26.243  -7.497  38.554  1.00  0.00     0.015 C 
HETATM   11  C9  UNK     1      28.605  -8.284  38.728  1.00  0.00     0.015 C 
HETATM   12  C10 UNK     1      31.223  -6.957  34.190  1.00  0.00     0.052 C 
HETATM   13  C11 UNK     1      30.957  -5.797  34.831  1.00  0.00     0.018 C 
HETATM   14  C13 UNK     1      31.795  -4.549  34.759  1.00  0.00     0.069 C 
HETATM   15  H12 UNK     1      29.671  -4.825  36.119  1.00  0.00     0.165 HD
ENDROOT
BRANCH   8  16
HETATM   16  C12 UNK     1      29.641  -8.418  32.933  1.00  0.00     0.029 A 
HETATM   17  C15 UNK     1      30.198  -9.505  32.088  1.00  0.00     0.194 A 
HETATM   18  O5  UNK     1      31.147 -10.189  32.448  1.00  0.00    -0.287 OA
HETATM   19  C17 UNK     1      29.546  -9.717  30.782  1.00  0.00     0.048 A 
HETATM   20  C18 UNK     1      28.468  -8.906  30.423  1.00  0.00     0.089 A 
HETATM   21  C19 UNK     1      29.996 -10.715  29.915  1.00  0.00     0.018 A 
HETATM   22  O2  UNK     1      27.985  -7.912  31.235  1.00  0.00    -0.321 OA
HETATM   23  C21 UNK     1      27.836  -9.090  29.193  1.00  0.00     0.038 A 
HETATM   24  C16 UNK     1      28.603  -7.726  32.448  1.00  0.00     0.154 A 
HETATM   25  C24 UNK     1      28.284 -10.087  28.325  1.00  0.00     0.003 A 
HETATM   26  C23 UNK     1      29.362 -10.897  28.686  1.00  0.00     0.001 A 
ENDBRANCH   8  16
BRANCH  12  27
HETATM   27  C14 UNK     1      32.464  -7.151  33.421  1.00  0.00     0.292 C 
HETATM   28  O4  UNK     1      32.598  -6.789  32.267  1.00  0.00    -0.259 OA
BRANCH  27  29
HETATM   29  O3  UNK     1      33.366  -7.775  34.215  1.00  0.00    -0.317 OA
BRANCH  29  30
HETATM   30  C20 UNK     1      34.522  -6.999  34.545  1.00  0.00     0.183 C 
BRANCH  30  31
HETATM   31  C22 UNK     1      34.904  -7.237  36.002  1.00  0.00     0.065 C 
BRANCH  31  32
HETATM   32  C25 UNK     1      33.774  -6.916  36.951  1.00  0.00    -0.056 A 
HETATM   33  C26 UNK     1      33.624  -5.619  37.413  1.00  0.00     0.007 A 
HETATM   34  C28 UNK     1      32.580  -5.322  38.290  1.00  0.00     0.001 A 
HETATM   35  C30 UNK     1      31.701  -6.328  38.693  1.00  0.00     0.000 A 
HETATM   36  C29 UNK     1      31.865  -7.629  38.220  1.00  0.00     0.001 A 
HETATM   37  C27 UNK     1      32.909  -7.926  37.343  1.00  0.00     0.007 A 
ENDBRANCH  31  32
ENDBRANCH  30  31
ENDBRANCH  29  30
ENDBRANCH  27  29
ENDBRANCH  12  27
TORSDOF 6
ENDMDL
MODEL 5
REMARK VINA RESULT:      -8.0      2.007      4.769
REMARK  6 active torsions:
REMARK  status: ('A' for Active; 'I' for Inactive)
REMARK    1  A    between atoms: C14_20  and  O3_3 
REMARK    2  A    between atoms: C20_26  and  O3_3 
REMARK    3  A    between atoms: C12_18  and  C6_12 
REMARK    4  A    between atoms: C10_16  and  C14_20 
REMARK    5  A    between atoms: C20_26  and  C22_28 
REMARK    6  A    between atoms: C22_28  and  C25_31 
ROOT
HETATM    1  O1  UNK     1      31.886  -5.581  37.212  1.00  0.00    -0.293 OA
HETATM    2  N1  UNK     1      28.055  -6.793  34.705  1.00  0.00    -0.362 N 
HETATM    3  C1  UNK     1      28.590  -6.485  38.425  1.00  0.00    -0.036 C 
HETATM    4  C2  UNK     1      28.041  -7.134  37.138  1.00  0.00     0.067 C 
HETATM    5  C3  UNK     1      30.119  -6.614  38.444  1.00  0.00     0.092 C 
HETATM    6  C4  UNK     1      28.769  -6.714  35.886  1.00  0.00     0.021 C 
HETATM    7  C5  UNK     1      30.034  -6.242  35.884  1.00  0.00     0.024 C 
HETATM    8  C6  UNK     1      30.725  -5.836  34.583  1.00  0.00     0.104 C 
HETATM    9  C7  UNK     1      30.765  -6.087  37.179  1.00  0.00     0.159 C 
HETATM   10  C8  UNK     1      28.003  -7.213  39.648  1.00  0.00     0.015 C 
HETATM   11  C9  UNK     1      28.173  -5.000  38.507  1.00  0.00     0.015 C 
HETATM   12  C10 UNK     1      29.755  -5.790  33.400  1.00  0.00     0.052 C 
HETATM   13  C11 UNK     1      28.502  -6.291  33.494  1.00  0.00     0.018 C 
HETATM   14  C13 UNK     1      27.498  -6.346  32.373  1.00  0.00     0.069 C 
HETATM   15  H12 UNK     1      27.108  -7.154  34.747  1.00  0.00     0.165 HD
ENDROOT
BRANCH   8  16
HETATM   16  C12 UNK     1      31.872  -6.768  34.279  1.00  0.00     0.029 A 
HETATM   17  C15 UNK     1      33.237  -6.195  34.159  1.00  0.00     0.194 A 
HETATM   18  O5  UNK     1      33.457  -5.000  34.298  1.00  0.00    -0.287 OA
HETATM   19  C17 UNK     1      34.321  -7.149  33.858  1.00  0.00     0.048 A 
HETATM   20  C18 UNK     1      34.013  -8.502  33.708  1.00  0.00     0.089 A 
HETATM   21  C19 UNK     1      35.641  -6.709  33.725  1.00  0.00     0.018 A 
HETATM   22  O2  UNK     1      32.736  -8.989  33.829  1.00  0.00    -0.321 OA
HETATM   23  C21 UNK     1      35.023  -9.422  33.425  1.00  0.00     0.038 A 
HETATM   24  C16 UNK     1      31.736  -8.089  34.108  1.00  0.00     0.154 A 
HETATM   25  C24 UNK     1      36.341  -8.985  33.292  1.00  0.00     0.003 A 
HETATM   26  C23 UNK     1      36.648  -7.631  33.441  1.00  0.00     0.001 A 
ENDBRANCH   8  16
BRANCH  12  27
HETATM   27  C14 UNK     1      30.233  -5.125  32.176  1.00  0.00     0.292 C 
HETATM   28  O4  UNK     1      30.110  -3.932  31.972  1.00  0.00    -0.259 OA
BRANCH  27  29
HETATM   29  O3  UNK     1      30.802  -6.059  31.376  1.00  0.00    -0.317 OA
BRANCH  29  30
HETATM   30  C20 UNK     1      30.587  -5.869  29.974  1.00  0.00     0.183 C 
BRANCH  30  31
HETATM   31  C22 UNK     1      31.200  -7.029  29.197  1.00  0.00     0.065 C 
BRANCH  31  32
HETATM   32  C25 UNK     1      30.201  -8.126  28.921  1.00  0.00    -0.056 A 
HETATM   33  C26 UNK     1      30.565  -9.188  28.109  1.00  0.00     0.007 A 
HETATM   34  C28 UNK     1      29.641 -10.202  27.853  1.00  0.00     0.001 A 
HETATM   35  C30 UNK     1      28.365 -10.140  28.414  1.00  0.00     0.000 A 
HETATM   36  C29 UNK     1      28.013  -9.065  29.229  1.00  0.00     0.001 A 
HETATM   37  C27 UNK     1      28.936  -8.051  29.484  1.00  0.00     0.007 A 
ENDBRANCH  31  32
ENDBRANCH  30  31
ENDBRANCH  29  30
ENDBRANCH  27  29
ENDBRANCH  12  27
TORSDOF 6
ENDMDL
MODEL 6
REMARK VINA RESULT:      -8.0      2.359      7.213
REMARK  6 active torsions:
REMARK  status: ('A' for Active; 'I' for Inactive)
REMARK    1  A    between atoms: C14_20  and  O3_3 
REMARK    2  A    between atoms: C20_26  and  O3_3 
REMARK    3  A    between atoms: C12_18  and  C6_12 
REMARK    4  A    between atoms: C10_16  and  C14_20 
REMARK    5  A    between atoms: C20_26  and  C22_28 
REMARK    6  A    between atoms: C22_28  and  C25_31 
ROOT
HETATM    1  O1  UNK     1      28.111  -6.995  32.237  1.00  0.00    -0.293 OA
HETATM    2  N1  UNK     1      31.540 -10.260  32.099  1.00  0.00    -0.362 N 
HETATM    3  C1  UNK     1      29.006  -9.212  29.510  1.00  0.00    -0.036 C 
HETATM    4  C2  UNK     1      29.862 -10.219  30.304  1.00  0.00     0.067 C 
HETATM    5  C3  UNK     1      27.974  -8.574  30.451  1.00  0.00     0.092 C 
HETATM    6  C4  UNK     1      30.385  -9.677  31.612  1.00  0.00     0.021 C 
HETATM    7  C5  UNK     1      29.808  -8.654  32.276  1.00  0.00     0.024 C 
HETATM    8  C6  UNK     1      30.377  -8.149  33.601  1.00  0.00     0.104 C 
HETATM    9  C7  UNK     1      28.605  -7.982  31.694  1.00  0.00     0.159 C 
HETATM   10  C8  UNK     1      28.272  -9.954  28.379  1.00  0.00     0.015 C 
HETATM   11  C9  UNK     1      29.896  -8.125  28.871  1.00  0.00     0.015 C 
HETATM   12  C10 UNK     1      31.752  -8.749  33.908  1.00  0.00     0.052 C 
HETATM   13  C11 UNK     1      32.251  -9.778  33.187  1.00  0.00     0.018 C 
HETATM   14  C13 UNK     1      33.560 -10.473  33.448  1.00  0.00     0.069 C 
HETATM   15  H12 UNK     1      31.943 -11.027  31.573  1.00  0.00     0.165 HD
ENDROOT
BRANCH   8  16
HETATM   16  C12 UNK     1      29.420  -8.434  34.732  1.00  0.00     0.029 A 
HETATM   17  C15 UNK     1      29.072  -7.329  35.662  1.00  0.00     0.194 A 
HETATM   18  O5  UNK     1      29.534  -6.203  35.537  1.00  0.00    -0.287 OA
HETATM   19  C17 UNK     1      28.135  -7.663  36.751  1.00  0.00     0.048 A 
HETATM   20  C18 UNK     1      27.640  -8.965  36.845  1.00  0.00     0.089 A 
HETATM   21  C19 UNK     1      27.746  -6.693  37.678  1.00  0.00     0.018 A 
HETATM   22  O2  UNK     1      27.988  -9.956  35.963  1.00  0.00    -0.321 OA
HETATM   23  C21 UNK     1      26.753  -9.302  37.867  1.00  0.00     0.038 A 
HETATM   24  C16 UNK     1      28.862  -9.631  34.954  1.00  0.00     0.154 A 
HETATM   25  C24 UNK     1      26.362  -8.334  38.793  1.00  0.00     0.003 A 
HETATM   26  C23 UNK     1      26.858  -7.033  38.698  1.00  0.00     0.001 A 
ENDBRANCH   8  16
BRANCH  12  27
HETATM   27  C14 UNK     1      32.525  -8.114  34.989  1.00  0.00     0.292 C 
HETATM   28  O4  UNK     1      32.713  -8.636  36.072  1.00  0.00    -0.259 OA
BRANCH  27  29
HETATM   29  O3  UNK     1      32.956  -6.906  34.553  1.00  0.00    -0.317 OA
BRANCH  29  30
HETATM   30  C20 UNK     1      33.970  -6.297  35.359  1.00  0.00     0.183 C 
BRANCH  30  31
HETATM   31  C22 UNK     1      33.595  -4.848  35.651  1.00  0.00     0.065 C 
BRANCH  31  32
HETATM   32  C25 UNK     1      32.504  -4.735  36.688  1.00  0.00    -0.056 A 
HETATM   33  C26 UNK     1      32.423  -5.684  37.694  1.00  0.00     0.007 A 
HETATM   34  C28 UNK     1      31.415  -5.580  38.653  1.00  0.00     0.001 A 
HETATM   35  C30 UNK     1      30.501  -4.528  38.592  1.00  0.00     0.000 A 
HETATM   36  C29 UNK     1      30.595  -3.581  37.573  1.00  0.00     0.001 A 
HETATM   37  C27 UNK     1      31.603  -3.685  36.614  1.00  0.00     0.007 A 
ENDBRANCH  31  32
ENDBRANCH  30  31
ENDBRANCH  29  30
ENDBRANCH  27  29
ENDBRANCH  12  27
TORSDOF 6
ENDMDL
MODEL 7
REMARK VINA RESULT:      -7.9      2.482      4.880
REMARK  6 active torsions:
REMARK  status: ('A' for Active; 'I' for Inactive)
REMARK    1  A    between atoms: C14_20  and  O3_3 
REMARK    2  A    between atoms: C20_26  and  O3_3 
REMARK    3  A    between atoms: C12_18  and  C6_12 
REMARK    4  A    between atoms: C10_16  and  C14_20 
REMARK    5  A    between atoms: C20_26  and  C22_28 
REMARK    6  A    between atoms: C22_28  and  C25_31 
ROOT
HETATM    1  O1  UNK     1      30.202  -9.608  35.060  1.00  0.00    -0.293 OA
HETATM    2  N1  UNK     1      28.991  -5.604  37.282  1.00  0.00    -0.362 N 
HETATM    3  C1  UNK     1      27.512  -9.070  37.433  1.00  0.00    -0.036 C 
HETATM    4  C2  UNK     1      27.468  -7.529  37.384  1.00  0.00     0.067 C 
HETATM    5  C3  UNK     1      28.050  -9.602  36.098  1.00  0.00     0.092 C 
HETATM    6  C4  UNK     1      28.737  -6.899  36.868  1.00  0.00     0.021 C 
HETATM    7  C5  UNK     1      29.622  -7.545  36.080  1.00  0.00     0.024 C 
HETATM    8  C6  UNK     1      30.890  -6.855  35.582  1.00  0.00     0.104 C 
HETATM    9  C7  UNK     1      29.371  -8.971  35.708  1.00  0.00     0.159 C 
HETATM   10  C8  UNK     1      26.089  -9.610  37.659  1.00  0.00     0.015 C 
HETATM   11  C9  UNK     1      28.398  -9.553  38.602  1.00  0.00     0.015 C 
HETATM   12  C10 UNK     1      31.130  -5.511  36.275  1.00  0.00     0.052 C 
HETATM   13  C11 UNK     1      30.182  -4.936  37.050  1.00  0.00     0.018 C 
HETATM   14  C13 UNK     1      30.301  -3.595  37.722  1.00  0.00     0.069 C 
HETATM   15  H12 UNK     1      28.303  -5.152  37.873  1.00  0.00     0.165 HD
ENDROOT
BRANCH   8  16
HETATM   16  C12 UNK     1      30.838  -6.666  34.086  1.00  0.00     0.029 A 
HETATM   17  C15 UNK     1      31.886  -7.309  33.253  1.00  0.00     0.194 A 
HETATM   18  O5  UNK     1      32.783  -7.984  33.741  1.00  0.00    -0.287 OA
HETATM   19  C17 UNK     1      31.790  -7.090  31.798  1.00  0.00     0.048 A 
HETATM   20  C18 UNK     1      30.746  -6.311  31.297  1.00  0.00     0.089 A 
HETATM   21  C19 UNK     1      32.728  -7.653  30.929  1.00  0.00     0.018 A 
HETATM   22  O2  UNK     1      29.797  -5.735  32.103  1.00  0.00    -0.321 OA
HETATM   23  C21 UNK     1      30.636  -6.092  29.923  1.00  0.00     0.038 A 
HETATM   24  C16 UNK     1      29.900  -5.947  33.456  1.00  0.00     0.154 A 
HETATM   25  C24 UNK     1      31.571  -6.654  29.054  1.00  0.00     0.003 A 
HETATM   26  C23 UNK     1      32.615  -7.432  29.557  1.00  0.00     0.001 A 
ENDBRANCH   8  16
BRANCH  12  27
HETATM   27  C14 UNK     1      32.462  -4.906  36.104  1.00  0.00     0.292 C 
HETATM   28  O4  UNK     1      32.745  -4.163  35.183  1.00  0.00    -0.259 OA
BRANCH  27  29
HETATM   29  O3  UNK     1      33.255  -5.322  37.120  1.00  0.00    -0.317 OA
BRANCH  29  30
HETATM   30  C20 UNK     1      34.143  -6.397  36.796  1.00  0.00     0.183 C 
BRANCH  30  31
HETATM   31  C22 UNK     1      35.436  -5.839  36.212  1.00  0.00     0.065 C 
BRANCH  31  32
HETATM   32  C25 UNK     1      35.754  -6.425  34.858  1.00  0.00    -0.056 A 
HETATM   33  C26 UNK     1      35.354  -5.752  33.715  1.00  0.00     0.007 A 
HETATM   34  C28 UNK     1      35.647  -6.294  32.464  1.00  0.00     0.001 A 
HETATM   35  C30 UNK     1      36.337  -7.503  32.372  1.00  0.00     0.000 A 
HETATM   36  C29 UNK     1      36.732  -8.170  33.531  1.00  0.00     0.001 A 
HETATM   37  C27 UNK     1      36.439  -7.628  34.783  1.00  0.00     0.007 A 
ENDBRANCH  31  32
ENDBRANCH  30  31
ENDBRANCH  29  30
ENDBRANCH  27  29
ENDBRANCH  12  27
TORSDOF 6
ENDMDL
MODEL 8
REMARK VINA RESULT:      -7.9      2.872      6.144
REMARK  6 active torsions:
REMARK  status: ('A' for Active; 'I' for Inactive)
REMARK    1  A    between atoms: C14_20  and  O3_3 
REMARK    2  A    between atoms: C20_26  and  O3_3 
REMARK    3  A    between atoms: C12_18  and  C6_12 
REMARK    4  A    between atoms: C10_16  and  C14_20 
REMARK    5  A    between atoms: C20_26  and  C22_28 
REMARK    6  A    between atoms: C22_28  and  C25_31 
ROOT
HETATM    1  O1  UNK     1      28.406  -6.162  33.960  1.00  0.00    -0.293 OA
HETATM    2  N1  UNK     1      29.018 -10.095  31.393  1.00  0.00    -0.362 N 
HETATM    3  C1  UNK     1      27.413  -6.794  30.530  1.00  0.00    -0.036 C 
HETATM    4  C2  UNK     1      27.541  -8.331  30.533  1.00  0.00     0.067 C 
HETATM    5  C3  UNK     1      27.116  -6.308  31.955  1.00  0.00     0.092 C 
HETATM    6  C4  UNK     1      28.430  -8.866  31.627  1.00  0.00     0.021 C 
HETATM    7  C5  UNK     1      28.694  -8.193  32.767  1.00  0.00     0.024 C 
HETATM    8  C6  UNK     1      29.599  -8.786  33.846  1.00  0.00     0.104 C 
HETATM    9  C7  UNK     1      28.114  -6.830  32.969  1.00  0.00     0.159 C 
HETATM   10  C8  UNK     1      26.255  -6.385  29.601  1.00  0.00     0.015 C 
HETATM   11  C9  UNK     1      28.707  -6.141  29.997  1.00  0.00     0.015 C 
HETATM   12  C10 UNK     1      30.326 -10.045  33.365  1.00  0.00     0.052 C 
HETATM   13  C11 UNK     1      29.991 -10.655  32.205  1.00  0.00     0.018 C 
HETATM   14  C13 UNK     1      30.604 -11.925  31.679  1.00  0.00     0.069 C 
HETATM   15  H12 UNK     1      28.794 -10.571  30.527  1.00  0.00     0.165 HD
ENDROOT
BRANCH   8  16
HETATM   16  C12 UNK     1      28.807  -9.088  35.094  1.00  0.00     0.029 A 
HETATM   17  C15 UNK     1      29.186  -8.403  36.356  1.00  0.00     0.194 A 
HETATM   18  O5  UNK     1      30.114  -7.606  36.412  1.00  0.00    -0.287 OA
HETATM   19  C17 UNK     1      28.382  -8.735  37.547  1.00  0.00     0.048 A 
HETATM   20  C18 UNK     1      27.336  -9.651  37.425  1.00  0.00     0.089 A 
HETATM   21  C19 UNK     1      28.660  -8.144  38.782  1.00  0.00     0.018 A 
HETATM   22  O2  UNK     1      27.020 -10.262  36.238  1.00  0.00    -0.321 OA
HETATM   23  C21 UNK     1      26.563  -9.980  38.539  1.00  0.00     0.038 A 
HETATM   24  C16 UNK     1      27.778  -9.943  35.138  1.00  0.00     0.154 A 
HETATM   25  C24 UNK     1      26.838  -9.390  39.772  1.00  0.00     0.003 A 
HETATM   26  C23 UNK     1      27.884  -8.474  39.893  1.00  0.00     0.001 A 
ENDBRANCH   8  16
BRANCH  12  27
HETATM   27  C14 UNK     1      31.442 -10.524  34.198  1.00  0.00     0.292 C 
HETATM   28  O4  UNK     1      31.427 -11.588  34.788  1.00  0.00    -0.259 OA
BRANCH  27  29
HETATM   29  O3  UNK     1      32.426  -9.594  34.171  1.00  0.00    -0.317 OA
BRANCH  29  30
HETATM   30  C20 UNK     1      33.683 -10.056  33.668  1.00  0.00     0.183 C 
BRANCH  30  31
HETATM   31  C22 UNK     1      34.245  -9.044  32.675  1.00  0.00     0.065 C 
BRANCH  31  32
HETATM   32  C25 UNK     1      33.312  -8.803  31.513  1.00  0.00    -0.056 A 
HETATM   33  C26 UNK     1      33.234  -9.742  30.498  1.00  0.00     0.007 A 
HETATM   34  C28 UNK     1      32.373  -9.520  29.424  1.00  0.00     0.001 A 
HETATM   35  C30 UNK     1      31.600  -8.359  29.379  1.00  0.00     0.000 A 
HETATM   36  C29 UNK     1      31.689  -7.422  30.407  1.00  0.00     0.001 A 
HETATM   37  C27 UNK     1      32.551  -7.645  31.482  1.00  0.00     0.007 A 
ENDBRANCH  31  32
ENDBRANCH  30  31
ENDBRANCH  29  30
ENDBRANCH  27  29
ENDBRANCH  12  27
TORSDOF 6
ENDMDL
MODEL 9
REMARK VINA RESULT:      -7.9      2.788      5.130
REMARK  6 active torsions:
REMARK  status: ('A' for Active; 'I' for Inactive)
REMARK    1  A    between atoms: C14_20  and  O3_3 
REMARK    2  A    between atoms: C20_26  and  O3_3 
REMARK    3  A    between atoms: C12_18  and  C6_12 
REMARK    4  A    between atoms: C10_16  and  C14_20 
REMARK    5  A    between atoms: C20_26  and  C22_28 
REMARK    6  A    between atoms: C22_28  and  C25_31 
ROOT
HETATM    1  O1  UNK     1      30.072  -9.754  37.041  1.00  0.00    -0.293 OA
HETATM    2  N1  UNK     1      29.158  -5.128  37.492  1.00  0.00    -0.362 N 
HETATM    3  C1  UNK     1      27.068  -8.161  38.301  1.00  0.00    -0.036 C 
HETATM    4  C2  UNK     1      27.321  -6.737  37.767  1.00  0.00     0.067 C 
HETATM    5  C3  UNK     1      27.783  -9.175  37.398  1.00  0.00     0.092 C 
HETATM    6  C4  UNK     1      28.768  -6.454  37.447  1.00  0.00     0.021 C 
HETATM    7  C5  UNK     1      29.671  -7.419  37.171  1.00  0.00     0.024 C 
HETATM    8  C6  UNK     1      31.124  -7.074  36.849  1.00  0.00     0.104 C 
HETATM    9  C7  UNK     1      29.251  -8.853  37.207  1.00  0.00     0.159 C 
HETATM   10  C8  UNK     1      25.555  -8.445  38.287  1.00  0.00     0.015 C 
HETATM   11  C9  UNK     1      27.566  -8.293  39.757  1.00  0.00     0.015 C 
HETATM   12  C10 UNK     1      31.447  -5.604  37.129  1.00  0.00     0.052 C 
HETATM   13  C11 UNK     1      30.473  -4.704  37.397  1.00  0.00     0.018 C 
HETATM   14  C13 UNK     1      30.684  -3.232  37.626  1.00  0.00     0.069 C 
HETATM   15  H12 UNK     1      28.451  -4.433  37.701  1.00  0.00     0.165 HD
ENDROOT
BRANCH   8  16
HETATM   16  C12 UNK     1      31.443  -7.412  35.414  1.00  0.00     0.029 A 
HETATM   17  C15 UNK     1      32.470  -8.450  35.142  1.00  0.00     0.194 A 
HETATM   18  O5  UNK     1      33.060  -9.034  36.041  1.00  0.00    -0.287 OA
HETATM   19  C17 UNK     1      32.746  -8.740  33.722  1.00  0.00     0.048 A 
HETATM   20  C18 UNK     1      32.044  -8.042  32.738  1.00  0.00     0.089 A 
HETATM   21  C19 UNK     1      33.695  -9.699  33.362  1.00  0.00     0.018 A 
HETATM   22  O2  UNK     1      31.101  -7.090  33.034  1.00  0.00    -0.321 OA
HETATM   23  C21 UNK     1      32.288  -8.301  31.389  1.00  0.00     0.038 A 
HETATM   24  C16 UNK     1      30.856  -6.830  34.361  1.00  0.00     0.154 A 
HETATM   25  C24 UNK     1      33.235  -9.259  31.028  1.00  0.00     0.003 A 
HETATM   26  C23 UNK     1      33.937  -9.956  32.013  1.00  0.00     0.001 A 
ENDBRANCH   8  16
BRANCH  12  27
HETATM   27  C14 UNK     1      32.872  -5.231  37.148  1.00  0.00     0.292 C 
HETATM   28  O4  UNK     1      33.684  -5.733  37.903  1.00  0.00    -0.259 OA
BRANCH  27  29
HETATM   29  O3  UNK     1      33.077  -4.276  36.211  1.00  0.00    -0.317 OA
BRANCH  29  30
HETATM   30  C20 UNK     1      34.329  -4.359  35.523  1.00  0.00     0.183 C 
BRANCH  30  31
HETATM   31  C22 UNK     1      34.132  -5.041  34.174  1.00  0.00     0.065 C 
BRANCH  31  32
HETATM   32  C25 UNK     1      35.172  -6.103  33.911  1.00  0.00    -0.056 A 
HETATM   33  C26 UNK     1      35.459  -6.464  32.605  1.00  0.00     0.007 A 
HETATM   34  C28 UNK     1      36.420  -7.446  32.362  1.00  0.00     0.001 A 
HETATM   35  C30 UNK     1      37.081  -8.054  33.429  1.00  0.00     0.000 A 
HETATM   36  C29 UNK     1      36.781  -7.681  34.739  1.00  0.00     0.001 A 
HETATM   37  C27 UNK     1      35.820  -6.699  34.982  1.00  0.00     0.007 A 
ENDBRANCH  31  32
ENDBRANCH  30  31
ENDBRANCH  29  30
ENDBRANCH  27  29
ENDBRANCH  12  27
TORSDOF 6
ENDMDL
MODEL 10
REMARK VINA RESULT:      -7.8      1.869      5.692
REMARK  6 active torsions:
REMARK  status: ('A' for Active; 'I' for Inactive)
REMARK    1  A    between atoms: C14_20  and  O3_3 
REMARK    2  A    between atoms: C20_26  and  O3_3 
REMARK    3  A    between atoms: C12_18  and  C6_12 
REMARK    4  A    between atoms: C10_16  and  C14_20 
REMARK    5  A    between atoms: C20_26  and  C22_28 
REMARK    6  A    between atoms: C22_28  and  C25_31 
ROOT
HETATM    1  O1  UNK     1      32.089  -9.498  35.205  1.00  0.00    -0.293 OA
HETATM    2  N1  UNK     1      32.229  -6.887  31.255  1.00  0.00    -0.362 N 
HETATM    3  C1  UNK     1      34.634  -9.451  32.621  1.00  0.00    -0.036 C 
HETATM    4  C2  UNK     1      34.238  -8.129  31.933  1.00  0.00     0.067 C 
HETATM    5  C3  UNK     1      34.200  -9.404  34.093  1.00  0.00     0.092 C 
HETATM    6  C4  UNK     1      32.817  -7.701  32.205  1.00  0.00     0.021 C 
HETATM    7  C5  UNK     1      32.113  -8.105  33.284  1.00  0.00     0.024 C 
HETATM    8  C6  UNK     1      30.677  -7.636  33.512  1.00  0.00     0.104 C 
HETATM    9  C7  UNK     1      32.737  -9.050  34.259  1.00  0.00     0.159 C 
HETATM   10  C8  UNK     1      36.161  -9.622  32.545  1.00  0.00     0.015 C 
HETATM   11  C9  UNK     1      33.981 -10.654  31.906  1.00  0.00     0.015 C 
HETATM   12  C10 UNK     1      30.102  -6.910  32.293  1.00  0.00     0.052 C 
HETATM   13  C11 UNK     1      30.887  -6.542  31.254  1.00  0.00     0.018 C 
HETATM   14  C13 UNK     1      30.428  -5.776  30.043  1.00  0.00     0.069 C 
HETATM   15  H12 UNK     1      32.790  -6.604  30.460  1.00  0.00     0.165 HD
ENDROOT
BRANCH   8  16
HETATM   16  C12 UNK     1      30.597  -6.748  34.730  1.00  0.00     0.029 A 
HETATM   17  C15 UNK     1      29.626  -7.096  35.798  1.00  0.00     0.194 A 
HETATM   18  O5  UNK     1      28.895  -8.074  35.721  1.00  0.00    -0.287 OA
HETATM   19  C17 UNK     1      29.587  -6.194  36.965  1.00  0.00     0.048 A 
HETATM   20  C18 UNK     1      30.443  -5.093  37.000  1.00  0.00     0.089 A 
HETATM   21  C19 UNK     1      28.707  -6.436  38.023  1.00  0.00     0.018 A 
HETATM   22  O2  UNK     1      31.327  -4.808  35.990  1.00  0.00    -0.321 OA
HETATM   23  C21 UNK     1      30.424  -4.227  38.094  1.00  0.00     0.038 A 
HETATM   24  C16 UNK     1      31.352  -5.656  34.910  1.00  0.00     0.154 A 
HETATM   25  C24 UNK     1      29.546  -4.467  39.152  1.00  0.00     0.003 A 
HETATM   26  C23 UNK     1      28.690  -5.569  39.115  1.00  0.00     0.001 A 
ENDBRANCH   8  16
BRANCH  12  27
HETATM   27  C14 UNK     1      28.647  -6.685  32.281  1.00  0.00     0.292 C 
HETATM   28  O4  UNK     1      28.132  -5.624  32.580  1.00  0.00    -0.259 OA
BRANCH  27  29
HETATM   29  O3  UNK     1      28.040  -7.832  31.892  1.00  0.00    -0.317 OA
BRANCH  29  30
HETATM   30  C20 UNK     1      27.344  -7.756  30.643  1.00  0.00     0.183 C 
BRANCH  30  31
HETATM   31  C22 UNK     1      27.566  -9.040  29.851  1.00  0.00     0.065 C 
BRANCH  31  32
HETATM   32  C25 UNK     1      29.030  -9.325  29.618  1.00  0.00    -0.056 A 
HETATM   33  C26 UNK     1      29.655  -8.796  28.500  1.00  0.00     0.007 A 
HETATM   34  C28 UNK     1      31.008  -9.059  28.284  1.00  0.00     0.001 A 
HETATM   35  C30 UNK     1      31.717  -9.848  29.190  1.00  0.00     0.000 A 
HETATM   36  C29 UNK     1      31.075 -10.374  30.309  1.00  0.00     0.001 A 
HETATM   37  C27 UNK     1      29.722 -10.111  30.525  1.00  0.00     0.007 A 
ENDBRANCH  31  32
ENDBRANCH  30  31
ENDBRANCH  29  30
ENDBRANCH  27  29
ENDBRANCH  12  27
TORSDOF 6
ENDMDL
