MODEL 1
REMARK VINA RESULT:     -10.3      0.000      0.000
REMARK  4 active torsions:
REMARK  status: ('A' for Active; 'I' for Inactive)
REMARK    1  A    between atoms: C17_25  and  O4_5 
REMARK       I    between atoms: C11_19  and  N1_7 
REMARK    2  A    between atoms: C9_17  and  N1_7 
REMARK       I    between atoms: C10_18  and  N2_8 
REMARK    3  A    between atoms: C10_18  and  C8_16 
REMARK    4  A    between atoms: C11_19  and  C12_20 
ROOT
HETATM    1  O3  UNK     1      19.804   5.399  31.418  1.00  0.00    -0.267 OA
HETATM    2  N1  UNK     1      17.998   4.017  32.071  1.00  0.00    -0.316 N 
HETATM    3  C11 UNK     1      18.714   5.229  31.952  1.00  0.00     0.262 C 
HETATM    4  H11 UNK     1      17.093   4.053  32.533  1.00  0.00     0.169 HD
ENDROOT
BRANCH   2   5
HETATM    5  C9  UNK     1      18.344   2.770  31.626  1.00  0.00     0.093 A 
HETATM    6  C8  UNK     1      18.452   1.566  32.283  1.00  0.00     0.073 A 
HETATM    7  C5  UNK     1      18.853   0.498  31.416  1.00  0.00    -0.026 A 
HETATM    8  C3  UNK     1      19.051  -0.920  31.856  1.00  0.00     0.041 C 
HETATM    9  C7  UNK     1      19.033   0.949  30.121  1.00  0.00    -0.008 A 
HETATM   10  C1  UNK     1      20.452  -1.455  31.556  1.00  0.00     0.005 C 
HETATM   11  C2  UNK     1      20.695  -1.785  30.079  1.00  0.00     0.001 C 
HETATM   12  C4  UNK     1      20.780  -0.573  29.146  1.00  0.00     0.005 C 
HETATM   13  C6  UNK     1      19.447   0.145  28.926  1.00  0.00     0.046 C 
HETATM   14  S1  UNK     1      18.721   2.625  29.968  1.00  0.00    -0.075 SA
BRANCH   6  15
HETATM   15  C10 UNK     1      18.180   1.448  33.696  1.00  0.00     0.252 C 
HETATM   16  O1  UNK     1      18.978   1.820  34.574  1.00  0.00    -0.268 OA
HETATM   17  N2  UNK     1      16.951   0.910  34.067  1.00  0.00    -0.366 N 
HETATM   18  H12 UNK     1      16.267   0.603  33.383  1.00  0.00     0.159 HD
HETATM   19  H13 UNK     1      16.700   0.809  35.045  1.00  0.00     0.159 HD
ENDBRANCH   6  15
ENDBRANCH   2   5
BRANCH   3  20
HETATM   20  C12 UNK     1      18.019   6.383  32.559  1.00  0.00     0.108 A 
HETATM   21  C13 UNK     1      16.702   6.466  32.333  1.00  0.00     0.037 A 
HETATM   22  C14 UNK     1      15.930   7.566  32.890  1.00  0.00     0.002 A 
HETATM   23  C15 UNK     1      16.582   8.525  33.657  1.00  0.00     0.123 A 
HETATM   24  C18 UNK     1      14.554   7.691  32.680  1.00  0.00     0.014 A 
HETATM   25  O2  UNK     1      17.968   8.432  33.892  1.00  0.00    -0.271 OA
HETATM   26  C17 UNK     1      15.901   9.603  34.218  1.00  0.00     0.102 A 
HETATM   27  C16 UNK     1      18.733   7.391  33.373  1.00  0.00     0.304 A 
HETATM   28  O5  UNK     1      19.939   7.319  33.583  1.00  0.00    -0.259 OA
HETATM   29  C19 UNK     1      14.529   9.721  34.004  1.00  0.00     0.040 A 
HETATM   30  C20 UNK     1      13.857   8.768  33.236  1.00  0.00     0.004 A 
BRANCH  26  31
HETATM   31  O4  UNK     1      16.551  10.534  34.966  1.00  0.00    -0.353 OA
HETATM   32  C21 UNK     1      16.839  11.785  34.342  1.00  0.00     0.210 C 
ENDBRANCH  26  31
ENDBRANCH   3  20
TORSDOF 4
ENDMDL
MODEL 2
REMARK VINA RESULT:     -10.1      1.943      9.002
REMARK  4 active torsions:
REMARK  status: ('A' for Active; 'I' for Inactive)
REMARK    1  A    between atoms: C17_25  and  O4_5 
REMARK       I    between atoms: C11_19  and  N1_7 
REMARK    2  A    between atoms: C9_17  and  N1_7 
REMARK       I    between atoms: C10_18  and  N2_8 
REMARK    3  A    between atoms: C10_18  and  C8_16 
REMARK    4  A    between atoms: C11_19  and  C12_20 
ROOT
HETATM    1  O3  UNK     1      18.657   4.922  30.209  1.00  0.00    -0.267 OA
HETATM    2  N1  UNK     1      17.657   4.899  32.354  1.00  0.00    -0.316 N 
HETATM    3  C11 UNK     1      18.323   4.345  31.237  1.00  0.00     0.262 C 
HETATM    4  H11 UNK     1      17.467   4.281  33.138  1.00  0.00     0.169 HD
ENDROOT
BRANCH   2   5
HETATM    5  C9  UNK     1      17.237   6.186  32.548  1.00  0.00     0.093 A 
HETATM    6  C8  UNK     1      17.829   7.252  33.187  1.00  0.00     0.073 A 
HETATM    7  C5  UNK     1      17.020   8.434  33.155  1.00  0.00    -0.026 A 
HETATM    8  C3  UNK     1      17.410   9.743  33.769  1.00  0.00     0.041 C 
HETATM    9  C7  UNK     1      15.832   8.207  32.483  1.00  0.00    -0.008 A 
HETATM   10  C1  UNK     1      16.396  10.256  34.793  1.00  0.00     0.005 C 
HETATM   11  C2  UNK     1      15.114  10.825  34.177  1.00  0.00     0.001 C 
HETATM   12  C4  UNK     1      14.186   9.791  33.531  1.00  0.00     0.005 C 
HETATM   13  C6  UNK     1      14.725   9.186  32.234  1.00  0.00     0.046 C 
HETATM   14  S1  UNK     1      15.710   6.599  31.908  1.00  0.00    -0.075 SA
BRANCH   6  15
HETATM   15  C10 UNK     1      19.128   7.136  33.806  1.00  0.00     0.252 C 
HETATM   16  O1  UNK     1      20.167   6.905  33.164  1.00  0.00    -0.268 OA
HETATM   17  N2  UNK     1      19.197   7.316  35.184  1.00  0.00    -0.366 N 
HETATM   18  H12 UNK     1      18.374   7.516  35.745  1.00  0.00     0.159 HD
HETATM   19  H13 UNK     1      20.083   7.254  35.675  1.00  0.00     0.159 HD
ENDBRANCH   6  15
ENDBRANCH   2   5
BRANCH   3  20
HETATM   20  C12 UNK     1      18.622   2.906  31.388  1.00  0.00     0.108 A 
HETATM   21  C13 UNK     1      19.123   2.289  30.311  1.00  0.00     0.037 A 
HETATM   22  C14 UNK     1      19.449   0.872  30.362  1.00  0.00     0.002 A 
HETATM   23  C15 UNK     1      19.232   0.174  31.544  1.00  0.00     0.123 A 
HETATM   24  C18 UNK     1      19.974   0.190  29.262  1.00  0.00     0.014 A 
HETATM   25  O2  UNK     1      18.705   0.829  32.676  1.00  0.00    -0.271 OA
HETATM   26  C17 UNK     1      19.523  -1.183  31.659  1.00  0.00     0.102 A 
HETATM   27  C16 UNK     1      18.383   2.183  32.657  1.00  0.00     0.304 A 
HETATM   28  O5  UNK     1      17.925   2.744  33.646  1.00  0.00    -0.259 OA
HETATM   29  C19 UNK     1      20.046  -1.857  30.558  1.00  0.00     0.040 A 
HETATM   30  C20 UNK     1      20.271  -1.173  29.362  1.00  0.00     0.004 A 
BRANCH  26  31
HETATM   31  O4  UNK     1      19.306  -1.854  32.822  1.00  0.00    -0.353 OA
HETATM   32  C21 UNK     1      20.442  -2.438  33.459  1.00  0.00     0.210 C 
ENDBRANCH  26  31
ENDBRANCH   3  20
TORSDOF 4
ENDMDL
MODEL 3
REMARK VINA RESULT:      -9.8     15.249     18.463
REMARK  4 active torsions:
REMARK  status: ('A' for Active; 'I' for Inactive)
REMARK    1  A    between atoms: C17_25  and  O4_5 
REMARK       I    between atoms: C11_19  and  N1_7 
REMARK    2  A    between atoms: C9_17  and  N1_7 
REMARK       I    between atoms: C10_18  and  N2_8 
REMARK    3  A    between atoms: C10_18  and  C8_16 
REMARK    4  A    between atoms: C11_19  and  C12_20 
ROOT
HETATM    1  O3  UNK     1      17.665  -2.373  16.061  1.00  0.00    -0.267 OA
HETATM    2  N1  UNK     1      19.856  -2.115  15.205  1.00  0.00    -0.316 N 
HETATM    3  C11 UNK     1      18.742  -1.789  16.010  1.00  0.00     0.262 C 
HETATM    4  H11 UNK     1      20.685  -1.533  15.296  1.00  0.00     0.169 HD
ENDROOT
BRANCH   2   5
HETATM    5  C9  UNK     1      19.996  -3.140  14.308  1.00  0.00     0.093 A 
HETATM    6  C8  UNK     1      19.979  -3.155  12.932  1.00  0.00     0.073 A 
HETATM    7  C5  UNK     1      20.162  -4.469  12.393  1.00  0.00    -0.026 A 
HETATM    8  C3  UNK     1      20.188  -4.787  10.929  1.00  0.00     0.041 C 
HETATM    9  C7  UNK     1      20.312  -5.405  13.400  1.00  0.00    -0.008 A 
HETATM   10  C1  UNK     1      19.142  -5.824  10.518  1.00  0.00     0.005 C 
HETATM   11  C2  UNK     1      19.486  -7.260  10.927  1.00  0.00     0.001 C 
HETATM   12  C4  UNK     1      19.416  -7.544  12.431  1.00  0.00     0.005 C 
HETATM   13  C6  UNK     1      20.526  -6.881  13.248  1.00  0.00     0.046 C 
HETATM   14  S1  UNK     1      20.232  -4.700  14.958  1.00  0.00    -0.075 SA
BRANCH   6  15
HETATM   15  C10 UNK     1      19.793  -1.947  12.165  1.00  0.00     0.252 C 
HETATM   16  O1  UNK     1      18.711  -1.335  12.115  1.00  0.00    -0.268 OA
HETATM   17  N2  UNK     1      20.895  -1.452  11.474  1.00  0.00    -0.366 N 
HETATM   18  H12 UNK     1      21.799  -1.914  11.497  1.00  0.00     0.159 HD
HETATM   19  H13 UNK     1      20.828  -0.602  10.924  1.00  0.00     0.159 HD
ENDBRANCH   6  15
ENDBRANCH   2   5
BRANCH   3  20
HETATM   20  C12 UNK     1      18.962  -0.604  16.863  1.00  0.00     0.108 A 
HETATM   21  C13 UNK     1      18.969  -0.818  18.185  1.00  0.00     0.037 A 
HETATM   22  C14 UNK     1      19.179   0.288  19.106  1.00  0.00     0.002 A 
HETATM   23  C15 UNK     1      19.371   1.565  18.592  1.00  0.00     0.123 A 
HETATM   24  C18 UNK     1      19.195   0.109  20.492  1.00  0.00     0.014 A 
HETATM   25  O2  UNK     1      19.363   1.785  17.200  1.00  0.00    -0.271 OA
HETATM   26  C17 UNK     1      19.578   2.666  19.420  1.00  0.00     0.102 A 
HETATM   27  C16 UNK     1      19.165   0.747  16.294  1.00  0.00     0.304 A 
HETATM   28  O5  UNK     1      19.161   0.948  15.084  1.00  0.00    -0.259 OA
HETATM   29  C19 UNK     1      19.592   2.480  20.801  1.00  0.00     0.040 A 
HETATM   30  C20 UNK     1      19.400   1.205  21.336  1.00  0.00     0.004 A 
BRANCH  26  31
HETATM   31  O4  UNK     1      19.764   3.910  18.904  1.00  0.00    -0.353 OA
HETATM   32  C21 UNK     1      21.095   4.267  18.529  1.00  0.00     0.210 C 
ENDBRANCH  26  31
ENDBRANCH   3  20
TORSDOF 4
ENDMDL
MODEL 4
REMARK VINA RESULT:      -9.7     15.790     18.928
REMARK  4 active torsions:
REMARK  status: ('A' for Active; 'I' for Inactive)
REMARK    1  A    between atoms: C17_25  and  O4_5 
REMARK       I    between atoms: C11_19  and  N1_7 
REMARK    2  A    between atoms: C9_17  and  N1_7 
REMARK       I    between atoms: C10_18  and  N2_8 
REMARK    3  A    between atoms: C10_18  and  C8_16 
REMARK    4  A    between atoms: C11_19  and  C12_20 
ROOT
HETATM    1  O3  UNK     1      17.805  -3.259  15.715  1.00  0.00    -0.267 OA
HETATM    2  N1  UNK     1      19.697  -2.696  14.410  1.00  0.00    -0.316 N 
HETATM    3  C11 UNK     1      18.721  -2.502  15.413  1.00  0.00     0.262 C 
HETATM    4  H11 UNK     1      20.402  -1.972  14.298  1.00  0.00     0.169 HD
ENDROOT
BRANCH   2   5
HETATM    5  C9  UNK     1      19.849  -3.754  13.555  1.00  0.00     0.093 A 
HETATM    6  C8  UNK     1      20.326  -5.029  13.760  1.00  0.00     0.073 A 
HETATM    7  C5  UNK     1      20.312  -5.821  12.566  1.00  0.00    -0.026 A 
HETATM    8  C3  UNK     1      20.772  -7.245  12.490  1.00  0.00     0.041 C 
HETATM    9  C7  UNK     1      19.818  -5.099  11.495  1.00  0.00    -0.008 A 
HETATM   10  C1  UNK     1      21.879  -7.467  11.458  1.00  0.00     0.005 C 
HETATM   11  C2  UNK     1      21.394  -7.452  10.004  1.00  0.00     0.001 C 
HETATM   12  C4  UNK     1      20.952  -6.083   9.478  1.00  0.00     0.005 C 
HETATM   13  C6  UNK     1      19.643  -5.570  10.083  1.00  0.00     0.046 C 
HETATM   14  S1  UNK     1      19.384  -3.503  11.933  1.00  0.00    -0.075 SA
BRANCH   6  15
HETATM   15  C10 UNK     1      20.778  -5.468  15.058  1.00  0.00     0.252 C 
HETATM   16  O1  UNK     1      21.976  -5.469  15.395  1.00  0.00    -0.268 OA
HETATM   17  N2  UNK     1      19.809  -5.885  15.966  1.00  0.00    -0.366 N 
HETATM   18  H12 UNK     1      18.820  -5.889  15.735  1.00  0.00     0.159 HD
HETATM   19  H13 UNK     1      20.065  -6.197  16.896  1.00  0.00     0.159 HD
ENDBRANCH   6  15
ENDBRANCH   2   5
BRANCH   3  20
HETATM   20  C12 UNK     1      18.876  -1.227  16.143  1.00  0.00     0.108 A 
HETATM   21  C13 UNK     1      18.664  -1.271  17.464  1.00  0.00     0.037 A 
HETATM   22  C14 UNK     1      18.794  -0.066  18.268  1.00  0.00     0.002 A 
HETATM   23  C15 UNK     1      19.139   1.127  17.642  1.00  0.00     0.123 A 
HETATM   24  C18 UNK     1      18.583  -0.067  19.649  1.00  0.00     0.014 A 
HETATM   25  O2  UNK     1      19.360   1.168  16.251  1.00  0.00    -0.271 OA
HETATM   26  C17 UNK     1      19.279   2.316  18.355  1.00  0.00     0.102 A 
HETATM   27  C16 UNK     1      19.244   0.031  15.456  1.00  0.00     0.304 A 
HETATM   28  O5  UNK     1      19.439   0.076  14.246  1.00  0.00    -0.259 OA
HETATM   29  C19 UNK     1      19.067   2.307  19.732  1.00  0.00     0.040 A 
HETATM   30  C20 UNK     1      18.720   1.119  20.378  1.00  0.00     0.004 A 
BRANCH  26  31
HETATM   31  O4  UNK     1      19.616   3.476  17.731  1.00  0.00    -0.353 OA
HETATM   32  C21 UNK     1      20.602   4.292  18.362  1.00  0.00     0.210 C 
ENDBRANCH  26  31
ENDBRANCH   3  20
TORSDOF 4
ENDMDL
MODEL 5
REMARK VINA RESULT:      -9.6      6.995     10.074
REMARK  4 active torsions:
REMARK  status: ('A' for Active; 'I' for Inactive)
REMARK    1  A    between atoms: C17_25  and  O4_5 
REMARK       I    between atoms: C11_19  and  N1_7 
REMARK    2  A    between atoms: C9_17  and  N1_7 
REMARK       I    between atoms: C10_18  and  N2_8 
REMARK    3  A    between atoms: C10_18  and  C8_16 
REMARK    4  A    between atoms: C11_19  and  C12_20 
ROOT
HETATM    1  O3  UNK     1      20.601  -4.203  37.648  1.00  0.00    -0.267 OA
HETATM    2  N1  UNK     1      19.675  -5.066  35.649  1.00  0.00    -0.316 N 
HETATM    3  C11 UNK     1      20.011  -4.060  36.583  1.00  0.00     0.262 C 
HETATM    4  H11 UNK     1      19.195  -4.774  34.801  1.00  0.00     0.169 HD
ENDROOT
BRANCH   2   5
HETATM    5  C9  UNK     1      19.925  -6.410  35.710  1.00  0.00     0.093 A 
HETATM    6  C8  UNK     1      19.506  -7.375  36.597  1.00  0.00     0.073 A 
HETATM    7  C5  UNK     1      20.018  -8.675  36.280  1.00  0.00    -0.026 A 
HETATM    8  C3  UNK     1      19.728  -9.914  37.071  1.00  0.00     0.041 C 
HETATM    9  C7  UNK     1      20.814  -8.636  35.149  1.00  0.00    -0.008 A 
HETATM   10  C1  UNK     1      20.989 -10.614  37.580  1.00  0.00     0.005 C 
HETATM   11  C2  UNK     1      21.765 -11.376  36.501  1.00  0.00     0.001 C 
HETATM   12  C4  UNK     1      22.472 -10.498  35.464  1.00  0.00     0.005 C 
HETATM   13  C6  UNK     1      21.527  -9.781  34.498  1.00  0.00     0.046 C 
HETATM   14  S1  UNK     1      20.931  -7.058  34.494  1.00  0.00    -0.075 SA
BRANCH   6  15
HETATM   15  C10 UNK     1      18.644  -7.056  37.710  1.00  0.00     0.252 C 
HETATM   16  O1  UNK     1      17.407  -6.974  37.609  1.00  0.00    -0.268 OA
HETATM   17  N2  UNK     1      19.247  -6.857  38.949  1.00  0.00    -0.366 N 
HETATM   18  H12 UNK     1      20.252  -6.925  39.077  1.00  0.00     0.159 HD
HETATM   19  H13 UNK     1      18.693  -6.638  39.770  1.00  0.00     0.159 HD
ENDBRANCH   6  15
ENDBRANCH   2   5
BRANCH   3  20
HETATM   20  C12 UNK     1      19.575  -2.710  36.173  1.00  0.00     0.108 A 
HETATM   21  C13 UNK     1      18.881  -2.011  37.079  1.00  0.00     0.037 A 
HETATM   22  C14 UNK     1      18.409  -0.671  36.768  1.00  0.00     0.002 A 
HETATM   23  C15 UNK     1      18.690  -0.132  35.517  1.00  0.00     0.123 A 
HETATM   24  C18 UNK     1      17.683   0.094  37.684  1.00  0.00     0.014 A 
HETATM   25  O2  UNK     1      19.421  -0.872  34.567  1.00  0.00    -0.271 OA
HETATM   26  C17 UNK     1      18.266   1.145  35.157  1.00  0.00     0.102 A 
HETATM   27  C16 UNK     1      19.886  -2.157  34.836  1.00  0.00     0.304 A 
HETATM   28  O5  UNK     1      20.522  -2.793  34.003  1.00  0.00    -0.259 OA
HETATM   29  C19 UNK     1      17.542   1.901  36.075  1.00  0.00     0.040 A 
HETATM   30  C20 UNK     1      17.250   1.378  37.336  1.00  0.00     0.004 A 
BRANCH  26  31
HETATM   31  O4  UNK     1      18.548   1.660  33.929  1.00  0.00    -0.353 OA
HETATM   32  C21 UNK     1      18.271   3.045  33.725  1.00  0.00     0.210 C 
ENDBRANCH  26  31
ENDBRANCH   3  20
TORSDOF 4
ENDMDL
MODEL 6
REMARK VINA RESULT:      -9.6      7.321     10.340
REMARK  4 active torsions:
REMARK  status: ('A' for Active; 'I' for Inactive)
REMARK    1  A    between atoms: C17_25  and  O4_5 
REMARK       I    between atoms: C11_19  and  N1_7 
REMARK    2  A    between atoms: C9_17  and  N1_7 
REMARK       I    between atoms: C10_18  and  N2_8 
REMARK    3  A    between atoms: C10_18  and  C8_16 
REMARK    4  A    between atoms: C11_19  and  C12_20 
ROOT
HETATM    1  O3  UNK     1      21.555  -3.728  36.824  1.00  0.00    -0.267 OA
HETATM    2  N1  UNK     1      19.436  -4.782  36.828  1.00  0.00    -0.316 N 
HETATM    3  C11 UNK     1      20.337  -3.702  36.691  1.00  0.00     0.262 C 
HETATM    4  H11 UNK     1      18.450  -4.592  36.668  1.00  0.00     0.169 HD
ENDROOT
BRANCH   2   5
HETATM    5  C9  UNK     1      19.705  -6.088  37.135  1.00  0.00     0.093 A 
HETATM    6  C8  UNK     1      19.703  -7.225  36.359  1.00  0.00     0.073 A 
HETATM    7  C5  UNK     1      20.048  -8.401  37.102  1.00  0.00    -0.026 A 
HETATM    8  C3  UNK     1      20.125  -9.778  36.518  1.00  0.00     0.041 C 
HETATM    9  C7  UNK     1      20.299  -8.097  38.428  1.00  0.00    -0.008 A 
HETATM   10  C1  UNK     1      19.215 -10.785  37.223  1.00  0.00     0.005 C 
HETATM   11  C2  UNK     1      19.725 -11.240  38.594  1.00  0.00     0.001 C 
HETATM   12  C4  UNK     1      19.675 -10.176  39.695  1.00  0.00     0.005 C 
HETATM   13  C6  UNK     1      20.690  -9.044  39.521  1.00  0.00     0.046 C 
HETATM   14  S1  UNK     1      20.121  -6.426  38.755  1.00  0.00    -0.075 SA
BRANCH   6  15
HETATM   15  C10 UNK     1      19.381  -7.181  34.953  1.00  0.00     0.252 C 
HETATM   16  O1  UNK     1      18.223  -7.313  34.518  1.00  0.00    -0.268 OA
HETATM   17  N2  UNK     1      20.428  -6.957  34.063  1.00  0.00    -0.366 N 
HETATM   18  H12 UNK     1      21.386  -6.833  34.377  1.00  0.00     0.159 HD
HETATM   19  H13 UNK     1      20.262  -6.907  33.064  1.00  0.00     0.159 HD
ENDBRANCH   6  15
ENDBRANCH   2   5
BRANCH   3  20
HETATM   20  C12 UNK     1      19.674  -2.426  36.349  1.00  0.00     0.108 A 
HETATM   21  C13 UNK     1      18.994  -1.829  37.336  1.00  0.00     0.037 A 
HETATM   22  C14 UNK     1      18.309  -0.569  37.097  1.00  0.00     0.002 A 
HETATM   23  C15 UNK     1      18.371   0.001  35.830  1.00  0.00     0.123 A 
HETATM   24  C18 UNK     1      17.589   0.088  38.097  1.00  0.00     0.014 A 
HETATM   25  O2  UNK     1      19.088  -0.632  34.795  1.00  0.00    -0.271 OA
HETATM   26  C17 UNK     1      17.736   1.205  35.535  1.00  0.00     0.102 A 
HETATM   27  C16 UNK     1      19.754  -1.838  34.994  1.00  0.00     0.304 A 
HETATM   28  O5  UNK     1      20.376  -2.381  34.087  1.00  0.00    -0.259 OA
HETATM   29  C19 UNK     1      17.020   1.855  36.538  1.00  0.00     0.040 A 
HETATM   30  C20 UNK     1      16.946   1.298  37.816  1.00  0.00     0.004 A 
BRANCH  26  31
HETATM   31  O4  UNK     1      17.805   1.752  34.292  1.00  0.00    -0.353 OA
HETATM   32  C21 UNK     1      18.352   3.066  34.187  1.00  0.00     0.210 C 
ENDBRANCH  26  31
ENDBRANCH   3  20
TORSDOF 4
ENDMDL
MODEL 7
REMARK VINA RESULT:      -9.5      6.172      9.605
REMARK  4 active torsions:
REMARK  status: ('A' for Active; 'I' for Inactive)
REMARK    1  A    between atoms: C17_25  and  O4_5 
REMARK       I    between atoms: C11_19  and  N1_7 
REMARK    2  A    between atoms: C9_17  and  N1_7 
REMARK       I    between atoms: C10_18  and  N2_8 
REMARK    3  A    between atoms: C10_18  and  C8_16 
REMARK    4  A    between atoms: C11_19  and  C12_20 
ROOT
HETATM    1  O3  UNK     1      21.559  -2.293  35.172  1.00  0.00    -0.267 OA
HETATM    2  N1  UNK     1      19.837  -3.825  34.636  1.00  0.00    -0.316 N 
HETATM    3  C11 UNK     1      20.609  -2.650  34.486  1.00  0.00     0.262 C 
HETATM    4  H11 UNK     1      19.087  -3.979  33.966  1.00  0.00     0.169 HD
ENDROOT
BRANCH   2   5
HETATM    5  C9  UNK     1      19.966  -4.822  35.563  1.00  0.00     0.093 A 
HETATM    6  C8  UNK     1      20.056  -4.783  36.936  1.00  0.00     0.073 A 
HETATM    7  C5  UNK     1      20.185  -6.086  37.518  1.00  0.00    -0.026 A 
HETATM    8  C3  UNK     1      20.303  -6.349  38.988  1.00  0.00     0.041 C 
HETATM    9  C7  UNK     1      20.187  -7.069  36.544  1.00  0.00    -0.008 A 
HETATM   10  C1  UNK     1      21.566  -7.125  39.363  1.00  0.00     0.005 C 
HETATM   11  C2  UNK     1      21.516  -8.616  39.010  1.00  0.00     0.001 C 
HETATM   12  C4  UNK     1      21.568  -8.933  37.512  1.00  0.00     0.005 C 
HETATM   13  C6  UNK     1      20.301  -8.550  36.744  1.00  0.00     0.046 C 
HETATM   14  S1  UNK     1      20.035  -6.419  34.967  1.00  0.00    -0.075 SA
BRANCH   6  15
HETATM   15  C10 UNK     1      20.019  -3.536  37.661  1.00  0.00     0.252 C 
HETATM   16  O1  UNK     1      20.983  -3.105  38.320  1.00  0.00    -0.268 OA
HETATM   17  N2  UNK     1      18.848  -2.788  37.588  1.00  0.00    -0.366 N 
HETATM   18  H12 UNK     1      18.042  -3.098  37.053  1.00  0.00     0.159 HD
HETATM   19  H13 UNK     1      18.765  -1.899  38.070  1.00  0.00     0.159 HD
ENDBRANCH   6  15
ENDBRANCH   2   5
BRANCH   3  20
HETATM   20  C12 UNK     1      20.171  -1.801  33.359  1.00  0.00     0.108 A 
HETATM   21  C13 UNK     1      20.657  -2.120  32.153  1.00  0.00     0.037 A 
HETATM   22  C14 UNK     1      20.282  -1.343  30.982  1.00  0.00     0.002 A 
HETATM   23  C15 UNK     1      19.415  -0.267  31.137  1.00  0.00     0.123 A 
HETATM   24  C18 UNK     1      20.765  -1.642  29.705  1.00  0.00     0.014 A 
HETATM   25  O2  UNK     1      18.907   0.064  32.409  1.00  0.00    -0.271 OA
HETATM   26  C17 UNK     1      19.018   0.517  30.057  1.00  0.00     0.102 A 
HETATM   27  C16 UNK     1      19.247  -0.661  33.548  1.00  0.00     0.304 A 
HETATM   28  O5  UNK     1      18.798  -0.365  34.650  1.00  0.00    -0.259 OA
HETATM   29  C19 UNK     1      19.504   0.213  28.787  1.00  0.00     0.040 A 
HETATM   30  C20 UNK     1      20.375  -0.863  28.611  1.00  0.00     0.004 A 
BRANCH  26  31
HETATM   31  O4  UNK     1      18.170   1.567  30.223  1.00  0.00    -0.353 OA
HETATM   32  C21 UNK     1      17.949   2.410  29.092  1.00  0.00     0.210 C 
ENDBRANCH  26  31
ENDBRANCH   3  20
TORSDOF 4
ENDMDL
MODEL 8
REMARK VINA RESULT:      -9.4      5.863     11.086
REMARK  4 active torsions:
REMARK  status: ('A' for Active; 'I' for Inactive)
REMARK    1  A    between atoms: C17_25  and  O4_5 
REMARK       I    between atoms: C11_19  and  N1_7 
REMARK    2  A    between atoms: C9_17  and  N1_7 
REMARK       I    between atoms: C10_18  and  N2_8 
REMARK    3  A    between atoms: C10_18  and  C8_16 
REMARK    4  A    between atoms: C11_19  and  C12_20 
ROOT
HETATM    1  O3  UNK     1      20.997  -1.673  35.648  1.00  0.00    -0.267 OA
HETATM    2  N1  UNK     1      19.674  -2.633  33.936  1.00  0.00    -0.316 N 
HETATM    3  C11 UNK     1      20.325  -2.591  35.190  1.00  0.00     0.262 C 
HETATM    4  H11 UNK     1      19.141  -3.470  33.715  1.00  0.00     0.169 HD
ENDROOT
BRANCH   2   5
HETATM    5  C9  UNK     1      19.640  -1.679  32.956  1.00  0.00     0.093 A 
HETATM    6  C8  UNK     1      19.041  -0.441  32.910  1.00  0.00     0.073 A 
HETATM    7  C5  UNK     1      19.261   0.233  31.666  1.00  0.00    -0.026 A 
HETATM    8  C3  UNK     1      18.729   1.594  31.334  1.00  0.00     0.041 C 
HETATM    9  C7  UNK     1      20.029  -0.537  30.811  1.00  0.00    -0.008 A 
HETATM   10  C1  UNK     1      17.865   1.614  30.072  1.00  0.00     0.005 C 
HETATM   11  C2  UNK     1      18.659   1.508  28.766  1.00  0.00     0.001 C 
HETATM   12  C4  UNK     1      19.302   0.143  28.503  1.00  0.00     0.005 C 
HETATM   13  C6  UNK     1      20.478  -0.187  29.424  1.00  0.00     0.046 C 
HETATM   14  S1  UNK     1      20.469  -2.037  31.508  1.00  0.00    -0.075 SA
BRANCH   6  15
HETATM   15  C10 UNK     1      18.283   0.074  34.025  1.00  0.00     0.252 C 
HETATM   16  O1  UNK     1      17.054  -0.079  34.139  1.00  0.00    -0.268 OA
HETATM   17  N2  UNK     1      18.986   0.750  35.018  1.00  0.00    -0.366 N 
HETATM   18  H12 UNK     1      19.991   0.887  34.970  1.00  0.00     0.159 HD
HETATM   19  H13 UNK     1      18.510   1.127  35.830  1.00  0.00     0.159 HD
ENDBRANCH   6  15
ENDBRANCH   2   5
BRANCH   3  20
HETATM   20  C12 UNK     1      20.136  -3.819  35.990  1.00  0.00     0.108 A 
HETATM   21  C13 UNK     1      19.631  -4.875  35.342  1.00  0.00     0.037 A 
HETATM   22  C14 UNK     1      19.409  -6.129  36.045  1.00  0.00     0.002 A 
HETATM   23  C15 UNK     1      19.730  -6.210  37.395  1.00  0.00     0.123 A 
HETATM   24  C18 UNK     1      18.885  -7.257  35.408  1.00  0.00     0.014 A 
HETATM   25  O2  UNK     1      20.262  -5.094  38.072  1.00  0.00    -0.271 OA
HETATM   26  C17 UNK     1      19.542  -7.381  38.125  1.00  0.00     0.102 A 
HETATM   27  C16 UNK     1      20.485  -3.881  37.426  1.00  0.00     0.304 A 
HETATM   28  O5  UNK     1      20.949  -2.916  38.024  1.00  0.00    -0.259 OA
HETATM   29  C19 UNK     1      19.018  -8.501  37.483  1.00  0.00     0.040 A 
HETATM   30  C20 UNK     1      18.690  -8.439  36.128  1.00  0.00     0.004 A 
BRANCH  26  31
HETATM   31  O4  UNK     1      19.860  -7.446  39.446  1.00  0.00    -0.353 OA
HETATM   32  C21 UNK     1      21.098  -8.068  39.788  1.00  0.00     0.210 C 
ENDBRANCH  26  31
ENDBRANCH   3  20
TORSDOF 4
ENDMDL
MODEL 9
REMARK VINA RESULT:      -9.3      6.387     10.111
REMARK  4 active torsions:
REMARK  status: ('A' for Active; 'I' for Inactive)
REMARK    1  A    between atoms: C17_25  and  O4_5 
REMARK       I    between atoms: C11_19  and  N1_7 
REMARK    2  A    between atoms: C9_17  and  N1_7 
REMARK       I    between atoms: C10_18  and  N2_8 
REMARK    3  A    between atoms: C10_18  and  C8_16 
REMARK    4  A    between atoms: C11_19  and  C12_20 
ROOT
HETATM    1  O3  UNK     1      19.705  -2.351  36.682  1.00  0.00    -0.267 OA
HETATM    2  N1  UNK     1      20.052  -4.163  35.199  1.00  0.00    -0.316 N 
HETATM    3  C11 UNK     1      19.788  -2.820  35.552  1.00  0.00     0.262 C 
HETATM    4  H11 UNK     1      20.104  -4.383  34.208  1.00  0.00     0.169 HD
ENDROOT
BRANCH   2   5
HETATM    5  C9  UNK     1      20.274  -5.236  36.018  1.00  0.00     0.093 A 
HETATM    6  C8  UNK     1      20.131  -6.588  35.806  1.00  0.00     0.073 A 
HETATM    7  C5  UNK     1      20.478  -7.367  36.957  1.00  0.00    -0.026 A 
HETATM    8  C3  UNK     1      20.418  -8.863  37.017  1.00  0.00     0.041 C 
HETATM    9  C7  UNK     1      20.874  -6.557  38.006  1.00  0.00    -0.008 A 
HETATM   10  C1  UNK     1      19.524  -9.387  38.141  1.00  0.00     0.005 C 
HETATM   11  C2  UNK     1      20.138  -9.267  39.540  1.00  0.00     0.001 C 
HETATM   12  C4  UNK     1      20.258  -7.838  40.079  1.00  0.00     0.005 C 
HETATM   13  C6  UNK     1      21.315  -6.986  39.373  1.00  0.00     0.046 C 
HETATM   14  S1  UNK     1      20.826  -4.895  37.596  1.00  0.00    -0.075 SA
BRANCH   6  15
HETATM   15  C10 UNK     1      19.676  -7.112  34.540  1.00  0.00     0.252 C 
HETATM   16  O1  UNK     1      18.491  -7.418  34.319  1.00  0.00    -0.268 OA
HETATM   17  N2  UNK     1      20.621  -7.250  33.528  1.00  0.00    -0.366 N 
HETATM   18  H12 UNK     1      21.597  -7.002  33.663  1.00  0.00     0.159 HD
HETATM   19  H13 UNK     1      20.360  -7.605  32.615  1.00  0.00     0.159 HD
ENDBRANCH   6  15
ENDBRANCH   2   5
BRANCH   3  20
HETATM   20  C12 UNK     1      19.601  -1.933  34.385  1.00  0.00     0.108 A 
HETATM   21  C13 UNK     1      20.187  -2.322  33.246  1.00  0.00     0.037 A 
HETATM   22  C14 UNK     1      20.059  -1.515  32.043  1.00  0.00     0.002 A 
HETATM   23  C15 UNK     1      19.322  -0.338  32.097  1.00  0.00     0.123 A 
HETATM   24  C18 UNK     1      20.653  -1.884  30.833  1.00  0.00     0.014 A 
HETATM   25  O2  UNK     1      18.707   0.067  33.299  1.00  0.00    -0.271 OA
HETATM   26  C17 UNK     1      19.162   0.480  30.980  1.00  0.00     0.102 A 
HETATM   27  C16 UNK     1      18.812  -0.685  34.466  1.00  0.00     0.304 A 
HETATM   28  O5  UNK     1      18.273  -0.324  35.507  1.00  0.00    -0.259 OA
HETATM   29  C19 UNK     1      19.757   0.106  29.778  1.00  0.00     0.040 A 
HETATM   30  C20 UNK     1      20.502  -1.073  29.704  1.00  0.00     0.004 A 
BRANCH  26  31
HETATM   31  O4  UNK     1      18.438   1.629  31.048  1.00  0.00    -0.353 OA
HETATM   32  C21 UNK     1      18.585   2.555  29.971  1.00  0.00     0.210 C 
ENDBRANCH  26  31
ENDBRANCH   3  20
TORSDOF 4
ENDMDL
MODEL 10
REMARK VINA RESULT:      -9.3      7.218     13.488
REMARK  4 active torsions:
REMARK  status: ('A' for Active; 'I' for Inactive)
REMARK    1  A    between atoms: C17_25  and  O4_5 
REMARK       I    between atoms: C11_19  and  N1_7 
REMARK    2  A    between atoms: C9_17  and  N1_7 
REMARK       I    between atoms: C10_18  and  N2_8 
REMARK    3  A    between atoms: C10_18  and  C8_16 
REMARK    4  A    between atoms: C11_19  and  C12_20 
ROOT
HETATM    1  O3  UNK     1      18.326  -5.507  36.459  1.00  0.00    -0.267 OA
HETATM    2  N1  UNK     1      20.043  -3.878  36.418  1.00  0.00    -0.316 N 
HETATM    3  C11 UNK     1      19.508  -5.184  36.499  1.00  0.00     0.262 C 
HETATM    4  H11 UNK     1      21.055  -3.786  36.451  1.00  0.00     0.169 HD
ENDROOT
BRANCH   2   5
HETATM    5  C9  UNK     1      19.382  -2.689  36.277  1.00  0.00     0.093 A 
HETATM    6  C8  UNK     1      19.316  -1.801  35.228  1.00  0.00     0.073 A 
HETATM    7  C5  UNK     1      18.496  -0.663  35.518  1.00  0.00    -0.026 A 
HETATM    8  C3  UNK     1      18.243   0.464  34.563  1.00  0.00     0.041 C 
HETATM    9  C7  UNK     1      17.969  -0.741  36.794  1.00  0.00    -0.008 A 
HETATM   10  C1  UNK     1      18.639   1.830  35.123  1.00  0.00     0.005 C 
HETATM   11  C2  UNK     1      17.670   2.384  36.173  1.00  0.00     0.001 C 
HETATM   12  C4  UNK     1      17.675   1.649  37.517  1.00  0.00     0.005 C 
HETATM   13  C6  UNK     1      17.065   0.247  37.468  1.00  0.00     0.046 C 
HETATM   14  S1  UNK     1      18.460  -2.162  37.613  1.00  0.00    -0.075 SA
BRANCH   6  15
HETATM   15  C10 UNK     1      20.019  -2.040  33.990  1.00  0.00     0.252 C 
HETATM   16  O1  UNK     1      21.207  -2.404  33.944  1.00  0.00    -0.268 OA
HETATM   17  N2  UNK     1      19.305  -1.871  32.807  1.00  0.00    -0.366 N 
HETATM   18  H12 UNK     1      18.331  -1.586  32.800  1.00  0.00     0.159 HD
HETATM   19  H13 UNK     1      19.742  -2.033  31.906  1.00  0.00     0.159 HD
ENDBRANCH   6  15
ENDBRANCH   2   5
BRANCH   3  20
HETATM   20  C12 UNK     1      20.539  -6.232  36.647  1.00  0.00     0.108 A 
HETATM   21  C13 UNK     1      20.405  -7.309  35.864  1.00  0.00     0.037 A 
HETATM   22  C14 UNK     1      21.372  -8.393  35.937  1.00  0.00     0.002 A 
HETATM   23  C15 UNK     1      22.431  -8.291  36.832  1.00  0.00     0.123 A 
HETATM   24  C18 UNK     1      21.271  -9.535  35.137  1.00  0.00     0.014 A 
HETATM   25  O2  UNK     1      22.566  -7.155  37.655  1.00  0.00    -0.271 OA
HETATM   26  C17 UNK     1      23.390  -9.295  36.951  1.00  0.00     0.102 A 
HETATM   27  C16 UNK     1      21.658  -6.101  37.606  1.00  0.00     0.304 A 
HETATM   28  O5  UNK     1      21.785  -5.117  38.326  1.00  0.00    -0.259 OA
HETATM   29  C19 UNK     1      23.283 -10.430  36.151  1.00  0.00     0.040 A 
HETATM   30  C20 UNK     1      22.226 -10.550  35.246  1.00  0.00     0.004 A 
BRANCH  26  31
HETATM   31  O4  UNK     1      24.421  -9.183  37.831  1.00  0.00    -0.353 OA
HETATM   32  C21 UNK     1      25.742  -9.171  37.289  1.00  0.00     0.210 C 
ENDBRANCH  26  31
ENDBRANCH   3  20
TORSDOF 4
ENDMDL
