MODEL 1
REMARK VINA RESULT:      -8.8      0.000      0.000
REMARK  2 active torsions:
REMARK  status: ('A' for Active; 'I' for Inactive)
REMARK       I    between atoms: C6_13  and  N1_7 
REMARK    1  A    between atoms: C9_16  and  N1_7 
REMARK    2  A    between atoms: C2_9  and  C6_13 
ROOT
HETATM    1 Br1  UNK     1      21.164  -3.592  31.529  1.00  0.00    -0.051 Br
HETATM    2  O1  UNK     1      19.152   1.486  28.887  1.00  0.00    -0.274 OA
HETATM    3  O3  UNK     1      18.293   3.597  29.044  1.00  0.00    -0.259 OA
HETATM    4  C1  UNK     1      19.625   0.229  30.915  1.00  0.00     0.000 A 
HETATM    5  C2  UNK     1      18.713   2.468  31.084  1.00  0.00     0.108 A 
HETATM    6  C3  UNK     1      19.614   0.318  29.526  1.00  0.00     0.089 A 
HETATM    7  C4  UNK     1      19.151   1.362  31.696  1.00  0.00     0.037 A 
HETATM    8  C5  UNK     1      20.090  -0.945  31.512  1.00  0.00     0.033 A 
HETATM    9  C7  UNK     1      18.693   2.585  29.608  1.00  0.00     0.304 A 
HETATM   10  C8  UNK     1      20.055  -0.729  28.721  1.00  0.00     0.039 A 
HETATM   11  C10 UNK     1      20.535  -2.004  30.715  1.00  0.00     0.011 A 
HETATM   12  C11 UNK     1      20.518  -1.896  29.323  1.00  0.00     0.022 A 
ENDROOT
BRANCH   5  13
HETATM   13  C6  UNK     1      18.257   3.555  31.958  1.00  0.00     0.262 C 
HETATM   14  O2  UNK     1      17.608   3.294  32.969  1.00  0.00    -0.267 OA
HETATM   15  N1  UNK     1      18.645   4.803  31.488  1.00  0.00    -0.321 N 
HETATM   16  H4  UNK     1      19.201   4.852  30.638  1.00  0.00     0.169 HD
BRANCH  15  17
HETATM   17  C9  UNK     1      18.379   6.066  32.071  1.00  0.00     0.057 A 
HETATM   18  C12 UNK     1      19.381   6.776  32.714  1.00  0.00     0.062 A 
HETATM   19 Cl1  UNK     1      20.996   6.175  32.840  1.00  0.00    -0.082 Cl
HETATM   20  C14 UNK     1      19.085   8.016  33.279  1.00  0.00     0.050 A 
HETATM   21  C16 UNK     1      17.792   8.531  33.193  1.00  0.00     0.035 A 
HETATM   22  C15 UNK     1      16.793   7.805  32.543  1.00  0.00     0.026 A 
HETATM   23 Cl2  UNK     1      17.426  10.062  33.889  1.00  0.00    -0.084 Cl
HETATM   24  C13 UNK     1      17.089   6.565  31.978  1.00  0.00     0.033 A 
ENDBRANCH  15  17
ENDBRANCH   5  13
TORSDOF 2
ENDMDL
MODEL 2
REMARK VINA RESULT:      -8.7      8.324     10.265
REMARK  2 active torsions:
REMARK  status: ('A' for Active; 'I' for Inactive)
REMARK       I    between atoms: C6_13  and  N1_7 
REMARK    1  A    between atoms: C9_16  and  N1_7 
REMARK    2  A    between atoms: C2_9  and  C6_13 
ROOT
HETATM    1 Br1  UNK     1      23.740 -11.204  36.072  1.00  0.00    -0.051 Br
HETATM    2  O1  UNK     1      18.607  -8.090  36.945  1.00  0.00    -0.274 OA
HETATM    3  O3  UNK     1      17.521  -6.105  37.265  1.00  0.00    -0.259 OA
HETATM    4  C1  UNK     1      21.025  -8.105  36.681  1.00  0.00     0.000 A 
HETATM    5  C2  UNK     1      19.875  -5.999  37.021  1.00  0.00     0.108 A 
HETATM    6  C3  UNK     1      19.813  -8.788  36.743  1.00  0.00     0.089 A 
HETATM    7  C4  UNK     1      21.024  -6.658  36.829  1.00  0.00     0.037 A 
HETATM    8  C5  UNK     1      22.199  -8.833  36.480  1.00  0.00     0.033 A 
HETATM    9  C7  UNK     1      18.575  -6.705  37.090  1.00  0.00     0.304 A 
HETATM   10  C8  UNK     1      19.745 -10.173  36.609  1.00  0.00     0.039 A 
HETATM   11  C10 UNK     1      22.145 -10.223  36.344  1.00  0.00     0.011 A 
HETATM   12  C11 UNK     1      20.921 -10.891  36.408  1.00  0.00     0.022 A 
ENDROOT
BRANCH   5  13
HETATM   13  C6  UNK     1      19.978  -4.542  37.158  1.00  0.00     0.262 C 
HETATM   14  O2  UNK     1      20.935  -4.051  37.754  1.00  0.00    -0.267 OA
HETATM   15  N1  UNK     1      18.913  -3.882  36.559  1.00  0.00    -0.321 N 
HETATM   16  H4  UNK     1      18.204  -4.436  36.083  1.00  0.00     0.169 HD
BRANCH  15  17
HETATM   17  C9  UNK     1      18.685  -2.486  36.499  1.00  0.00     0.057 A 
HETATM   18  C12 UNK     1      19.209  -1.725  35.467  1.00  0.00     0.062 A 
HETATM   19 Cl1  UNK     1      20.157  -2.422  34.201  1.00  0.00    -0.082 Cl
HETATM   20  C14 UNK     1      18.967  -0.352  35.439  1.00  0.00     0.050 A 
HETATM   21  C16 UNK     1      18.203   0.242  36.443  1.00  0.00     0.035 A 
HETATM   22  C15 UNK     1      17.683  -0.536  37.477  1.00  0.00     0.026 A 
HETATM   23 Cl2  UNK     1      17.904   1.937  36.409  1.00  0.00    -0.084 Cl
HETATM   24  C13 UNK     1      17.925  -1.909  37.505  1.00  0.00     0.033 A 
ENDBRANCH  15  17
ENDBRANCH   5  13
TORSDOF 2
ENDMDL
MODEL 3
REMARK VINA RESULT:      -8.6      8.331     11.660
REMARK  2 active torsions:
REMARK  status: ('A' for Active; 'I' for Inactive)
REMARK       I    between atoms: C6_13  and  N1_7 
REMARK    1  A    between atoms: C9_16  and  N1_7 
REMARK    2  A    between atoms: C2_9  and  C6_13 
ROOT
HETATM    1 Br1  UNK     1      16.022   2.039  37.572  1.00  0.00    -0.051 Br
HETATM    2  O1  UNK     1      19.564  -1.439  34.083  1.00  0.00    -0.274 OA
HETATM    3  O3  UNK     1      20.783  -3.347  33.772  1.00  0.00    -0.259 OA
HETATM    4  C1  UNK     1      18.409  -1.084  36.194  1.00  0.00     0.000 A 
HETATM    5  C2  UNK     1      19.701  -3.108  35.866  1.00  0.00     0.108 A 
HETATM    6  C3  UNK     1      18.744  -0.651  34.914  1.00  0.00     0.089 A 
HETATM    7  C4  UNK     1      18.921  -2.364  36.659  1.00  0.00     0.037 A 
HETATM    8  C5  UNK     1      17.593  -0.275  36.987  1.00  0.00     0.033 A 
HETATM    9  C7  UNK     1      20.069  -2.667  34.501  1.00  0.00     0.304 A 
HETATM   10  C8  UNK     1      18.286   0.563  34.408  1.00  0.00     0.039 A 
HETATM   11  C10 UNK     1      17.126   0.946  36.492  1.00  0.00     0.011 A 
HETATM   12  C11 UNK     1      17.472   1.364  35.205  1.00  0.00     0.022 A 
ENDROOT
BRANCH   5  13
HETATM   13  C6  UNK     1      20.167  -4.382  36.425  1.00  0.00     0.262 C 
HETATM   14  O2  UNK     1      21.244  -4.431  37.015  1.00  0.00    -0.267 OA
HETATM   15  N1  UNK     1      19.270  -5.416  36.193  1.00  0.00    -0.321 N 
HETATM   16  H4  UNK     1      18.404  -5.208  35.702  1.00  0.00     0.169 HD
BRANCH  15  17
HETATM   17  C9  UNK     1      19.394  -6.772  36.584  1.00  0.00     0.057 A 
HETATM   18  C12 UNK     1      19.947  -7.710  35.728  1.00  0.00     0.062 A 
HETATM   19 Cl1  UNK     1      20.518  -7.292  34.151  1.00  0.00    -0.082 Cl
HETATM   20  C14 UNK     1      20.053  -9.037  36.144  1.00  0.00     0.050 A 
HETATM   21  C16 UNK     1      19.604  -9.408  37.412  1.00  0.00     0.035 A 
HETATM   22  C15 UNK     1      19.049  -8.452  38.263  1.00  0.00     0.026 A 
HETATM   23 Cl2  UNK     1      19.735 -11.045  37.926  1.00  0.00    -0.084 Cl
HETATM   24  C13 UNK     1      18.943  -7.126  37.846  1.00  0.00     0.033 A 
ENDBRANCH  15  17
ENDBRANCH   5  13
TORSDOF 2
ENDMDL
MODEL 4
REMARK VINA RESULT:      -8.5     15.294     18.687
REMARK  2 active torsions:
REMARK  status: ('A' for Active; 'I' for Inactive)
REMARK       I    between atoms: C6_13  and  N1_7 
REMARK    1  A    between atoms: C9_16  and  N1_7 
REMARK    2  A    between atoms: C2_9  and  C6_13 
ROOT
HETATM    1 Br1  UNK     1      19.022   2.044  21.073  1.00  0.00    -0.051 Br
HETATM    2  O1  UNK     1      19.240   0.874  15.124  1.00  0.00    -0.274 OA
HETATM    3  O3  UNK     1      19.182  -0.615  13.391  1.00  0.00    -0.259 OA
HETATM    4  C1  UNK     1      19.023   0.066  17.408  1.00  0.00     0.000 A 
HETATM    5  C2  UNK     1      18.963  -1.515  15.572  1.00  0.00     0.108 A 
HETATM    6  C3  UNK     1      19.186   1.118  16.510  1.00  0.00     0.089 A 
HETATM    7  C4  UNK     1      18.910  -1.289  16.890  1.00  0.00     0.037 A 
HETATM    8  C5  UNK     1      18.975   0.348  18.775  1.00  0.00     0.033 A 
HETATM    9  C7  UNK     1      19.135  -0.412  14.600  1.00  0.00     0.304 A 
HETATM   10  C8  UNK     1      19.300   2.438  16.940  1.00  0.00     0.039 A 
HETATM   11  C10 UNK     1      19.088   1.668  19.220  1.00  0.00     0.011 A 
HETATM   12  C11 UNK     1      19.250   2.710  18.305  1.00  0.00     0.022 A 
ENDROOT
BRANCH   5  13
HETATM   13  C6  UNK     1      18.839  -2.914  15.148  1.00  0.00     0.262 C 
HETATM   14  O2  UNK     1      17.812  -3.540  15.403  1.00  0.00    -0.267 OA
HETATM   15  N1  UNK     1      19.970  -3.361  14.478  1.00  0.00    -0.321 N 
HETATM   16  H4  UNK     1      20.736  -2.708  14.328  1.00  0.00     0.169 HD
BRANCH  15  17
HETATM   17  C9  UNK     1      20.200  -4.648  13.934  1.00  0.00     0.057 A 
HETATM   18  C12 UNK     1      19.858  -4.936  12.623  1.00  0.00     0.062 A 
HETATM   19 Cl1  UNK     1      19.143  -3.757  11.580  1.00  0.00    -0.082 Cl
HETATM   20  C14 UNK     1      20.096  -6.214  12.119  1.00  0.00     0.050 A 
HETATM   21  C16 UNK     1      20.674  -7.188  12.932  1.00  0.00     0.035 A 
HETATM   22  C15 UNK     1      21.012  -6.884  14.251  1.00  0.00     0.026 A 
HETATM   23 Cl2  UNK     1      20.969  -8.766  12.311  1.00  0.00    -0.084 Cl
HETATM   24  C13 UNK     1      20.774  -5.606  14.755  1.00  0.00     0.033 A 
ENDBRANCH  15  17
ENDBRANCH   5  13
TORSDOF 2
ENDMDL
MODEL 5
REMARK VINA RESULT:      -8.5     14.426     15.847
REMARK  2 active torsions:
REMARK  status: ('A' for Active; 'I' for Inactive)
REMARK       I    between atoms: C6_13  and  N1_7 
REMARK    1  A    between atoms: C9_16  and  N1_7 
REMARK    2  A    between atoms: C2_9  and  C6_13 
ROOT
HETATM    1 Br1  UNK     1      33.258  -6.642  37.912  1.00  0.00    -0.051 Br
HETATM    2  O1  UNK     1      27.538  -4.773  38.684  1.00  0.00    -0.274 OA
HETATM    3  O3  UNK     1      25.313  -5.238  38.915  1.00  0.00    -0.259 OA
HETATM    4  C1  UNK     1      29.121  -6.596  38.394  1.00  0.00     0.000 A 
HETATM    5  C2  UNK     1      26.762  -7.092  38.638  1.00  0.00     0.108 A 
HETATM    6  C3  UNK     1      28.857  -5.234  38.504  1.00  0.00     0.089 A 
HETATM    7  C4  UNK     1      28.013  -7.536  38.467  1.00  0.00     0.037 A 
HETATM    8  C5  UNK     1      30.442  -7.014  38.216  1.00  0.00     0.033 A 
HETATM    9  C7  UNK     1      26.457  -5.648  38.758  1.00  0.00     0.304 A 
HETATM   10  C8  UNK     1      29.872  -4.283  38.443  1.00  0.00     0.039 A 
HETATM   11  C10 UNK     1      31.471  -6.070  38.153  1.00  0.00     0.011 A 
HETATM   12  C11 UNK     1      31.187  -4.708  38.266  1.00  0.00     0.022 A 
ENDROOT
BRANCH   5  13
HETATM   13  C6  UNK     1      25.713  -8.117  38.699  1.00  0.00     0.262 C 
HETATM   14  O2  UNK     1      25.909  -9.152  39.332  1.00  0.00    -0.267 OA
HETATM   15  N1  UNK     1      24.578  -7.748  37.989  1.00  0.00    -0.321 N 
HETATM   16  H4  UNK     1      24.564  -6.840  37.531  1.00  0.00     0.169 HD
BRANCH  15  17
HETATM   17  C9  UNK     1      23.381  -8.488  37.831  1.00  0.00     0.057 A 
HETATM   18  C12 UNK     1      22.333  -8.343  38.726  1.00  0.00     0.062 A 
HETATM   19 Cl1  UNK     1      22.418  -7.263  40.073  1.00  0.00    -0.082 Cl
HETATM   20  C14 UNK     1      21.168  -9.087  38.542  1.00  0.00     0.050 A 
HETATM   21  C16 UNK     1      21.066  -9.967  37.465  1.00  0.00     0.035 A 
HETATM   22  C15 UNK     1      22.129 -10.103  36.571  1.00  0.00     0.026 A 
HETATM   23 Cl2  UNK     1      19.628 -10.886  37.236  1.00  0.00    -0.084 Cl
HETATM   24  C13 UNK     1      23.294  -9.358  36.755  1.00  0.00     0.033 A 
ENDBRANCH  15  17
ENDBRANCH   5  13
TORSDOF 2
ENDMDL
MODEL 6
REMARK VINA RESULT:      -8.4      7.553     10.967
REMARK  2 active torsions:
REMARK  status: ('A' for Active; 'I' for Inactive)
REMARK       I    between atoms: C6_13  and  N1_7 
REMARK    1  A    between atoms: C9_16  and  N1_7 
REMARK    2  A    between atoms: C2_9  and  C6_13 
ROOT
HETATM    1 Br1  UNK     1      20.326  -0.451  29.236  1.00  0.00    -0.051 Br
HETATM    2  O1  UNK     1      18.625  -0.736  35.053  1.00  0.00    -0.274 OA
HETATM    3  O3  UNK     1      18.589  -1.832  37.058  1.00  0.00    -0.259 OA
HETATM    4  C1  UNK     1      19.781  -1.736  33.161  1.00  0.00     0.000 A 
HETATM    5  C2  UNK     1      19.743  -2.900  35.286  1.00  0.00     0.108 A 
HETATM    6  C3  UNK     1      19.033  -0.695  33.706  1.00  0.00     0.089 A 
HETATM    7  C4  UNK     1      20.133  -2.866  34.006  1.00  0.00     0.037 A 
HETATM    8  C5  UNK     1      20.166  -1.659  31.821  1.00  0.00     0.033 A 
HETATM    9  C7  UNK     1      18.947  -1.804  35.886  1.00  0.00     0.304 A 
HETATM   10  C8  UNK     1      18.663   0.415  32.951  1.00  0.00     0.039 A 
HETATM   11  C10 UNK     1      19.801  -0.550  31.052  1.00  0.00     0.011 A 
HETATM   12  C11 UNK     1      19.052   0.484  31.615  1.00  0.00     0.022 A 
ENDROOT
BRANCH   5  13
HETATM   13  C6  UNK     1      20.148  -4.081  36.057  1.00  0.00     0.262 C 
HETATM   14  O2  UNK     1      21.097  -4.005  36.835  1.00  0.00    -0.267 OA
HETATM   15  N1  UNK     1      19.354  -5.185  35.780  1.00  0.00    -0.321 N 
HETATM   16  H4  UNK     1      18.587  -5.080  35.120  1.00  0.00     0.169 HD
BRANCH  15  17
HETATM   17  C9  UNK     1      19.457  -6.484  36.334  1.00  0.00     0.057 A 
HETATM   18  C12 UNK     1      20.023  -7.522  35.611  1.00  0.00     0.062 A 
HETATM   19 Cl1  UNK     1      20.634  -7.299  34.010  1.00  0.00    -0.082 Cl
HETATM   20  C14 UNK     1      20.108  -8.789  36.186  1.00  0.00     0.050 A 
HETATM   21  C16 UNK     1      19.627  -9.003  37.477  1.00  0.00     0.035 A 
HETATM   22  C15 UNK     1      19.059  -7.950  38.194  1.00  0.00     0.026 A 
HETATM   23 Cl2  UNK     1      19.732 -10.568  38.188  1.00  0.00    -0.084 Cl
HETATM   24  C13 UNK     1      18.974  -6.682  37.619  1.00  0.00     0.033 A 
ENDBRANCH  15  17
ENDBRANCH   5  13
TORSDOF 2
ENDMDL
MODEL 7
REMARK VINA RESULT:      -8.3      8.668     10.454
REMARK  2 active torsions:
REMARK  status: ('A' for Active; 'I' for Inactive)
REMARK       I    between atoms: C6_13  and  N1_7 
REMARK    1  A    between atoms: C9_16  and  N1_7 
REMARK    2  A    between atoms: C2_9  and  C6_13 
ROOT
HETATM    1 Br1  UNK     1      19.260 -11.415  40.483  1.00  0.00    -0.051 Br
HETATM    2  O1  UNK     1      20.128  -7.938  35.587  1.00  0.00    -0.274 OA
HETATM    3  O3  UNK     1      20.369  -5.874  34.637  1.00  0.00    -0.259 OA
HETATM    4  C1  UNK     1      19.782  -8.121  37.987  1.00  0.00     0.000 A 
HETATM    5  C2  UNK     1      20.037  -5.931  36.982  1.00  0.00     0.108 A 
HETATM    6  C3  UNK     1      19.925  -8.722  36.740  1.00  0.00     0.089 A 
HETATM    7  C4  UNK     1      19.844  -6.670  38.081  1.00  0.00     0.037 A 
HETATM    8  C5  UNK     1      19.582  -8.932  39.107  1.00  0.00     0.033 A 
HETATM    9  C7  UNK     1      20.192  -6.548  35.645  1.00  0.00     0.304 A 
HETATM   10  C8  UNK     1      19.876 -10.105  36.582  1.00  0.00     0.039 A 
HETATM   11  C10 UNK     1      19.531 -10.321  38.963  1.00  0.00     0.011 A 
HETATM   12  C11 UNK     1      19.677 -10.906  37.703  1.00  0.00     0.022 A 
ENDROOT
BRANCH   5  13
HETATM   13  C6  UNK     1      20.085  -4.477  37.179  1.00  0.00     0.262 C 
HETATM   14  O2  UNK     1      21.010  -3.979  37.817  1.00  0.00    -0.267 OA
HETATM   15  N1  UNK     1      19.012  -3.831  36.580  1.00  0.00    -0.321 N 
HETATM   16  H4  UNK     1      18.335  -4.388  36.065  1.00  0.00     0.169 HD
BRANCH  15  17
HETATM   17  C9  UNK     1      18.738  -2.442  36.568  1.00  0.00     0.057 A 
HETATM   18  C12 UNK     1      19.167  -1.642  35.522  1.00  0.00     0.062 A 
HETATM   19 Cl1  UNK     1      20.051  -2.279  34.181  1.00  0.00    -0.082 Cl
HETATM   20  C14 UNK     1      18.882  -0.277  35.543  1.00  0.00     0.050 A 
HETATM   21  C16 UNK     1      18.169   0.270  36.610  1.00  0.00     0.035 A 
HETATM   22  C15 UNK     1      17.743  -0.548  37.657  1.00  0.00     0.026 A 
HETATM   23 Cl2  UNK     1      17.815   1.955  36.636  1.00  0.00    -0.084 Cl
HETATM   24  C13 UNK     1      18.029  -1.913  37.636  1.00  0.00     0.033 A 
ENDBRANCH  15  17
ENDBRANCH   5  13
TORSDOF 2
ENDMDL
MODEL 8
REMARK VINA RESULT:      -8.1      3.146      3.965
REMARK  2 active torsions:
REMARK  status: ('A' for Active; 'I' for Inactive)
REMARK       I    between atoms: C6_13  and  N1_7 
REMARK    1  A    between atoms: C9_16  and  N1_7 
REMARK    2  A    between atoms: C2_9  and  C6_13 
ROOT
HETATM    1 Br1  UNK     1      17.915  -0.433  37.908  1.00  0.00    -0.051 Br
HETATM    2  O1  UNK     1      18.411   1.307  32.117  1.00  0.00    -0.274 OA
HETATM    3  O3  UNK     1      18.523   2.961  30.545  1.00  0.00    -0.259 OA
HETATM    4  C1  UNK     1      18.185   1.896  34.466  1.00  0.00     0.000 A 
HETATM    5  C2  UNK     1      18.303   3.653  32.801  1.00  0.00     0.108 A 
HETATM    6  C3  UNK     1      18.294   0.930  33.469  1.00  0.00     0.089 A 
HETATM    7  C4  UNK     1      18.193   3.301  34.087  1.00  0.00     0.037 A 
HETATM    8  C5  UNK     1      18.072   1.484  35.795  1.00  0.00     0.033 A 
HETATM    9  C7  UNK     1      18.421   2.643  31.724  1.00  0.00     0.304 A 
HETATM   10  C8  UNK     1      18.294  -0.431  33.765  1.00  0.00     0.039 A 
HETATM   11  C10 UNK     1      18.070   0.121  36.106  1.00  0.00     0.011 A 
HETATM   12  C11 UNK     1      18.181  -0.834  35.093  1.00  0.00     0.022 A 
ENDROOT
BRANCH   5  13
HETATM   13  C6  UNK     1      18.302   5.093  32.519  1.00  0.00     0.262 C 
HETATM   14  O2  UNK     1      18.283   5.487  31.355  1.00  0.00    -0.267 OA
HETATM   15  N1  UNK     1      18.325   5.854  33.681  1.00  0.00    -0.321 N 
HETATM   16  H4  UNK     1      18.318   5.374  34.577  1.00  0.00     0.169 HD
BRANCH  15  17
HETATM   17  C9  UNK     1      18.333   7.266  33.788  1.00  0.00     0.057 A 
HETATM   18  C12 UNK     1      17.175   8.000  33.586  1.00  0.00     0.062 A 
HETATM   19 Cl1  UNK     1      15.667   7.249  33.200  1.00  0.00    -0.082 Cl
HETATM   20  C14 UNK     1      17.218   9.389  33.697  1.00  0.00     0.050 A 
HETATM   21  C16 UNK     1      18.418  10.027  34.010  1.00  0.00     0.035 A 
HETATM   22  C15 UNK     1      19.576   9.276  34.209  1.00  0.00     0.026 A 
HETATM   23 Cl2  UNK     1      18.471  11.742  34.148  1.00  0.00    -0.084 Cl
HETATM   24  C13 UNK     1      19.533   7.886  34.098  1.00  0.00     0.033 A 
ENDBRANCH  15  17
ENDBRANCH   5  13
TORSDOF 2
ENDMDL
MODEL 9
REMARK VINA RESULT:      -8.0      2.350      2.897
REMARK  2 active torsions:
REMARK  status: ('A' for Active; 'I' for Inactive)
REMARK       I    between atoms: C6_13  and  N1_7 
REMARK    1  A    between atoms: C9_16  and  N1_7 
REMARK    2  A    between atoms: C2_9  and  C6_13 
ROOT
HETATM    1 Br1  UNK     1      18.231  -1.310  36.609  1.00  0.00    -0.051 Br
HETATM    2  O1  UNK     1      18.783   1.219  31.122  1.00  0.00    -0.274 OA
HETATM    3  O3  UNK     1      18.738   3.064  29.774  1.00  0.00    -0.259 OA
HETATM    4  C1  UNK     1      18.346   1.462  33.502  1.00  0.00     0.000 A 
HETATM    5  C2  UNK     1      18.297   3.419  32.075  1.00  0.00     0.108 A 
HETATM    6  C3  UNK     1      18.649   0.658  32.407  1.00  0.00     0.089 A 
HETATM    7  C4  UNK     1      18.168   2.891  33.298  1.00  0.00     0.037 A 
HETATM    8  C5  UNK     1      18.221   0.868  34.760  1.00  0.00     0.033 A 
HETATM    9  C7  UNK     1      18.619   2.583  30.896  1.00  0.00     0.304 A 
HETATM   10  C8  UNK     1      18.832  -0.717  32.535  1.00  0.00     0.039 A 
HETATM   11  C10 UNK     1      18.401  -0.511  34.903  1.00  0.00     0.011 A 
HETATM   12  C11 UNK     1      18.706  -1.301  33.793  1.00  0.00     0.022 A 
ENDROOT
BRANCH   5  13
HETATM   13  C6  UNK     1      18.100   4.870  31.971  1.00  0.00     0.262 C 
HETATM   14  O2  UNK     1      18.287   5.434  30.895  1.00  0.00    -0.267 OA
HETATM   15  N1  UNK     1      17.707   5.434  33.177  1.00  0.00    -0.321 N 
HETATM   16  H4  UNK     1      17.575   4.823  33.980  1.00  0.00     0.169 HD
BRANCH  15  17
HETATM   17  C9  UNK     1      17.432   6.797  33.444  1.00  0.00     0.057 A 
HETATM   18  C12 UNK     1      18.461   7.712  33.596  1.00  0.00     0.062 A 
HETATM   19 Cl1  UNK     1      20.123   7.256  33.466  1.00  0.00    -0.082 Cl
HETATM   20  C14 UNK     1      18.156   9.047  33.860  1.00  0.00     0.050 A 
HETATM   21  C16 UNK     1      16.825   9.449  33.969  1.00  0.00     0.035 A 
HETATM   22  C15 UNK     1      15.799   8.517  33.814  1.00  0.00     0.026 A 
HETATM   23 Cl2  UNK     1      16.447  11.097  34.294  1.00  0.00    -0.084 Cl
HETATM   24  C13 UNK     1      16.104   7.182  33.550  1.00  0.00     0.033 A 
ENDBRANCH  15  17
ENDBRANCH   5  13
TORSDOF 2
ENDMDL
MODEL 10
REMARK VINA RESULT:      -7.9     13.326     15.920
REMARK  2 active torsions:
REMARK  status: ('A' for Active; 'I' for Inactive)
REMARK       I    between atoms: C6_13  and  N1_7 
REMARK    1  A    between atoms: C9_16  and  N1_7 
REMARK    2  A    between atoms: C2_9  and  C6_13 
ROOT
HETATM    1 Br1  UNK     1      19.788  -9.798  38.453  1.00  0.00    -0.051 Br
HETATM    2  O1  UNK     1      23.997  -5.446  38.841  1.00  0.00    -0.274 OA
HETATM    3  O3  UNK     1      26.186  -4.813  39.021  1.00  0.00    -0.259 OA
HETATM    4  C1  UNK     1      23.435  -7.811  38.766  1.00  0.00     0.000 A 
HETATM    5  C2  UNK     1      25.756  -7.142  38.957  1.00  0.00     0.108 A 
HETATM    6  C3  UNK     1      23.041  -6.476  38.752  1.00  0.00     0.089 A 
HETATM    7  C4  UNK     1      24.852  -8.125  38.873  1.00  0.00     0.037 A 
HETATM    8  C5  UNK     1      22.457  -8.804  38.676  1.00  0.00     0.033 A 
HETATM    9  C7  UNK     1      25.360  -5.716  38.944  1.00  0.00     0.304 A 
HETATM   10  C8  UNK     1      21.701  -6.109  38.651  1.00  0.00     0.039 A 
HETATM   11  C10 UNK     1      21.109  -8.449  38.574  1.00  0.00     0.011 A 
HETATM   12  C11 UNK     1      20.732  -7.105  38.561  1.00  0.00     0.022 A 
ENDROOT
BRANCH   5  13
HETATM   13  C6  UNK     1      27.160  -7.559  39.062  1.00  0.00     0.262 C 
HETATM   14  O2  UNK     1      27.464  -8.497  39.795  1.00  0.00    -0.267 OA
HETATM   15  N1  UNK     1      27.997  -6.785  38.269  1.00  0.00    -0.321 N 
HETATM   16  H4  UNK     1      27.585  -6.051  37.698  1.00  0.00     0.169 HD
BRANCH  15  17
HETATM   17  C9  UNK     1      29.401  -6.901  38.126  1.00  0.00     0.057 A 
HETATM   18  C12 UNK     1      30.242  -5.869  38.508  1.00  0.00     0.062 A 
HETATM   19 Cl1  UNK     1      29.639  -4.394  39.179  1.00  0.00    -0.082 Cl
HETATM   20  C14 UNK     1      31.619  -6.015  38.351  1.00  0.00     0.050 A 
HETATM   21  C16 UNK     1      32.139  -7.193  37.815  1.00  0.00     0.035 A 
HETATM   22  C15 UNK     1      31.280  -8.224  37.434  1.00  0.00     0.026 A 
HETATM   23 Cl2  UNK     1      33.840  -7.375  37.622  1.00  0.00    -0.084 Cl
HETATM   24  C13 UNK     1      29.902  -8.078  37.591  1.00  0.00     0.033 A 
ENDBRANCH  15  17
ENDBRANCH   5  13
TORSDOF 2
ENDMDL
