MODEL 1
REMARK VINA RESULT:      -8.3      0.000      0.000
REMARK  6 active torsions:
REMARK  status: ('A' for Active; 'I' for Inactive)
REMARK    1  A    between atoms: C15_22  and  O3_3 
REMARK    2  A    between atoms: C26_33  and  O3_3 
REMARK    3  A    between atoms: C21_28  and  N2_7 
REMARK    4  A    between atoms: C1_8  and  C9_16 
REMARK    5  A    between atoms: C11_18  and  C5_12 
REMARK    6  A    between atoms: C15_22  and  C8_15 
ROOT
HETATM    1  O1  UNK     1      28.441  -9.788  36.549  1.00  0.00    -0.293 OA
HETATM    2  N1  UNK     1      27.932  -5.637  38.776  1.00  0.00    -0.362 N 
HETATM    3  C1  UNK     1      25.391  -8.096  37.499  1.00  0.00     0.031 C 
HETATM    4  C2  UNK     1      25.965  -7.081  38.499  1.00  0.00     0.067 C 
HETATM    5  C3  UNK     1      28.237  -7.660  37.583  1.00  0.00     0.024 C 
HETATM    6  C4  UNK     1      27.429  -6.816  38.260  1.00  0.00     0.021 C 
HETATM    7  C5  UNK     1      29.700  -7.317  37.325  1.00  0.00     0.104 C 
HETATM    8  C6  UNK     1      26.275  -9.344  37.451  1.00  0.00     0.093 C 
HETATM    9  C7  UNK     1      27.708  -8.983  37.124  1.00  0.00     0.159 C 
HETATM   10  C8  UNK     1      30.152  -6.060  38.069  1.00  0.00     0.052 C 
HETATM   11  C10 UNK     1      29.269  -5.274  38.728  1.00  0.00     0.018 C 
HETATM   12  C14 UNK     1      29.606  -3.995  39.447  1.00  0.00     0.069 C 
HETATM   13  H7  UNK     1      27.296  -5.030  39.280  1.00  0.00     0.165 HD
ENDROOT
BRANCH   7  14
HETATM   14  C11 UNK     1      29.948  -7.161  35.849  1.00  0.00     0.029 A 
HETATM   15  C16 UNK     1      31.082  -7.898  35.237  1.00  0.00     0.194 A 
HETATM   16  O5  UNK     1      31.815  -8.626  35.894  1.00  0.00    -0.287 OA
HETATM   17  C18 UNK     1      31.282  -7.708  33.788  1.00  0.00     0.049 A 
HETATM   18  C22 UNK     1      30.416  -6.866  33.090  1.00  0.00     0.089 A 
HETATM   19  C23 UNK     1      32.321  -8.359  33.119  1.00  0.00     0.025 A 
HETATM   20  O2  UNK     1      29.378  -6.202  33.696  1.00  0.00    -0.321 OA
HETATM   21  C24 UNK     1      30.584  -6.671  31.718  1.00  0.00     0.039 A 
HETATM   22  C17 UNK     1      29.206  -6.388  35.044  1.00  0.00     0.154 A 
HETATM   23  C27 UNK     1      31.623  -7.321  31.049  1.00  0.00     0.009 A 
HETATM   24  C25 UNK     1      32.489  -8.162  31.749  1.00  0.00    -0.061 A 
HETATM   25  C30 UNK     1      33.596  -8.855  31.027  1.00  0.00     0.048 C 
ENDBRANCH   7  14
BRANCH  10  26
HETATM   26  C15 UNK     1      31.598  -5.782  38.080  1.00  0.00     0.292 C 
HETATM   27  O4  UNK     1      32.407  -6.474  38.669  1.00  0.00    -0.259 OA
BRANCH  26  28
HETATM   28  O3  UNK     1      31.823  -4.667  37.345  1.00  0.00    -0.318 OA
BRANCH  28  29
HETATM   29  C26 UNK     1      32.911  -4.762  36.419  1.00  0.00     0.174 C 
HETATM   30  C31 UNK     1      32.420  -4.377  35.040  1.00  0.00     0.034 C 
ENDBRANCH  28  29
ENDBRANCH  26  28
ENDBRANCH  10  26
BRANCH   3  31
HETATM   31  C9  UNK     1      23.942  -8.428  37.798  1.00  0.00    -0.053 A 
HETATM   32  C12 UNK     1      23.371  -8.031  39.005  1.00  0.00     0.010 A 
HETATM   33  C19 UNK     1      22.038  -8.337  39.280  1.00  0.00     0.030 A 
HETATM   34  C21 UNK     1      21.278  -9.040  38.345  1.00  0.00     0.029 A 
HETATM   35  C20 UNK     1      21.851  -9.436  37.135  1.00  0.00     0.030 A 
HETATM   36  C13 UNK     1      23.184  -9.130  36.862  1.00  0.00     0.010 A 
BRANCH  34  37
HETATM   37  N2  UNK     1      19.929  -9.348  38.621  1.00  0.00    -0.390 N 
HETATM   38  C28 UNK     1      18.892  -8.359  38.409  1.00  0.00     0.149 C 
HETATM   39  C29 UNK     1      19.562 -10.663  39.108  1.00  0.00     0.149 C 
ENDBRANCH  34  37
ENDBRANCH   3  31
TORSDOF 6
ENDMDL
MODEL 2
REMARK VINA RESULT:      -8.2      5.455     11.435
REMARK  6 active torsions:
REMARK  status: ('A' for Active; 'I' for Inactive)
REMARK    1  A    between atoms: C15_22  and  O3_3 
REMARK    2  A    between atoms: C26_33  and  O3_3 
REMARK    3  A    between atoms: C21_28  and  N2_7 
REMARK    4  A    between atoms: C1_8  and  C9_16 
REMARK    5  A    between atoms: C11_18  and  C5_12 
REMARK    6  A    between atoms: C15_22  and  C8_15 
ROOT
HETATM    1  O1  UNK     1      32.943  -9.584  34.600  1.00  0.00    -0.293 OA
HETATM    2  N1  UNK     1      32.744  -8.021  30.132  1.00  0.00    -0.362 N 
HETATM    3  C1  UNK     1      35.609  -9.353  32.170  1.00  0.00     0.031 C 
HETATM    4  C2  UNK     1      34.774  -9.176  30.893  1.00  0.00     0.067 C 
HETATM    5  C3  UNK     1      32.812  -8.706  32.399  1.00  0.00     0.024 C 
HETATM    6  C4  UNK     1      33.401  -8.628  31.186  1.00  0.00     0.021 C 
HETATM    7  C5  UNK     1      31.442  -8.087  32.652  1.00  0.00     0.104 C 
HETATM    8  C6  UNK     1      34.811 -10.132  33.217  1.00  0.00     0.093 C 
HETATM    9  C7  UNK     1      33.485  -9.460  33.502  1.00  0.00     0.159 C 
HETATM   10  C8  UNK     1      30.777  -7.579  31.372  1.00  0.00     0.052 C 
HETATM   11  C10 UNK     1      31.446  -7.542  30.196  1.00  0.00     0.018 C 
HETATM   12  C14 UNK     1      30.897  -7.017  28.896  1.00  0.00     0.069 C 
HETATM   13  H7  UNK     1      33.218  -7.985  29.237  1.00  0.00     0.165 HD
ENDROOT
BRANCH   7  14
HETATM   14  C11 UNK     1      31.549  -6.971  33.656  1.00  0.00     0.029 A 
HETATM   15  C16 UNK     1      30.573  -6.924  34.773  1.00  0.00     0.194 A 
HETATM   16  O5  UNK     1      29.690  -7.761  34.901  1.00  0.00    -0.287 OA
HETATM   17  C18 UNK     1      30.722  -5.809  35.728  1.00  0.00     0.049 A 
HETATM   18  C22 UNK     1      31.747  -4.883  35.532  1.00  0.00     0.089 A 
HETATM   19  C23 UNK     1      29.853  -5.677  36.813  1.00  0.00     0.025 A 
HETATM   20  O2  UNK     1      32.630  -4.964  34.484  1.00  0.00    -0.321 OA
HETATM   21  C24 UNK     1      31.909  -3.820  36.422  1.00  0.00     0.039 A 
HETATM   22  C17 UNK     1      32.478  -6.006  33.604  1.00  0.00     0.154 A 
HETATM   23  C27 UNK     1      31.041  -3.687  37.506  1.00  0.00     0.009 A 
HETATM   24  C25 UNK     1      30.015  -4.613  37.700  1.00  0.00    -0.061 A 
HETATM   25  C30 UNK     1      29.092  -4.467  38.863  1.00  0.00     0.048 C 
ENDBRANCH   7  14
BRANCH  10  26
HETATM   26  C15 UNK     1      29.362  -7.186  31.473  1.00  0.00     0.292 C 
HETATM   27  O4  UNK     1      28.993  -6.029  31.545  1.00  0.00    -0.259 OA
BRANCH  26  28
HETATM   28  O3  UNK     1      28.606  -8.310  31.466  1.00  0.00    -0.318 OA
BRANCH  28  29
HETATM   29  C26 UNK     1      27.549  -8.324  30.501  1.00  0.00     0.174 C 
HETATM   30  C31 UNK     1      27.940  -9.232  29.355  1.00  0.00     0.034 C 
ENDBRANCH  28  29
ENDBRANCH  26  28
ENDBRANCH  10  26
BRANCH   3  31
HETATM   31  C9  UNK     1      36.956  -9.989  31.883  1.00  0.00    -0.053 A 
HETATM   32  C12 UNK     1      37.863 -10.195  32.920  1.00  0.00     0.010 A 
HETATM   33  C19 UNK     1      39.102 -10.780  32.656  1.00  0.00     0.030 A 
HETATM   34  C21 UNK     1      39.430 -11.159  31.354  1.00  0.00     0.029 A 
HETATM   35  C20 UNK     1      38.520 -10.953  30.317  1.00  0.00     0.030 A 
HETATM   36  C13 UNK     1      37.282 -10.367  30.582  1.00  0.00     0.010 A 
BRANCH  34  37
HETATM   37  N2  UNK     1      40.682 -11.752  31.087  1.00  0.00    -0.390 N 
HETATM   38  C28 UNK     1      41.800 -11.541  31.985  1.00  0.00     0.149 C 
HETATM   39  C29 UNK     1      40.862 -12.590  29.919  1.00  0.00     0.149 C 
ENDBRANCH  34  37
ENDBRANCH   3  31
TORSDOF 6
ENDMDL
MODEL 3
REMARK VINA RESULT:      -8.1     31.683     34.638
REMARK  6 active torsions:
REMARK  status: ('A' for Active; 'I' for Inactive)
REMARK    1  A    between atoms: C15_22  and  O3_3 
REMARK    2  A    between atoms: C26_33  and  O3_3 
REMARK    3  A    between atoms: C21_28  and  N2_7 
REMARK    4  A    between atoms: C1_8  and  C9_16 
REMARK    5  A    between atoms: C11_18  and  C5_12 
REMARK    6  A    between atoms: C15_22  and  C8_15 
ROOT
HETATM    1  O1  UNK     1      18.466  13.588  11.462  1.00  0.00    -0.293 OA
HETATM    2  N1  UNK     1      19.698  12.479   7.024  1.00  0.00    -0.362 N 
HETATM    3  C1  UNK     1      17.909  10.498   9.671  1.00  0.00     0.031 C 
HETATM    4  C2  UNK     1      18.174  10.983   8.239  1.00  0.00     0.067 C 
HETATM    5  C3  UNK     1      19.186  13.047   9.266  1.00  0.00     0.024 C 
HETATM    6  C4  UNK     1      19.039  12.218   8.210  1.00  0.00     0.021 C 
HETATM    7  C5  UNK     1      20.115  14.254   9.198  1.00  0.00     0.104 C 
HETATM    8  C6  UNK     1      17.410  11.657  10.536  1.00  0.00     0.093 C 
HETATM    9  C7  UNK     1      18.383  12.816  10.508  1.00  0.00     0.159 C 
HETATM   10  C8  UNK     1      20.664  14.499   7.792  1.00  0.00     0.052 C 
HETATM   11  C10 UNK     1      20.461  13.611   6.790  1.00  0.00     0.018 C 
HETATM   12  C14 UNK     1      20.998  13.738   5.390  1.00  0.00     0.069 C 
HETATM   13  H7  UNK     1      19.560  11.835   6.254  1.00  0.00     0.165 HD
ENDROOT
BRANCH   7  14
HETATM   14  C11 UNK     1      21.249  14.097  10.175  1.00  0.00     0.029 A 
HETATM   15  C16 UNK     1      22.228  13.002   9.956  1.00  0.00     0.194 A 
HETATM   16  O5  UNK     1      22.141  12.230   9.011  1.00  0.00    -0.287 OA
HETATM   17  C18 UNK     1      23.319  12.892  10.943  1.00  0.00     0.049 A 
HETATM   18  C22 UNK     1      23.369  13.800  12.002  1.00  0.00     0.089 A 
HETATM   19  C23 UNK     1      24.290  11.896  10.825  1.00  0.00     0.025 A 
HETATM   20  O2  UNK     1      22.441  14.798  12.167  1.00  0.00    -0.321 OA
HETATM   21  C24 UNK     1      24.392  13.716  12.947  1.00  0.00     0.039 A 
HETATM   22  C17 UNK     1      21.432  14.888  11.241  1.00  0.00     0.154 A 
HETATM   23  C27 UNK     1      25.363  12.720  12.830  1.00  0.00     0.009 A 
HETATM   24  C25 UNK     1      25.311  11.813  11.771  1.00  0.00    -0.061 A 
HETATM   25  C30 UNK     1      26.354  10.752  11.651  1.00  0.00     0.048 C 
ENDBRANCH   7  14
BRANCH  10  26
HETATM   26  C15 UNK     1      21.371  15.771   7.570  1.00  0.00     0.292 C 
HETATM   27  O4  UNK     1      22.584  15.868   7.567  1.00  0.00    -0.259 OA
BRANCH  26  28
HETATM   28  O3  UNK     1      20.450  16.746   7.383  1.00  0.00    -0.318 OA
BRANCH  28  29
HETATM   29  C26 UNK     1      20.544  17.436   6.132  1.00  0.00     0.174 C 
HETATM   30  C31 UNK     1      19.400  17.001   5.242  1.00  0.00     0.034 C 
ENDBRANCH  28  29
ENDBRANCH  26  28
ENDBRANCH  10  26
BRANCH   3  31
HETATM   31  C9  UNK     1      16.966   9.310   9.702  1.00  0.00    -0.053 A 
HETATM   32  C12 UNK     1      15.654   9.451   9.253  1.00  0.00     0.010 A 
HETATM   33  C19 UNK     1      14.787   8.359   9.281  1.00  0.00     0.030 A 
HETATM   34  C21 UNK     1      15.235   7.126   9.757  1.00  0.00     0.029 A 
HETATM   35  C20 UNK     1      16.549   6.986  10.205  1.00  0.00     0.030 A 
HETATM   36  C13 UNK     1      17.415   8.079  10.177  1.00  0.00     0.010 A 
BRANCH  34  37
HETATM   37  N2  UNK     1      14.359   6.020   9.784  1.00  0.00    -0.390 N 
HETATM   38  C28 UNK     1      12.925   6.219   9.710  1.00  0.00     0.149 C 
HETATM   39  C29 UNK     1      14.882   4.672   9.874  1.00  0.00     0.149 C 
ENDBRANCH  34  37
ENDBRANCH   3  31
TORSDOF 6
ENDMDL
MODEL 4
REMARK VINA RESULT:      -7.9      4.637      8.531
REMARK  6 active torsions:
REMARK  status: ('A' for Active; 'I' for Inactive)
REMARK    1  A    between atoms: C15_22  and  O3_3 
REMARK    2  A    between atoms: C26_33  and  O3_3 
REMARK    3  A    between atoms: C21_28  and  N2_7 
REMARK    4  A    between atoms: C1_8  and  C9_16 
REMARK    5  A    between atoms: C11_18  and  C5_12 
REMARK    6  A    between atoms: C15_22  and  C8_15 
ROOT
HETATM    1  O1  UNK     1      28.617  -9.071  32.600  1.00  0.00    -0.293 OA
HETATM    2  N1  UNK     1      33.034  -9.216  34.305  1.00  0.00    -0.362 N 
HETATM    3  C1  UNK     1      30.808 -11.924  32.949  1.00  0.00     0.031 C 
HETATM    4  C2  UNK     1      32.143 -11.195  33.155  1.00  0.00     0.067 C 
HETATM    5  C3  UNK     1      30.792  -9.108  33.548  1.00  0.00     0.024 C 
HETATM    6  C4  UNK     1      31.949  -9.793  33.674  1.00  0.00     0.021 C 
HETATM    7  C5  UNK     1      30.634  -7.711  34.139  1.00  0.00     0.104 C 
HETATM    8  C6  UNK     1      29.856 -11.056  32.124  1.00  0.00     0.093 C 
HETATM    9  C7  UNK     1      29.661  -9.700  32.768  1.00  0.00     0.159 C 
HETATM   10  C8  UNK     1      31.949  -7.145  34.679  1.00  0.00     0.052 C 
HETATM   11  C10 UNK     1      33.064  -7.908  34.763  1.00  0.00     0.018 C 
HETATM   12  C14 UNK     1      34.387  -7.460  35.322  1.00  0.00     0.069 C 
HETATM   13  H7  UNK     1      33.885  -9.761  34.378  1.00  0.00     0.165 HD
ENDROOT
BRANCH   7  14
HETATM   14  C11 UNK     1      29.590  -7.716  35.223  1.00  0.00     0.029 A 
HETATM   15  C16 UNK     1      29.777  -8.622  36.384  1.00  0.00     0.194 A 
HETATM   16  O5  UNK     1      30.748  -9.359  36.485  1.00  0.00    -0.287 OA
HETATM   17  C18 UNK     1      28.724  -8.588  37.416  1.00  0.00     0.049 A 
HETATM   18  C22 UNK     1      27.638  -7.729  37.249  1.00  0.00     0.089 A 
HETATM   19  C23 UNK     1      28.808  -9.403  38.548  1.00  0.00     0.025 A 
HETATM   20  O2  UNK     1      27.505  -6.906  36.158  1.00  0.00    -0.321 OA
HETATM   21  C24 UNK     1      26.630  -7.679  38.213  1.00  0.00     0.039 A 
HETATM   22  C17 UNK     1      28.492  -6.949  35.205  1.00  0.00     0.154 A 
HETATM   23  C27 UNK     1      26.712  -8.493  39.343  1.00  0.00     0.009 A 
HETATM   24  C25 UNK     1      27.799  -9.353  39.509  1.00  0.00    -0.061 A 
HETATM   25  C30 UNK     1      27.882 -10.219  40.721  1.00  0.00     0.048 C 
ENDBRANCH   7  14
BRANCH  10  26
HETATM   26  C15 UNK     1      31.954  -5.720  35.047  1.00  0.00     0.292 C 
HETATM   27  O4  UNK     1      31.953  -4.819  34.229  1.00  0.00    -0.259 OA
BRANCH  26  28
HETATM   28  O3  UNK     1      31.959  -5.628  36.398  1.00  0.00    -0.318 OA
BRANCH  28  29
HETATM   29  C26 UNK     1      30.974  -4.748  36.949  1.00  0.00     0.174 C 
HETATM   30  C31 UNK     1      30.414  -5.365  38.214  1.00  0.00     0.034 C 
ENDBRANCH  28  29
ENDBRANCH  26  28
ENDBRANCH  10  26
BRANCH   3  31
HETATM   31  C9  UNK     1      31.002 -13.301  32.342  1.00  0.00    -0.053 A 
HETATM   32  C12 UNK     1      30.893 -13.476  30.964  1.00  0.00     0.010 A 
HETATM   33  C19 UNK     1      31.071 -14.742  30.406  1.00  0.00     0.030 A 
HETATM   34  C21 UNK     1      31.359 -15.831  31.228  1.00  0.00     0.029 A 
HETATM   35  C20 UNK     1      31.469 -15.654  32.608  1.00  0.00     0.030 A 
HETATM   36  C13 UNK     1      31.290 -14.388  33.165  1.00  0.00     0.010 A 
BRANCH  34  37
HETATM   37  N2  UNK     1      31.541 -17.112  30.665  1.00  0.00    -0.390 N 
HETATM   38  C28 UNK     1      31.607 -17.277  29.226  1.00  0.00     0.149 C 
HETATM   39  C29 UNK     1      31.678 -18.276  31.517  1.00  0.00     0.149 C 
ENDBRANCH  34  37
ENDBRANCH   3  31
TORSDOF 6
ENDMDL
MODEL 5
REMARK VINA RESULT:      -7.9      1.411      2.178
REMARK  6 active torsions:
REMARK  status: ('A' for Active; 'I' for Inactive)
REMARK    1  A    between atoms: C15_22  and  O3_3 
REMARK    2  A    between atoms: C26_33  and  O3_3 
REMARK    3  A    between atoms: C21_28  and  N2_7 
REMARK    4  A    between atoms: C1_8  and  C9_16 
REMARK    5  A    between atoms: C11_18  and  C5_12 
REMARK    6  A    between atoms: C15_22  and  C8_15 
ROOT
HETATM    1  O1  UNK     1      29.100  -9.961  38.748  1.00  0.00    -0.293 OA
HETATM    2  N1  UNK     1      28.597  -5.341  37.831  1.00  0.00    -0.362 N 
HETATM    3  C1  UNK     1      26.078  -8.126  37.995  1.00  0.00     0.031 C 
HETATM    4  C2  UNK     1      26.586  -6.696  38.224  1.00  0.00     0.067 C 
HETATM    5  C3  UNK     1      28.912  -7.659  38.203  1.00  0.00     0.024 C 
HETATM    6  C4  UNK     1      28.084  -6.598  38.088  1.00  0.00     0.021 C 
HETATM    7  C5  UNK     1      30.416  -7.512  38.004  1.00  0.00     0.104 C 
HETATM    8  C6  UNK     1      26.871  -9.111  38.857  1.00  0.00     0.093 C 
HETATM    9  C7  UNK     1      28.356  -8.993  38.589  1.00  0.00     0.159 C 
HETATM   10  C8  UNK     1      30.855  -6.053  37.869  1.00  0.00     0.052 C 
HETATM   11  C10 UNK     1      29.950  -5.051  37.764  1.00  0.00     0.018 C 
HETATM   12  C14 UNK     1      30.280  -3.594  37.579  1.00  0.00     0.069 C 
HETATM   13  H7  UNK     1      27.944  -4.570  37.754  1.00  0.00     0.165 HD
ENDROOT
BRANCH   7  14
HETATM   14  C11 UNK     1      30.865  -8.299  36.803  1.00  0.00     0.029 A 
HETATM   15  C16 UNK     1      30.302  -7.950  35.474  1.00  0.00     0.194 A 
HETATM   16  O5  UNK     1      29.491  -7.045  35.329  1.00  0.00    -0.287 OA
HETATM   17  C18 UNK     1      30.774  -8.753  34.331  1.00  0.00     0.049 A 
HETATM   18  C22 UNK     1      31.700  -9.773  34.556  1.00  0.00     0.089 A 
HETATM   19  C23 UNK     1      30.305  -8.502  33.040  1.00  0.00     0.025 A 
HETATM   20  O2  UNK     1      32.195 -10.063  35.803  1.00  0.00    -0.321 OA
HETATM   21  C24 UNK     1      32.161 -10.546  33.490  1.00  0.00     0.039 A 
HETATM   22  C17 UNK     1      31.746  -9.307  36.857  1.00  0.00     0.154 A 
HETATM   23  C27 UNK     1      31.693 -10.296  32.200  1.00  0.00     0.009 A 
HETATM   24  C25 UNK     1      30.767  -9.277  31.976  1.00  0.00    -0.061 A 
HETATM   25  C30 UNK     1      30.271  -9.014  30.593  1.00  0.00     0.048 C 
ENDBRANCH   7  14
BRANCH  10  26
HETATM   26  C15 UNK     1      32.302  -5.790  37.915  1.00  0.00     0.292 C 
HETATM   27  O4  UNK     1      32.876  -5.384  38.908  1.00  0.00    -0.259 OA
BRANCH  26  28
HETATM   28  O3  UNK     1      32.827  -6.076  36.700  1.00  0.00    -0.318 OA
BRANCH  28  29
HETATM   29  C26 UNK     1      33.220  -4.938  35.925  1.00  0.00     0.174 C 
HETATM   30  C31 UNK     1      32.370  -4.877  34.674  1.00  0.00     0.034 C 
ENDBRANCH  28  29
ENDBRANCH  26  28
ENDBRANCH  10  26
BRANCH   3  31
HETATM   31  C9  UNK     1      24.582  -8.240  38.221  1.00  0.00    -0.053 A 
HETATM   32  C12 UNK     1      23.779  -8.860  37.267  1.00  0.00     0.010 A 
HETATM   33  C19 UNK     1      22.404  -8.964  37.475  1.00  0.00     0.030 A 
HETATM   34  C21 UNK     1      21.834  -8.448  38.639  1.00  0.00     0.029 A 
HETATM   35  C20 UNK     1      22.640  -7.828  39.594  1.00  0.00     0.030 A 
HETATM   36  C13 UNK     1      24.015  -7.724  39.385  1.00  0.00     0.010 A 
BRANCH  34  37
HETATM   37  N2  UNK     1      20.444  -8.554  38.851  1.00  0.00    -0.390 N 
HETATM   38  C28 UNK     1      19.625  -7.363  38.959  1.00  0.00     0.149 C 
HETATM   39  C29 UNK     1      19.813  -9.856  38.948  1.00  0.00     0.149 C 
ENDBRANCH  34  37
ENDBRANCH   3  31
TORSDOF 6
ENDMDL
MODEL 6
REMARK VINA RESULT:      -7.9      5.831     10.940
REMARK  6 active torsions:
REMARK  status: ('A' for Active; 'I' for Inactive)
REMARK    1  A    between atoms: C15_22  and  O3_3 
REMARK    2  A    between atoms: C26_33  and  O3_3 
REMARK    3  A    between atoms: C21_28  and  N2_7 
REMARK    4  A    between atoms: C1_8  and  C9_16 
REMARK    5  A    between atoms: C11_18  and  C5_12 
REMARK    6  A    between atoms: C15_22  and  C8_15 
ROOT
HETATM    1  O1  UNK     1      33.700  -6.717  30.895  1.00  0.00    -0.293 OA
HETATM    2  N1  UNK     1      34.107  -8.386  35.310  1.00  0.00    -0.362 N 
HETATM    3  C1  UNK     1      35.834  -9.366  32.118  1.00  0.00     0.031 C 
HETATM    4  C2  UNK     1      35.753  -9.082  33.624  1.00  0.00     0.067 C 
HETATM    5  C3  UNK     1      33.801  -7.581  33.103  1.00  0.00     0.024 C 
HETATM    6  C4  UNK     1      34.509  -8.313  33.990  1.00  0.00     0.021 C 
HETATM    7  C5  UNK     1      32.519  -6.864  33.516  1.00  0.00     0.104 C 
HETATM    8  C6  UNK     1      35.616  -8.075  31.326  1.00  0.00     0.093 C 
HETATM    9  C7  UNK     1      34.305  -7.420  31.704  1.00  0.00     0.159 C 
HETATM   10  C8  UNK     1      32.275  -6.915  35.025  1.00  0.00     0.052 C 
HETATM   11  C10 UNK     1      33.043  -7.675  35.840  1.00  0.00     0.018 C 
HETATM   12  C14 UNK     1      32.852  -7.828  37.325  1.00  0.00     0.069 C 
HETATM   13  H7  UNK     1      34.667  -8.943  35.945  1.00  0.00     0.165 HD
ENDROOT
BRANCH   7  14
HETATM   14  C11 UNK     1      31.338  -7.440  32.782  1.00  0.00     0.029 A 
HETATM   15  C16 UNK     1      30.332  -6.507  32.215  1.00  0.00     0.194 A 
HETATM   16  O5  UNK     1      30.435  -5.293  32.325  1.00  0.00    -0.287 OA
HETATM   17  C18 UNK     1      29.194  -7.123  31.506  1.00  0.00     0.049 A 
HETATM   18  C22 UNK     1      29.127  -8.513  31.412  1.00  0.00     0.089 A 
HETATM   19  C23 UNK     1      28.194  -6.331  30.937  1.00  0.00     0.025 A 
HETATM   20  O2  UNK     1      30.081  -9.340  31.952  1.00  0.00    -0.321 OA
HETATM   21  C24 UNK     1      28.061  -9.119  30.746  1.00  0.00     0.039 A 
HETATM   22  C17 UNK     1      31.134  -8.752  32.608  1.00  0.00     0.154 A 
HETATM   23  C27 UNK     1      27.062  -8.328  30.177  1.00  0.00     0.009 A 
HETATM   24  C25 UNK     1      27.129  -6.938  30.273  1.00  0.00    -0.061 A 
HETATM   25  C30 UNK     1      26.058  -6.098  29.661  1.00  0.00     0.048 C 
ENDBRANCH   7  14
BRANCH  10  26
HETATM   26  C15 UNK     1      31.202  -6.054  35.550  1.00  0.00     0.292 C 
HETATM   27  O4  UNK     1      30.108  -6.474  35.878  1.00  0.00    -0.259 OA
BRANCH  26  28
HETATM   28  O3  UNK     1      31.659  -4.779  35.590  1.00  0.00    -0.318 OA
BRANCH  28  29
HETATM   29  C26 UNK     1      31.938  -4.277  36.901  1.00  0.00     0.174 C 
HETATM   30  C31 UNK     1      30.668  -3.695  37.487  1.00  0.00     0.034 C 
ENDBRANCH  28  29
ENDBRANCH  26  28
ENDBRANCH  10  26
BRANCH   3  31
HETATM   31  C9  UNK     1      37.129 -10.061  31.740  1.00  0.00    -0.053 A 
HETATM   32  C12 UNK     1      37.351 -10.449  30.421  1.00  0.00     0.010 A 
HETATM   33  C19 UNK     1      38.542 -11.088  30.074  1.00  0.00     0.030 A 
HETATM   34  C21 UNK     1      39.509 -11.336  31.048  1.00  0.00     0.029 A 
HETATM   35  C20 UNK     1      39.285 -10.945  32.369  1.00  0.00     0.030 A 
HETATM   36  C13 UNK     1      38.093 -10.307  32.715  1.00  0.00     0.010 A 
BRANCH  34  37
HETATM   37  N2  UNK     1      40.714 -11.981  30.698  1.00  0.00    -0.390 N 
HETATM   38  C28 UNK     1      40.864 -12.597  29.395  1.00  0.00     0.149 C 
HETATM   39  C29 UNK     1      41.821 -12.024  31.632  1.00  0.00     0.149 C 
ENDBRANCH  34  37
ENDBRANCH   3  31
TORSDOF 6
ENDMDL
MODEL 7
REMARK VINA RESULT:      -7.8     31.977     34.884
REMARK  6 active torsions:
REMARK  status: ('A' for Active; 'I' for Inactive)
REMARK    1  A    between atoms: C15_22  and  O3_3 
REMARK    2  A    between atoms: C26_33  and  O3_3 
REMARK    3  A    between atoms: C21_28  and  N2_7 
REMARK    4  A    between atoms: C1_8  and  C9_16 
REMARK    5  A    between atoms: C11_18  and  C5_12 
REMARK    6  A    between atoms: C15_22  and  C8_15 
ROOT
HETATM    1  O1  UNK     1      18.776  13.053  11.286  1.00  0.00    -0.293 OA
HETATM    2  N1  UNK     1      18.784  12.759   6.557  1.00  0.00    -0.362 N 
HETATM    3  C1  UNK     1      17.233  10.555   9.178  1.00  0.00     0.031 C 
HETATM    4  C2  UNK     1      17.281  11.294   7.832  1.00  0.00     0.067 C 
HETATM    5  C3  UNK     1      18.887  12.898   8.920  1.00  0.00     0.024 C 
HETATM    6  C4  UNK     1      18.353  12.353   7.806  1.00  0.00     0.021 C 
HETATM    7  C5  UNK     1      20.007  13.930   8.835  1.00  0.00     0.104 C 
HETATM    8  C6  UNK     1      17.176  11.562  10.328  1.00  0.00     0.093 C 
HETATM    9  C7  UNK     1      18.337  12.531  10.262  1.00  0.00     0.159 C 
HETATM   10  C8  UNK     1      20.282  14.386   7.402  1.00  0.00     0.052 C 
HETATM   11  C10 UNK     1      19.694  13.782   6.343  1.00  0.00     0.018 C 
HETATM   12  C14 UNK     1      19.936  14.125   4.897  1.00  0.00     0.069 C 
HETATM   13  H7  UNK     1      18.357  12.329   5.745  1.00  0.00     0.165 HD
ENDROOT
BRANCH   7  14
HETATM   14  C11 UNK     1      21.266  13.387   9.455  1.00  0.00     0.029 A 
HETATM   15  C16 UNK     1      21.799  14.046  10.674  1.00  0.00     0.194 A 
HETATM   16  O5  UNK     1      21.246  15.010  11.186  1.00  0.00    -0.287 OA
HETATM   17  C18 UNK     1      23.035  13.475  11.240  1.00  0.00     0.049 A 
HETATM   18  C22 UNK     1      23.622  12.375  10.613  1.00  0.00     0.089 A 
HETATM   19  C23 UNK     1      23.615  14.024  12.386  1.00  0.00     0.025 A 
HETATM   20  O2  UNK     1      23.096  11.796   9.486  1.00  0.00    -0.321 OA
HETATM   21  C24 UNK     1      24.793  11.818  11.131  1.00  0.00     0.039 A 
HETATM   22  C17 UNK     1      21.945  12.338   8.971  1.00  0.00     0.154 A 
HETATM   23  C27 UNK     1      25.373  12.365  12.275  1.00  0.00     0.009 A 
HETATM   24  C25 UNK     1      24.786  13.466  12.901  1.00  0.00    -0.061 A 
HETATM   25  C30 UNK     1      25.410  14.046  14.126  1.00  0.00     0.048 C 
ENDBRANCH   7  14
BRANCH  10  26
HETATM   26  C15 UNK     1      21.171  15.548   7.237  1.00  0.00     0.292 C 
HETATM   27  O4  UNK     1      20.828  16.691   7.476  1.00  0.00    -0.259 OA
BRANCH  26  28
HETATM   28  O3  UNK     1      22.372  15.107   6.793  1.00  0.00    -0.318 OA
BRANCH  28  29
HETATM   29  C26 UNK     1      23.497  15.526   7.573  1.00  0.00     0.174 C 
HETATM   30  C31 UNK     1      24.296  16.539   6.781  1.00  0.00     0.034 C 
ENDBRANCH  28  29
ENDBRANCH  26  28
ENDBRANCH  10  26
BRANCH   3  31
HETATM   31  C9  UNK     1      16.096   9.552   9.234  1.00  0.00    -0.053 A 
HETATM   32  C12 UNK     1      16.251   8.363   9.942  1.00  0.00     0.010 A 
HETATM   33  C19 UNK     1      15.206   7.441   9.994  1.00  0.00     0.030 A 
HETATM   34  C21 UNK     1      14.005   7.712   9.337  1.00  0.00     0.029 A 
HETATM   35  C20 UNK     1      13.851   8.904   8.629  1.00  0.00     0.030 A 
HETATM   36  C13 UNK     1      14.897   9.825   8.577  1.00  0.00     0.010 A 
BRANCH  34  37
HETATM   37  N2  UNK     1      12.947   6.781   9.390  1.00  0.00    -0.390 N 
HETATM   38  C28 UNK     1      11.607   7.171   8.998  1.00  0.00     0.149 C 
HETATM   39  C29 UNK     1      13.188   5.419   9.822  1.00  0.00     0.149 C 
ENDBRANCH  34  37
ENDBRANCH   3  31
TORSDOF 6
ENDMDL
MODEL 8
REMARK VINA RESULT:      -7.8      5.378      9.272
REMARK  6 active torsions:
REMARK  status: ('A' for Active; 'I' for Inactive)
REMARK    1  A    between atoms: C15_22  and  O3_3 
REMARK    2  A    between atoms: C26_33  and  O3_3 
REMARK    3  A    between atoms: C21_28  and  N2_7 
REMARK    4  A    between atoms: C1_8  and  C9_16 
REMARK    5  A    between atoms: C11_18  and  C5_12 
REMARK    6  A    between atoms: C15_22  and  C8_15 
ROOT
HETATM    1  O1  UNK     1      28.984  -9.979  34.172  1.00  0.00    -0.293 OA
HETATM    2  N1  UNK     1      31.245  -8.752  30.194  1.00  0.00    -0.362 N 
HETATM    3  C1  UNK     1      31.300 -11.932  32.200  1.00  0.00     0.031 C 
HETATM    4  C2  UNK     1      31.294 -11.102  30.907  1.00  0.00     0.067 C 
HETATM    5  C3  UNK     1      30.165  -9.285  32.233  1.00  0.00     0.024 C 
HETATM    6  C4  UNK     1      30.871  -9.676  31.151  1.00  0.00     0.021 C 
HETATM    7  C5  UNK     1      29.808  -7.819  32.456  1.00  0.00     0.104 C 
HETATM    8  C6  UNK     1      29.968 -11.769  32.935  1.00  0.00     0.093 C 
HETATM    9  C7  UNK     1      29.671 -10.309  33.206  1.00  0.00     0.159 C 
HETATM   10  C8  UNK     1      30.159  -6.937  31.257  1.00  0.00     0.052 C 
HETATM   11  C10 UNK     1      30.869  -7.419  30.210  1.00  0.00     0.018 C 
HETATM   12  C14 UNK     1      31.304  -6.621  29.010  1.00  0.00     0.069 C 
HETATM   13  H7  UNK     1      31.773  -9.085  29.395  1.00  0.00     0.165 HD
ENDROOT
BRANCH   7  14
HETATM   14  C11 UNK     1      30.484  -7.299  33.696  1.00  0.00     0.029 A 
HETATM   15  C16 UNK     1      29.656  -6.624  34.726  1.00  0.00     0.194 A 
HETATM   16  O5  UNK     1      28.447  -6.481  34.599  1.00  0.00    -0.287 OA
HETATM   17  C18 UNK     1      30.369  -6.132  35.920  1.00  0.00     0.049 A 
HETATM   18  C22 UNK     1      31.748  -6.322  36.012  1.00  0.00     0.089 A 
HETATM   19  C23 UNK     1      29.678  -5.484  36.947  1.00  0.00     0.025 A 
HETATM   20  O2  UNK     1      32.477  -6.952  35.034  1.00  0.00    -0.321 OA
HETATM   21  C24 UNK     1      32.444  -5.865  37.132  1.00  0.00     0.039 A 
HETATM   22  C17 UNK     1      31.799  -7.404  33.929  1.00  0.00     0.154 A 
HETATM   23  C27 UNK     1      31.755  -5.217  38.158  1.00  0.00     0.009 A 
HETATM   24  C25 UNK     1      30.376  -5.027  38.065  1.00  0.00    -0.061 A 
HETATM   25  C30 UNK     1      29.645  -4.335  39.167  1.00  0.00     0.048 C 
ENDBRANCH   7  14
BRANCH  10  26
HETATM   26  C15 UNK     1      29.639  -5.560  31.274  1.00  0.00     0.292 C 
HETATM   27  O4  UNK     1      30.354  -4.576  31.278  1.00  0.00    -0.259 OA
BRANCH  26  28
HETATM   28  O3  UNK     1      28.285  -5.615  31.283  1.00  0.00    -0.318 OA
BRANCH  28  29
HETATM   29  C26 UNK     1      27.691  -6.108  30.078  1.00  0.00     0.174 C 
HETATM   30  C31 UNK     1      26.466  -6.924  30.431  1.00  0.00     0.034 C 
ENDBRANCH  28  29
ENDBRANCH  26  28
ENDBRANCH  10  26
BRANCH   3  31
HETATM   31  C9  UNK     1      31.638 -13.387  31.938  1.00  0.00    -0.053 A 
HETATM   32  C12 UNK     1      31.142 -14.379  32.781  1.00  0.00     0.010 A 
HETATM   33  C19 UNK     1      31.453 -15.717  32.540  1.00  0.00     0.030 A 
HETATM   34  C21 UNK     1      32.260 -16.061  31.456  1.00  0.00     0.029 A 
HETATM   35  C20 UNK     1      32.756 -15.066  30.612  1.00  0.00     0.030 A 
HETATM   36  C13 UNK     1      32.444 -13.728  30.854  1.00  0.00     0.010 A 
BRANCH  34  37
HETATM   37  N2  UNK     1      32.574 -17.414  31.211  1.00  0.00    -0.390 N 
HETATM   38  C28 UNK     1      32.807 -17.880  29.858  1.00  0.00     0.149 C 
HETATM   39  C29 UNK     1      32.682 -18.353  32.309  1.00  0.00     0.149 C 
ENDBRANCH  34  37
ENDBRANCH   3  31
TORSDOF 6
ENDMDL
MODEL 9
REMARK VINA RESULT:      -7.7      4.237     11.001
REMARK  6 active torsions:
REMARK  status: ('A' for Active; 'I' for Inactive)
REMARK    1  A    between atoms: C15_22  and  O3_3 
REMARK    2  A    between atoms: C26_33  and  O3_3 
REMARK    3  A    between atoms: C21_28  and  N2_7 
REMARK    4  A    between atoms: C1_8  and  C9_16 
REMARK    5  A    between atoms: C11_18  and  C5_12 
REMARK    6  A    between atoms: C15_22  and  C8_15 
ROOT
HETATM    1  O1  UNK     1      31.716 -10.815  34.030  1.00  0.00    -0.293 OA
HETATM    2  N1  UNK     1      32.053  -7.242  30.936  1.00  0.00    -0.362 N 
HETATM    3  C1  UNK     1      34.684  -9.418  32.510  1.00  0.00     0.031 C 
HETATM    4  C2  UNK     1      34.034  -8.629  31.364  1.00  0.00     0.067 C 
HETATM    5  C3  UNK     1      31.841  -8.960  32.553  1.00  0.00     0.024 C 
HETATM    6  C4  UNK     1      32.594  -8.294  31.652  1.00  0.00     0.021 C 
HETATM    7  C5  UNK     1      30.403  -8.544  32.843  1.00  0.00     0.104 C 
HETATM    8  C6  UNK     1      33.805 -10.611  32.891  1.00  0.00     0.093 C 
HETATM    9  C7  UNK     1      32.402 -10.164  33.242  1.00  0.00     0.159 C 
HETATM   10  C8  UNK     1      29.895  -7.466  31.884  1.00  0.00     0.052 C 
HETATM   11  C10 UNK     1      30.725  -6.854  31.007  1.00  0.00     0.018 C 
HETATM   12  C14 UNK     1      30.333  -5.752  30.060  1.00  0.00     0.069 C 
HETATM   13  H7  UNK     1      32.649  -6.769  30.267  1.00  0.00     0.165 HD
ENDROOT
BRANCH   7  14
HETATM   14  C11 UNK     1      30.271  -8.072  34.266  1.00  0.00     0.029 A 
HETATM   15  C16 UNK     1      29.271  -8.731  35.143  1.00  0.00     0.194 A 
HETATM   16  O5  UNK     1      28.556  -9.641  34.745  1.00  0.00    -0.287 OA
HETATM   17  C18 UNK     1      29.182  -8.229  36.528  1.00  0.00     0.049 A 
HETATM   18  C22 UNK     1      30.022  -7.189  36.926  1.00  0.00     0.089 A 
HETATM   19  C23 UNK     1      28.272  -8.784  37.430  1.00  0.00     0.025 A 
HETATM   20  O2  UNK     1      30.935  -6.607  36.081  1.00  0.00    -0.321 OA
HETATM   21  C24 UNK     1      29.957  -6.699  38.231  1.00  0.00     0.039 A 
HETATM   22  C17 UNK     1      31.005  -7.084  34.797  1.00  0.00     0.154 A 
HETATM   23  C27 UNK     1      29.048  -7.252  39.134  1.00  0.00     0.009 A 
HETATM   24  C25 UNK     1      28.208  -8.291  38.734  1.00  0.00    -0.061 A 
HETATM   25  C30 UNK     1      27.239  -8.880  39.705  1.00  0.00     0.048 C 
ENDBRANCH   7  14
BRANCH  10  26
HETATM   26  C15 UNK     1      28.454  -7.170  31.925  1.00  0.00     0.292 C 
HETATM   27  O4  UNK     1      27.999  -6.114  32.323  1.00  0.00    -0.259 OA
BRANCH  26  28
HETATM   28  O3  UNK     1      27.783  -8.250  31.455  1.00  0.00    -0.318 OA
BRANCH  28  29
HETATM   29  C26 UNK     1      27.354  -8.151  30.093  1.00  0.00     0.174 C 
HETATM   30  C31 UNK     1      28.039  -9.230  29.281  1.00  0.00     0.034 C 
ENDBRANCH  28  29
ENDBRANCH  26  28
ENDBRANCH  10  26
BRANCH   3  31
HETATM   31  C9  UNK     1      36.105  -9.833  32.179  1.00  0.00    -0.053 A 
HETATM   32  C12 UNK     1      37.057  -9.923  33.192  1.00  0.00     0.010 A 
HETATM   33  C19 UNK     1      38.364 -10.304  32.888  1.00  0.00     0.030 A 
HETATM   34  C21 UNK     1      38.716 -10.596  31.570  1.00  0.00     0.029 A 
HETATM   35  C20 UNK     1      37.760 -10.507  30.557  1.00  0.00     0.030 A 
HETATM   36  C13 UNK     1      36.454 -10.125  30.862  1.00  0.00     0.010 A 
BRANCH  34  37
HETATM   37  N2  UNK     1      40.037 -10.983  31.262  1.00  0.00    -0.390 N 
HETATM   38  C28 UNK     1      40.320 -11.720  30.046  1.00  0.00     0.149 C 
HETATM   39  C29 UNK     1      41.129 -10.637  32.149  1.00  0.00     0.149 C 
ENDBRANCH  34  37
ENDBRANCH   3  31
TORSDOF 6
ENDMDL
MODEL 10
REMARK VINA RESULT:      -7.6      6.418      9.664
REMARK  6 active torsions:
REMARK  status: ('A' for Active; 'I' for Inactive)
REMARK    1  A    between atoms: C15_22  and  O3_3 
REMARK    2  A    between atoms: C26_33  and  O3_3 
REMARK    3  A    between atoms: C21_28  and  N2_7 
REMARK    4  A    between atoms: C1_8  and  C9_16 
REMARK    5  A    between atoms: C11_18  and  C5_12 
REMARK    6  A    between atoms: C15_22  and  C8_15 
ROOT
HETATM    1  O1  UNK     1      30.782 -10.815  33.843  1.00  0.00    -0.293 OA
HETATM    2  N1  UNK     1      30.144 -11.567  29.209  1.00  0.00    -0.362 N 
HETATM    3  C1  UNK     1      31.318 -13.851  31.955  1.00  0.00     0.031 C 
HETATM    4  C2  UNK     1      30.544 -13.495  30.678  1.00  0.00     0.067 C 
HETATM    5  C3  UNK     1      30.536 -11.117  31.502  1.00  0.00     0.024 C 
HETATM    6  C4  UNK     1      30.410 -12.005  30.493  1.00  0.00     0.021 C 
HETATM    7  C5  UNK     1      30.443  -9.616  31.248  1.00  0.00     0.104 C 
HETATM    8  C6  UNK     1      30.731 -13.100  33.152  1.00  0.00     0.093 C 
HETATM    9  C7  UNK     1      30.714 -11.607  32.904  1.00  0.00     0.159 C 
HETATM   10  C8  UNK     1      30.008  -9.284  29.820  1.00  0.00     0.052 C 
HETATM   11  C10 UNK     1      29.903 -10.245  28.872  1.00  0.00     0.018 C 
HETATM   12  C14 UNK     1      29.531 -10.013  27.432  1.00  0.00     0.069 C 
HETATM   13  H7  UNK     1      30.054 -12.265  28.480  1.00  0.00     0.165 HD
ENDROOT
BRANCH   7  14
HETATM   14  C11 UNK     1      31.758  -8.950  31.555  1.00  0.00     0.029 A 
HETATM   15  C16 UNK     1      31.796  -7.907  32.611  1.00  0.00     0.194 A 
HETATM   16  O5  UNK     1      30.797  -7.576  33.235  1.00  0.00    -0.287 OA
HETATM   17  C18 UNK     1      33.109  -7.287  32.871  1.00  0.00     0.049 A 
HETATM   18  C22 UNK     1      34.214  -7.704  32.128  1.00  0.00     0.089 A 
HETATM   19  C23 UNK     1      33.249  -6.296  33.845  1.00  0.00     0.025 A 
HETATM   20  O2  UNK     1      34.134  -8.673  31.159  1.00  0.00    -0.321 OA
HETATM   21  C24 UNK     1      35.466  -7.131  32.357  1.00  0.00     0.039 A 
HETATM   22  C17 UNK     1      32.906  -9.241  30.929  1.00  0.00     0.154 A 
HETATM   23  C27 UNK     1      35.608  -6.141  33.330  1.00  0.00     0.009 A 
HETATM   24  C25 UNK     1      34.502  -5.725  34.071  1.00  0.00    -0.061 A 
HETATM   25  C30 UNK     1      34.660  -4.667  35.111  1.00  0.00     0.048 C 
ENDBRANCH   7  14
BRANCH  10  26
HETATM   26  C15 UNK     1      29.657  -7.881  29.544  1.00  0.00     0.292 C 
HETATM   27  O4  UNK     1      30.412  -7.098  28.998  1.00  0.00    -0.259 OA
BRANCH  26  28
HETATM   28  O3  UNK     1      28.399  -7.659  29.996  1.00  0.00    -0.318 OA
BRANCH  28  29
HETATM   29  C26 UNK     1      28.141  -6.323  30.438  1.00  0.00     0.174 C 
HETATM   30  C31 UNK     1      27.750  -6.354  31.900  1.00  0.00     0.034 C 
ENDBRANCH  28  29
ENDBRANCH  26  28
ENDBRANCH  10  26
BRANCH   3  31
HETATM   31  C9  UNK     1      31.373 -15.349  32.187  1.00  0.00    -0.053 A 
HETATM   32  C12 UNK     1      30.785 -15.899  33.323  1.00  0.00     0.010 A 
HETATM   33  C19 UNK     1      30.835 -17.277  33.535  1.00  0.00     0.030 A 
HETATM   34  C21 UNK     1      31.474 -18.102  32.609  1.00  0.00     0.029 A 
HETATM   35  C20 UNK     1      32.062 -17.549  31.471  1.00  0.00     0.030 A 
HETATM   36  C13 UNK     1      32.011 -16.171  31.260  1.00  0.00     0.010 A 
BRANCH  34  37
HETATM   37  N2  UNK     1      31.525 -19.496  32.823  1.00  0.00    -0.390 N 
HETATM   38  C28 UNK     1      30.918 -20.406  31.871  1.00  0.00     0.149 C 
HETATM   39  C29 UNK     1      32.196 -20.036  33.988  1.00  0.00     0.149 C 
ENDBRANCH  34  37
ENDBRANCH   3  31
TORSDOF 6
ENDMDL
