MODEL 1
REMARK VINA RESULT:      -9.7      0.000      0.000
REMARK  4 active torsions:
REMARK  status: ('A' for Active; 'I' for Inactive)
REMARK       I    between atoms: C12_19  and  N1_6 
REMARK    1  A    between atoms: C9_16  and  N1_6 
REMARK       I    between atoms: C11_18  and  N2_7 
REMARK    2  A    between atoms: C1_8  and  C7_14 
REMARK    3  A    between atoms: C11_18  and  C8_15 
REMARK    4  A    between atoms: C12_19  and  C13_20 
ROOT
HETATM    1  S1  UNK     1      15.537   6.562  32.342  1.00  0.00    -0.075 SA
HETATM    2  C1  UNK     1      15.054  10.570  33.114  1.00  0.00    -0.010 C 
HETATM    3  C2  UNK     1      16.030  10.610  34.309  1.00  0.00     0.009 C 
HETATM    4  C3  UNK     1      14.548   9.132  32.858  1.00  0.00     0.051 C 
HETATM    5  C4  UNK     1      17.274   9.745  34.056  1.00  0.00     0.041 C 
HETATM    6  C5  UNK     1      16.916   8.407  33.489  1.00  0.00    -0.026 A 
HETATM    7  C6  UNK     1      15.679   8.153  32.929  1.00  0.00    -0.008 A 
HETATM    8  C8  UNK     1      17.762   7.260  33.423  1.00  0.00     0.073 A 
HETATM    9  C9  UNK     1      17.138   6.187  32.823  1.00  0.00     0.093 A 
ENDROOT
BRANCH   9  10
HETATM   10  N1  UNK     1      17.575   4.917  32.560  1.00  0.00    -0.316 N 
HETATM   11  C12 UNK     1      18.281   4.440  31.433  1.00  0.00     0.262 C 
HETATM   12  O2  UNK     1      18.644   5.085  30.456  1.00  0.00    -0.267 OA
HETATM   13  H13 UNK     1      17.334   4.242  33.282  1.00  0.00     0.169 HD
BRANCH  11  14
HETATM   14  C13 UNK     1      18.586   2.996  31.500  1.00  0.00     0.108 A 
HETATM   15  C14 UNK     1      19.079   2.442  30.387  1.00  0.00     0.037 A 
HETATM   16  C15 UNK     1      19.409   1.026  30.356  1.00  0.00    -0.001 A 
HETATM   17  C17 UNK     1      19.205   0.263  31.501  1.00  0.00     0.089 A 
HETATM   18  C18 UNK     1      19.926   0.406  29.216  1.00  0.00     0.014 A 
HETATM   19  O3  UNK     1      18.686   0.851  32.670  1.00  0.00    -0.274 OA
HETATM   20  C19 UNK     1      19.500  -1.099  31.537  1.00  0.00     0.038 A 
HETATM   21  C16 UNK     1      18.360   2.203  32.730  1.00  0.00     0.304 A 
HETATM   22  O4  UNK     1      17.908   2.707  33.752  1.00  0.00    -0.259 OA
HETATM   23  C21 UNK     1      20.015  -1.710  30.396  1.00  0.00     0.003 A 
HETATM   24  C20 UNK     1      20.228  -0.959  29.237  1.00  0.00     0.001 A 
ENDBRANCH  11  14
ENDBRANCH   9  10
BRANCH   8  25
HETATM   25  C11 UNK     1      19.118   7.190  33.909  1.00  0.00     0.252 C 
HETATM   26  O1  UNK     1      20.103   7.052  33.160  1.00  0.00    -0.268 OA
HETATM   27  N2  UNK     1      19.313   7.309  35.283  1.00  0.00    -0.366 N 
HETATM   28  H14 UNK     1      18.539   7.432  35.928  1.00  0.00     0.159 HD
HETATM   29  H15 UNK     1      20.244   7.275  35.682  1.00  0.00     0.159 HD
ENDBRANCH   8  25
BRANCH   2  30
HETATM   30  C7  UNK     1      13.877  11.517  33.342  1.00  0.00     0.000 C 
HETATM   31  C10 UNK     1      13.352  11.416  34.762  1.00  0.00     0.005 C 
ENDBRANCH   2  30
TORSDOF 4
ENDMDL
MODEL 2
REMARK VINA RESULT:      -9.4      1.236      2.010
REMARK  4 active torsions:
REMARK  status: ('A' for Active; 'I' for Inactive)
REMARK       I    between atoms: C12_19  and  N1_6 
REMARK    1  A    between atoms: C9_16  and  N1_6 
REMARK       I    between atoms: C11_18  and  N2_7 
REMARK    2  A    between atoms: C1_8  and  C7_14 
REMARK    3  A    between atoms: C11_18  and  C8_15 
REMARK    4  A    between atoms: C12_19  and  C13_20 
ROOT
HETATM    1  S1  UNK     1      16.243   6.359  31.609  1.00  0.00    -0.075 SA
HETATM    2  C1  UNK     1      15.872  10.080  33.316  1.00  0.00    -0.010 C 
HETATM    3  C2  UNK     1      16.763   9.772  34.538  1.00  0.00     0.009 C 
HETATM    4  C3  UNK     1      15.327   8.779  32.683  1.00  0.00     0.051 C 
HETATM    5  C4  UNK     1      17.985   8.925  34.152  1.00  0.00     0.041 C 
HETATM    6  C5  UNK     1      17.613   7.787  33.253  1.00  0.00    -0.026 A 
HETATM    7  C6  UNK     1      16.409   7.749  32.577  1.00  0.00    -0.008 A 
HETATM    8  C8  UNK     1      18.413   6.645  32.955  1.00  0.00     0.073 A 
HETATM    9  C9  UNK     1      17.788   5.787  32.075  1.00  0.00     0.093 A 
ENDROOT
BRANCH   9  10
HETATM   10  N1  UNK     1      18.190   4.596  31.533  1.00  0.00    -0.316 N 
HETATM   11  C12 UNK     1      18.118   3.300  32.091  1.00  0.00     0.262 C 
HETATM   12  O2  UNK     1      17.673   2.988  33.190  1.00  0.00    -0.267 OA
HETATM   13  H13 UNK     1      18.606   4.685  30.609  1.00  0.00     0.169 HD
BRANCH  11  14
HETATM   14  C13 UNK     1      18.653   2.249  31.203  1.00  0.00     0.108 A 
HETATM   15  C14 UNK     1      19.010   1.101  31.790  1.00  0.00     0.037 A 
HETATM   16  C15 UNK     1      19.548   0.007  30.998  1.00  0.00    -0.001 A 
HETATM   17  C17 UNK     1      19.684   0.175  29.624  1.00  0.00     0.089 A 
HETATM   18  C18 UNK     1      19.934  -1.208  31.570  1.00  0.00     0.014 A 
HETATM   19  O3  UNK     1      19.307   1.384  29.010  1.00  0.00    -0.274 OA
HETATM   20  C19 UNK     1      20.194  -0.834  28.808  1.00  0.00     0.038 A 
HETATM   21  C16 UNK     1      18.789   2.450  29.742  1.00  0.00     0.304 A 
HETATM   22  O4  UNK     1      18.463   3.500  29.199  1.00  0.00    -0.259 OA
HETATM   23  C21 UNK     1      20.575  -2.042  29.386  1.00  0.00     0.003 A 
HETATM   24  C20 UNK     1      20.446  -2.230  30.765  1.00  0.00     0.001 A 
ENDBRANCH  11  14
ENDBRANCH   9  10
BRANCH   8  25
HETATM   25  C11 UNK     1      19.727   6.381  33.487  1.00  0.00     0.252 C 
HETATM   26  O1  UNK     1      20.764   6.894  33.026  1.00  0.00    -0.268 OA
HETATM   27  N2  UNK     1      19.815   5.526  34.584  1.00  0.00    -0.366 N 
HETATM   28  H14 UNK     1      18.995   5.094  34.997  1.00  0.00     0.159 HD
HETATM   29  H15 UNK     1      20.711   5.310  35.005  1.00  0.00     0.159 HD
ENDBRANCH   8  25
BRANCH   2  30
HETATM   30  C7  UNK     1      14.723  11.009  33.701  1.00  0.00     0.000 C 
HETATM   31  C10 UNK     1      15.224  12.402  34.032  1.00  0.00     0.005 C 
ENDBRANCH   2  30
TORSDOF 4
ENDMDL
MODEL 3
REMARK VINA RESULT:      -9.0      5.691      8.743
REMARK  4 active torsions:
REMARK  status: ('A' for Active; 'I' for Inactive)
REMARK       I    between atoms: C12_19  and  N1_6 
REMARK    1  A    between atoms: C9_16  and  N1_6 
REMARK       I    between atoms: C11_18  and  N2_7 
REMARK    2  A    between atoms: C1_8  and  C7_14 
REMARK    3  A    between atoms: C11_18  and  C8_15 
REMARK    4  A    between atoms: C12_19  and  C13_20 
ROOT
HETATM    1  S1  UNK     1      19.225  -1.250  32.359  1.00  0.00    -0.075 SA
HETATM    2  C1  UNK     1      18.859   2.502  30.720  1.00  0.00    -0.010 C 
HETATM    3  C2  UNK     1      17.820   3.009  31.741  1.00  0.00     0.009 C 
HETATM    4  C3  UNK     1      18.879   0.957  30.667  1.00  0.00     0.051 C 
HETATM    5  C4  UNK     1      18.138   2.526  33.164  1.00  0.00     0.041 C 
HETATM    6  C5  UNK     1      18.494   1.072  33.192  1.00  0.00    -0.026 A 
HETATM    7  C6  UNK     1      18.849   0.381  32.050  1.00  0.00    -0.008 A 
HETATM    8  C8  UNK     1      18.542   0.233  34.344  1.00  0.00     0.073 A 
HETATM    9  C9  UNK     1      18.925  -1.055  34.034  1.00  0.00     0.093 A 
ENDROOT
BRANCH   9  10
HETATM   10  N1  UNK     1      19.098  -2.162  34.820  1.00  0.00    -0.316 N 
HETATM   11  C12 UNK     1      20.302  -2.765  35.247  1.00  0.00     0.262 C 
HETATM   12  O2  UNK     1      21.446  -2.405  34.990  1.00  0.00    -0.267 OA
HETATM   13  H13 UNK     1      18.227  -2.599  35.111  1.00  0.00     0.169 HD
BRANCH  11  14
HETATM   14  C13 UNK     1      20.092  -3.956  36.095  1.00  0.00     0.108 A 
HETATM   15  C14 UNK     1      19.779  -5.090  35.457  1.00  0.00     0.037 A 
HETATM   16  C15 UNK     1      19.553  -6.315  36.207  1.00  0.00    -0.001 A 
HETATM   17  C17 UNK     1      19.667  -6.287  37.592  1.00  0.00     0.089 A 
HETATM   18  C18 UNK     1      19.224  -7.521  35.582  1.00  0.00     0.014 A 
HETATM   19  O3  UNK     1      19.997  -5.091  38.259  1.00  0.00    -0.274 OA
HETATM   20  C19 UNK     1      19.462  -7.426  38.369  1.00  0.00     0.038 A 
HETATM   21  C16 UNK     1      20.220  -3.903  37.569  1.00  0.00     0.304 A 
HETATM   22  O4  UNK     1      20.506  -2.866  38.157  1.00  0.00    -0.259 OA
HETATM   23  C21 UNK     1      19.135  -8.624  37.739  1.00  0.00     0.003 A 
HETATM   24  C20 UNK     1      19.016  -8.672  36.347  1.00  0.00     0.001 A 
ENDBRANCH  11  14
ENDBRANCH   9  10
BRANCH   8  25
HETATM   25  C11 UNK     1      18.239   0.643  35.693  1.00  0.00     0.252 C 
HETATM   26  O1  UNK     1      19.038   1.276  36.408  1.00  0.00    -0.268 OA
HETATM   27  N2  UNK     1      16.977   0.326  36.191  1.00  0.00    -0.366 N 
HETATM   28  H14 UNK     1      16.293  -0.181  35.639  1.00  0.00     0.159 HD
HETATM   29  H15 UNK     1      16.705   0.594  37.129  1.00  0.00     0.159 HD
ENDBRANCH   8  25
BRANCH   2  30
HETATM   30  C7  UNK     1      18.585   3.079  29.333  1.00  0.00     0.000 C 
HETATM   31  C10 UNK     1      17.846   2.086  28.456  1.00  0.00     0.005 C 
ENDBRANCH   2  30
TORSDOF 4
ENDMDL
MODEL 4
REMARK VINA RESULT:      -9.0     15.820     20.906
REMARK  4 active torsions:
REMARK  status: ('A' for Active; 'I' for Inactive)
REMARK       I    between atoms: C12_19  and  N1_6 
REMARK    1  A    between atoms: C9_16  and  N1_6 
REMARK       I    between atoms: C11_18  and  N2_7 
REMARK    2  A    between atoms: C1_8  and  C7_14 
REMARK    3  A    between atoms: C11_18  and  C8_15 
REMARK    4  A    between atoms: C12_19  and  C13_20 
ROOT
HETATM    1  S1  UNK     1      20.211  -4.652  14.884  1.00  0.00    -0.075 SA
HETATM    2  C1  UNK     1      20.908  -7.059  11.626  1.00  0.00    -0.010 C 
HETATM    3  C2  UNK     1      20.071  -6.219  10.638  1.00  0.00     0.009 C 
HETATM    4  C3  UNK     1      20.485  -6.785  13.087  1.00  0.00     0.051 C 
HETATM    5  C4  UNK     1      20.259  -4.712  10.874  1.00  0.00     0.041 C 
HETATM    6  C5  UNK     1      20.185  -4.362  12.327  1.00  0.00    -0.026 A 
HETATM    7  C6  UNK     1      20.312  -5.315  13.320  1.00  0.00    -0.008 A 
HETATM    8  C8  UNK     1      20.009  -3.058  12.878  1.00  0.00     0.073 A 
HETATM    9  C9  UNK     1      20.003  -3.072  14.257  1.00  0.00     0.093 A 
ENDROOT
BRANCH   9  10
HETATM   10  N1  UNK     1      19.864  -2.064  15.171  1.00  0.00    -0.316 N 
HETATM   11  C12 UNK     1      18.741  -1.737  15.964  1.00  0.00     0.262 C 
HETATM   12  O2  UNK     1      17.655  -2.306  15.986  1.00  0.00    -0.267 OA
HETATM   13  H13 UNK     1      20.689  -1.476  15.264  1.00  0.00     0.169 HD
BRANCH  11  14
HETATM   14  C13 UNK     1      18.965  -0.572  16.845  1.00  0.00     0.108 A 
HETATM   15  C14 UNK     1      18.965  -0.816  18.161  1.00  0.00     0.037 A 
HETATM   16  C15 UNK     1      19.177   0.268  19.108  1.00  0.00    -0.001 A 
HETATM   17  C17 UNK     1      19.377   1.555  18.623  1.00  0.00     0.089 A 
HETATM   18  C18 UNK     1      19.186   0.058  20.489  1.00  0.00     0.014 A 
HETATM   19  O3  UNK     1      19.375   1.807  17.237  1.00  0.00    -0.274 OA
HETATM   20  C19 UNK     1      19.585   2.637  19.476  1.00  0.00     0.038 A 
HETATM   21  C16 UNK     1      19.176   0.790  16.306  1.00  0.00     0.304 A 
HETATM   22  O4  UNK     1      19.175   1.018  15.102  1.00  0.00    -0.259 OA
HETATM   23  C21 UNK     1      19.592   2.420  20.852  1.00  0.00     0.003 A 
HETATM   24  C20 UNK     1      19.394   1.133  21.359  1.00  0.00     0.001 A 
ENDBRANCH  11  14
ENDBRANCH   9  10
BRANCH   8  25
HETATM   25  C11 UNK     1      19.855  -1.842  12.118  1.00  0.00     0.252 C 
HETATM   26  O1  UNK     1      18.806  -1.172  12.111  1.00  0.00    -0.268 OA
HETATM   27  N2  UNK     1      20.953  -1.403  11.383  1.00  0.00    -0.366 N 
HETATM   28  H14 UNK     1      21.830  -1.914  11.367  1.00  0.00     0.159 HD
HETATM   29  H15 UNK     1      20.907  -0.552  10.835  1.00  0.00     0.159 HD
ENDBRANCH   8  25
BRANCH   2  30
HETATM   30  C7  UNK     1      20.790  -8.548  11.307  1.00  0.00     0.000 C 
HETATM   31  C10 UNK     1      21.181  -9.402  12.498  1.00  0.00     0.005 C 
ENDBRANCH   2  30
TORSDOF 4
ENDMDL
MODEL 5
REMARK VINA RESULT:      -8.9      1.925      9.260
REMARK  4 active torsions:
REMARK  status: ('A' for Active; 'I' for Inactive)
REMARK       I    between atoms: C12_19  and  N1_6 
REMARK    1  A    between atoms: C9_16  and  N1_6 
REMARK       I    between atoms: C11_18  and  N2_7 
REMARK    2  A    between atoms: C1_8  and  C7_14 
REMARK    3  A    between atoms: C11_18  and  C8_15 
REMARK    4  A    between atoms: C12_19  and  C13_20 
ROOT
HETATM    1  S1  UNK     1      18.763   2.723  30.095  1.00  0.00    -0.075 SA
HETATM    2  C1  UNK     1      19.801  -1.252  30.203  1.00  0.00    -0.010 C 
HETATM    3  C2  UNK     1      20.167  -1.269  31.702  1.00  0.00     0.009 C 
HETATM    4  C3  UNK     1      19.854   0.184  29.634  1.00  0.00     0.051 C 
HETATM    5  C4  UNK     1      19.187  -0.430  32.537  1.00  0.00     0.041 C 
HETATM    6  C5  UNK     1      18.907   0.895  31.900  1.00  0.00    -0.026 A 
HETATM    7  C6  UNK     1      19.197   1.149  30.573  1.00  0.00    -0.008 A 
HETATM    8  C8  UNK     1      18.307   2.027  32.527  1.00  0.00     0.073 A 
HETATM    9  C9  UNK     1      18.170   3.090  31.659  1.00  0.00     0.093 A 
ENDROOT
BRANCH   9  10
HETATM   10  N1  UNK     1      17.655   4.345  31.840  1.00  0.00    -0.316 N 
HETATM   11  C12 UNK     1      18.268   5.478  32.423  1.00  0.00     0.262 C 
HETATM   12  O2  UNK     1      19.400   5.554  32.886  1.00  0.00    -0.267 OA
HETATM   13  H13 UNK     1      16.696   4.447  31.517  1.00  0.00     0.169 HD
BRANCH  11  14
HETATM   14  C13 UNK     1      17.396   6.670  32.444  1.00  0.00     0.108 A 
HETATM   15  C14 UNK     1      16.977   7.076  33.648  1.00  0.00     0.037 A 
HETATM   16  C15 UNK     1      16.114   8.240  33.770  1.00  0.00    -0.001 A 
HETATM   17  C17 UNK     1      15.734   8.920  32.618  1.00  0.00     0.089 A 
HETATM   18  C18 UNK     1      15.654   8.700  35.007  1.00  0.00     0.014 A 
HETATM   19  O3  UNK     1      16.177   8.488  31.354  1.00  0.00    -0.274 OA
HETATM   20  C19 UNK     1      14.908  10.042  32.666  1.00  0.00     0.038 A 
HETATM   21  C16 UNK     1      17.004   7.378  31.204  1.00  0.00     0.304 A 
HETATM   22  O4  UNK     1      17.385   7.008  30.099  1.00  0.00    -0.259 OA
HETATM   23  C21 UNK     1      14.453  10.494  33.903  1.00  0.00     0.003 A 
HETATM   24  C20 UNK     1      14.826   9.824  35.072  1.00  0.00     0.001 A 
ENDBRANCH  11  14
ENDBRANCH   9  10
BRANCH   8  25
HETATM   25  C11 UNK     1      17.875   2.093  33.901  1.00  0.00     0.252 C 
HETATM   26  O1  UNK     1      18.361   2.884  34.730  1.00  0.00    -0.268 OA
HETATM   27  N2  UNK     1      16.848   1.236  34.291  1.00  0.00    -0.366 N 
HETATM   28  H14 UNK     1      16.418   0.581  33.645  1.00  0.00     0.159 HD
HETATM   29  H15 UNK     1      16.498   1.242  35.242  1.00  0.00     0.159 HD
ENDBRANCH   8  25
BRANCH   2  30
HETATM   30  C7  UNK     1      20.722  -2.175  29.409  1.00  0.00     0.000 C 
HETATM   31  C10 UNK     1      21.223  -3.326  30.261  1.00  0.00     0.005 C 
ENDBRANCH   2  30
TORSDOF 4
ENDMDL
MODEL 6
REMARK VINA RESULT:      -8.9      7.527     12.260
REMARK  4 active torsions:
REMARK  status: ('A' for Active; 'I' for Inactive)
REMARK       I    between atoms: C12_19  and  N1_6 
REMARK    1  A    between atoms: C9_16  and  N1_6 
REMARK       I    between atoms: C11_18  and  N2_7 
REMARK    2  A    between atoms: C1_8  and  C7_14 
REMARK    3  A    between atoms: C11_18  and  C8_15 
REMARK    4  A    between atoms: C12_19  and  C13_20 
ROOT
HETATM    1  S1  UNK     1      19.795  -6.300  35.077  1.00  0.00    -0.075 SA
HETATM    2  C1  UNK     1      19.892  -8.673  38.431  1.00  0.00    -0.010 C 
HETATM    3  C2  UNK     1      20.749  -7.705  39.273  1.00  0.00     0.009 C 
HETATM    4  C3  UNK     1      20.059  -8.393  36.920  1.00  0.00     0.051 C 
HETATM    5  C4  UNK     1      20.340  -6.241  39.050  1.00  0.00     0.041 C 
HETATM    6  C5  UNK     1      20.155  -5.930  37.597  1.00  0.00    -0.026 A 
HETATM    7  C6  UNK     1      20.008  -6.921  36.647  1.00  0.00    -0.008 A 
HETATM    8  C8  UNK     1      20.083  -4.632  37.010  1.00  0.00     0.073 A 
HETATM    9  C9  UNK     1      19.889  -4.687  35.647  1.00  0.00     0.093 A 
ENDROOT
BRANCH   9  10
HETATM   10  N1  UNK     1      19.764  -3.698  34.709  1.00  0.00    -0.316 N 
HETATM   11  C12 UNK     1      20.609  -2.590  34.474  1.00  0.00     0.262 C 
HETATM   12  O2  UNK     1      21.636  -2.298  35.076  1.00  0.00    -0.267 OA
HETATM   13  H13 UNK     1      18.936  -3.787  34.125  1.00  0.00     0.169 HD
BRANCH  11  14
HETATM   14  C13 UNK     1      20.150  -1.728  33.365  1.00  0.00     0.108 A 
HETATM   15  C14 UNK     1      20.608  -2.036  32.147  1.00  0.00     0.037 A 
HETATM   16  C15 UNK     1      20.213  -1.245  30.992  1.00  0.00    -0.001 A 
HETATM   17  C17 UNK     1      19.353  -0.168  31.178  1.00  0.00     0.089 A 
HETATM   18  C18 UNK     1      20.667  -1.531  29.702  1.00  0.00     0.014 A 
HETATM   19  O3  UNK     1      18.874   0.152  32.462  1.00  0.00    -0.274 OA
HETATM   20  C19 UNK     1      18.937   0.631  30.114  1.00  0.00     0.038 A 
HETATM   21  C16 UNK     1      19.234  -0.586  33.586  1.00  0.00     0.304 A 
HETATM   22  O4  UNK     1      18.813  -0.300  34.701  1.00  0.00    -0.259 OA
HETATM   23  C21 UNK     1      19.394   0.339  28.831  1.00  0.00     0.003 A 
HETATM   24  C20 UNK     1      20.257  -0.740  28.624  1.00  0.00     0.001 A 
ENDBRANCH  11  14
ENDBRANCH   9  10
BRANCH   8  25
HETATM   25  C11 UNK     1      20.189  -3.383  37.724  1.00  0.00     0.252 C 
HETATM   26  O1  UNK     1      21.263  -2.950  38.181  1.00  0.00    -0.268 OA
HETATM   27  N2  UNK     1      19.026  -2.631  37.877  1.00  0.00    -0.366 N 
HETATM   28  H14 UNK     1      18.132  -2.943  37.513  1.00  0.00     0.159 HD
HETATM   29  H15 UNK     1      19.041  -1.742  38.363  1.00  0.00     0.159 HD
ENDBRANCH   8  25
BRANCH   2  30
HETATM   30  C7  UNK     1      20.243 -10.125  38.747  1.00  0.00     0.000 C 
HETATM   31  C10 UNK     1      19.844 -11.050  37.614  1.00  0.00     0.005 C 
ENDBRANCH   2  30
TORSDOF 4
ENDMDL
MODEL 7
REMARK VINA RESULT:      -8.9     15.888     20.729
REMARK  4 active torsions:
REMARK  status: ('A' for Active; 'I' for Inactive)
REMARK       I    between atoms: C12_19  and  N1_6 
REMARK    1  A    between atoms: C9_16  and  N1_6 
REMARK       I    between atoms: C11_18  and  N2_7 
REMARK    2  A    between atoms: C1_8  and  C7_14 
REMARK    3  A    between atoms: C11_18  and  C8_15 
REMARK    4  A    between atoms: C12_19  and  C13_20 
ROOT
HETATM    1  S1  UNK     1      19.080  -2.122  12.417  1.00  0.00    -0.075 SA
HETATM    2  C1  UNK     1      19.282  -5.445  10.007  1.00  0.00    -0.010 C 
HETATM    3  C2  UNK     1      20.535  -6.042  10.682  1.00  0.00     0.009 C 
HETATM    4  C3  UNK     1      19.176  -3.926  10.276  1.00  0.00     0.051 C 
HETATM    5  C4  UNK     1      20.496  -5.869  12.208  1.00  0.00     0.041 C 
HETATM    6  C5  UNK     1      20.082  -4.485  12.600  1.00  0.00    -0.026 A 
HETATM    7  C6  UNK     1      19.463  -3.624  11.714  1.00  0.00    -0.008 A 
HETATM    8  C8  UNK     1      20.233  -3.887  13.887  1.00  0.00     0.073 A 
HETATM    9  C9  UNK     1      19.731  -2.604  13.926  1.00  0.00     0.093 A 
ENDROOT
BRANCH   9  10
HETATM   10  N1  UNK     1      19.671  -1.687  14.940  1.00  0.00    -0.316 N 
HETATM   11  C12 UNK     1      18.664  -1.511  15.917  1.00  0.00     0.262 C 
HETATM   12  O2  UNK     1      17.632  -2.160  16.045  1.00  0.00    -0.267 OA
HETATM   13  H13 UNK     1      20.462  -1.048  14.964  1.00  0.00     0.169 HD
BRANCH  11  14
HETATM   14  C13 UNK     1      18.948  -0.409  16.859  1.00  0.00     0.108 A 
HETATM   15  C14 UNK     1      18.956  -0.727  18.158  1.00  0.00     0.037 A 
HETATM   16  C15 UNK     1      19.225   0.291  19.161  1.00  0.00    -0.001 A 
HETATM   17  C17 UNK     1      19.471   1.595  18.747  1.00  0.00     0.089 A 
HETATM   18  C18 UNK     1      19.244   0.002  20.528  1.00  0.00     0.014 A 
HETATM   19  O3  UNK     1      19.460   1.925  17.378  1.00  0.00    -0.274 OA
HETATM   20  C19 UNK     1      19.734   2.617  19.657  1.00  0.00     0.038 A 
HETATM   21  C16 UNK     1      19.207   0.973  16.395  1.00  0.00     0.304 A 
HETATM   22  O4  UNK     1      19.199   1.269  15.205  1.00  0.00    -0.259 OA
HETATM   23  C21 UNK     1      19.752   2.322  21.018  1.00  0.00     0.003 A 
HETATM   24  C20 UNK     1      19.508   1.017  21.454  1.00  0.00     0.001 A 
ENDBRANCH  11  14
ENDBRANCH   9  10
BRANCH   8  25
HETATM   25  C11 UNK     1      20.829  -4.518  15.038  1.00  0.00     0.252 C 
HETATM   26  O1  UNK     1      22.023  -4.367  15.355  1.00  0.00    -0.268 OA
HETATM   27  N2  UNK     1      20.004  -5.312  15.833  1.00  0.00    -0.366 N 
HETATM   28  H14 UNK     1      19.023  -5.456  15.616  1.00  0.00     0.159 HD
HETATM   29  H15 UNK     1      20.366  -5.775  16.659  1.00  0.00     0.159 HD
ENDBRANCH   8  25
BRANCH   2  30
HETATM   30  C7  UNK     1      19.290  -5.721   8.505  1.00  0.00     0.000 C 
HETATM   31  C10 UNK     1      19.801  -4.524   7.725  1.00  0.00     0.005 C 
ENDBRANCH   2  30
TORSDOF 4
ENDMDL
MODEL 8
REMARK VINA RESULT:      -8.8      2.091      9.257
REMARK  4 active torsions:
REMARK  status: ('A' for Active; 'I' for Inactive)
REMARK       I    between atoms: C12_19  and  N1_6 
REMARK    1  A    between atoms: C9_16  and  N1_6 
REMARK       I    between atoms: C11_18  and  N2_7 
REMARK    2  A    between atoms: C1_8  and  C7_14 
REMARK    3  A    between atoms: C11_18  and  C8_15 
REMARK    4  A    between atoms: C12_19  and  C13_20 
ROOT
HETATM    1  S1  UNK     1      18.271   2.287  32.980  1.00  0.00    -0.075 SA
HETATM    2  C1  UNK     1      20.254  -1.072  31.684  1.00  0.00    -0.010 C 
HETATM    3  C2  UNK     1      19.676  -1.043  30.253  1.00  0.00     0.009 C 
HETATM    4  C3  UNK     1      19.360  -0.275  32.661  1.00  0.00     0.051 C 
HETATM    5  C4  UNK     1      19.592   0.389  29.703  1.00  0.00     0.041 C 
HETATM    6  C5  UNK     1      19.020   1.340  30.708  1.00  0.00    -0.026 A 
HETATM    7  C6  UNK     1      18.943   1.028  32.052  1.00  0.00    -0.008 A 
HETATM    8  C8  UNK     1      18.519   2.650  30.448  1.00  0.00     0.073 A 
HETATM    9  C9  UNK     1      18.080   3.276  31.595  1.00  0.00     0.093 A 
ENDROOT
BRANCH   9  10
HETATM   10  N1  UNK     1      17.535   4.515  31.797  1.00  0.00    -0.316 N 
HETATM   11  C12 UNK     1      18.045   5.593  32.556  1.00  0.00     0.262 C 
HETATM   12  O2  UNK     1      19.093   5.624  33.191  1.00  0.00    -0.267 OA
HETATM   13  H13 UNK     1      16.636   4.648  31.341  1.00  0.00     0.169 HD
BRANCH  11  14
HETATM   14  C13 UNK     1      17.172   6.784  32.542  1.00  0.00     0.108 A 
HETATM   15  C14 UNK     1      16.723   7.204  33.730  1.00  0.00     0.037 A 
HETATM   16  C15 UNK     1      15.856   8.369  33.817  1.00  0.00    -0.001 A 
HETATM   17  C17 UNK     1      15.505   9.035  32.648  1.00  0.00     0.089 A 
HETATM   18  C18 UNK     1      15.365   8.842  35.036  1.00  0.00     0.014 A 
HETATM   19  O3  UNK     1      15.980   8.589  31.399  1.00  0.00    -0.274 OA
HETATM   20  C19 UNK     1      14.678  10.157  32.662  1.00  0.00     0.038 A 
HETATM   21  C16 UNK     1      16.811   7.477  31.284  1.00  0.00     0.304 A 
HETATM   22  O4  UNK     1      17.219   7.095  30.193  1.00  0.00    -0.259 OA
HETATM   23  C21 UNK     1      14.192  10.623  33.881  1.00  0.00     0.003 A 
HETATM   24  C20 UNK     1      14.535   9.967  35.067  1.00  0.00     0.001 A 
ENDBRANCH  11  14
ENDBRANCH   9  10
BRANCH   8  25
HETATM   25  C11 UNK     1      18.465   3.284  29.154  1.00  0.00     0.252 C 
HETATM   26  O1  UNK     1      17.994   2.730  28.144  1.00  0.00    -0.268 OA
HETATM   27  N2  UNK     1      18.949   4.587  29.058  1.00  0.00    -0.366 N 
HETATM   28  H14 UNK     1      19.335   5.078  29.858  1.00  0.00     0.159 HD
HETATM   29  H15 UNK     1      18.931   5.086  28.176  1.00  0.00     0.159 HD
ENDBRANCH   8  25
BRANCH   2  30
HETATM   30  C7  UNK     1      20.427  -2.509  32.171  1.00  0.00     0.000 C 
HETATM   31  C10 UNK     1      20.399  -2.588  33.686  1.00  0.00     0.005 C 
ENDBRANCH   2  30
TORSDOF 4
ENDMDL
MODEL 9
REMARK VINA RESULT:      -8.7      1.952      2.815
REMARK  4 active torsions:
REMARK  status: ('A' for Active; 'I' for Inactive)
REMARK       I    between atoms: C12_19  and  N1_6 
REMARK    1  A    between atoms: C9_16  and  N1_6 
REMARK       I    between atoms: C11_18  and  N2_7 
REMARK    2  A    between atoms: C1_8  and  C7_14 
REMARK    3  A    between atoms: C11_18  and  C8_15 
REMARK    4  A    between atoms: C12_19  and  C13_20 
ROOT
HETATM    1  S1  UNK     1      17.935   8.579  33.705  1.00  0.00    -0.075 SA
HETATM    2  C1  UNK     1      15.854  12.010  34.598  1.00  0.00    -0.010 C 
HETATM    3  C2  UNK     1      14.782  11.822  33.502  1.00  0.00     0.009 C 
HETATM    4  C3  UNK     1      17.131  11.204  34.269  1.00  0.00     0.051 C 
HETATM    5  C4  UNK     1      14.353  10.353  33.372  1.00  0.00     0.041 C 
HETATM    6  C5  UNK     1      15.530   9.428  33.365  1.00  0.00    -0.026 A 
HETATM    7  C6  UNK     1      16.780   9.826  33.797  1.00  0.00    -0.008 A 
HETATM    8  C8  UNK     1      15.532   8.061  32.958  1.00  0.00     0.073 A 
HETATM    9  C9  UNK     1      16.775   7.480  33.090  1.00  0.00     0.093 A 
ENDROOT
BRANCH   9  10
HETATM   10  N1  UNK     1      17.215   6.212  32.820  1.00  0.00    -0.316 N 
HETATM   11  C12 UNK     1      18.018   5.764  31.747  1.00  0.00     0.262 C 
HETATM   12  O2  UNK     1      18.483   6.438  30.835  1.00  0.00    -0.267 OA
HETATM   13  H13 UNK     1      16.896   5.515  33.489  1.00  0.00     0.169 HD
BRANCH  11  14
HETATM   14  C13 UNK     1      18.292   4.313  31.787  1.00  0.00     0.108 A 
HETATM   15  C14 UNK     1      18.580   3.732  30.617  1.00  0.00     0.037 A 
HETATM   16  C15 UNK     1      18.863   2.307  30.556  1.00  0.00    -0.001 A 
HETATM   17  C17 UNK     1      18.831   1.563  31.730  1.00  0.00     0.089 A 
HETATM   18  C18 UNK     1      19.168   1.659  29.356  1.00  0.00     0.014 A 
HETATM   19  O3  UNK     1      18.528   2.179  32.959  1.00  0.00    -0.274 OA
HETATM   20  C19 UNK     1      19.092   0.194  31.740  1.00  0.00     0.038 A 
HETATM   21  C16 UNK     1      18.252   3.541  33.050  1.00  0.00     0.304 A 
HETATM   22  O4  UNK     1      17.988   4.070  34.125  1.00  0.00    -0.259 OA
HETATM   23  C21 UNK     1      19.396  -0.444  30.539  1.00  0.00     0.003 A 
HETATM   24  C20 UNK     1      19.434   0.286  29.349  1.00  0.00     0.001 A 
ENDBRANCH  11  14
ENDBRANCH   9  10
BRANCH   8  25
HETATM   25  C11 UNK     1      14.389   7.333  32.464  1.00  0.00     0.252 C 
HETATM   26  O1  UNK     1      14.303   6.913  31.296  1.00  0.00    -0.268 OA
HETATM   27  N2  UNK     1      13.354   7.079  33.362  1.00  0.00    -0.366 N 
HETATM   28  H14 UNK     1      13.387   7.396  34.326  1.00  0.00     0.159 HD
HETATM   29  H15 UNK     1      12.529   6.566  33.074  1.00  0.00     0.159 HD
ENDBRANCH   8  25
BRANCH   2  30
HETATM   30  C7  UNK     1      16.189  13.488  34.783  1.00  0.00     0.000 C 
HETATM   31  C10 UNK     1      17.671  13.747  34.595  1.00  0.00     0.005 C 
ENDBRANCH   2  30
TORSDOF 4
ENDMDL
MODEL 10
REMARK VINA RESULT:      -8.5      5.571      8.875
REMARK  4 active torsions:
REMARK  status: ('A' for Active; 'I' for Inactive)
REMARK       I    between atoms: C12_19  and  N1_6 
REMARK    1  A    between atoms: C9_16  and  N1_6 
REMARK       I    between atoms: C11_18  and  N2_7 
REMARK    2  A    between atoms: C1_8  and  C7_14 
REMARK    3  A    between atoms: C11_18  and  C8_15 
REMARK    4  A    between atoms: C12_19  and  C13_20 
ROOT
HETATM    1  S1  UNK     1      18.470   0.269  34.074  1.00  0.00    -0.075 SA
HETATM    2  C1  UNK     1      18.112   2.817  30.868  1.00  0.00    -0.010 C 
HETATM    3  C2  UNK     1      19.339   2.271  30.107  1.00  0.00     0.009 C 
HETATM    4  C3  UNK     1      18.198   2.480  32.374  1.00  0.00     0.051 C 
HETATM    5  C4  UNK     1      19.438   0.741  30.210  1.00  0.00     0.041 C 
HETATM    6  C5  UNK     1      19.213   0.262  31.610  1.00  0.00    -0.026 A 
HETATM    7  C6  UNK     1      18.628   1.060  32.575  1.00  0.00    -0.008 A 
HETATM    8  C8  UNK     1      19.528  -1.030  32.126  1.00  0.00     0.073 A 
HETATM    9  C9  UNK     1      19.178  -1.161  33.453  1.00  0.00     0.093 A 
ENDROOT
BRANCH   9  10
HETATM   10  N1  UNK     1      19.299  -2.211  34.322  1.00  0.00    -0.316 N 
HETATM   11  C12 UNK     1      20.421  -2.601  35.089  1.00  0.00     0.262 C 
HETATM   12  O2  UNK     1      21.521  -2.061  35.123  1.00  0.00    -0.267 OA
HETATM   13  H13 UNK     1      18.461  -2.782  34.397  1.00  0.00     0.169 HD
BRANCH  11  14
HETATM   14  C13 UNK     1      20.175  -3.796  35.921  1.00  0.00     0.108 A 
HETATM   15  C14 UNK     1      20.082  -4.962  35.270  1.00  0.00     0.037 A 
HETATM   16  C15 UNK     1      19.841  -6.194  36.004  1.00  0.00    -0.001 A 
HETATM   17  C17 UNK     1      19.709  -6.139  37.387  1.00  0.00     0.089 A 
HETATM   18  C18 UNK     1      19.737  -7.432  35.365  1.00  0.00     0.014 A 
HETATM   19  O3  UNK     1      19.807  -4.910  38.067  1.00  0.00    -0.274 OA
HETATM   20  C19 UNK     1      19.475  -7.283  38.148  1.00  0.00     0.038 A 
HETATM   21  C16 UNK     1      20.038  -3.714  37.393  1.00  0.00     0.304 A 
HETATM   22  O4  UNK     1      20.122  -2.648  37.992  1.00  0.00    -0.259 OA
HETATM   23  C21 UNK     1      19.373  -8.514  37.505  1.00  0.00     0.003 A 
HETATM   24  C20 UNK     1      19.504  -8.589  36.115  1.00  0.00     0.001 A 
ENDBRANCH  11  14
ENDBRANCH   9  10
BRANCH   8  25
HETATM   25  C11 UNK     1      20.138  -2.103  31.380  1.00  0.00     0.252 C 
HETATM   26  O1  UNK     1      21.016  -2.848  31.853  1.00  0.00    -0.268 OA
HETATM   27  N2  UNK     1      19.691  -2.312  30.077  1.00  0.00    -0.366 N 
HETATM   28  H14 UNK     1      18.971  -1.734  29.655  1.00  0.00     0.159 HD
HETATM   29  H15 UNK     1      20.078  -3.056  29.507  1.00  0.00     0.159 HD
ENDBRANCH   8  25
BRANCH   2  30
HETATM   30  C7  UNK     1      17.973   4.324  30.665  1.00  0.00     0.000 C 
HETATM   31  C10 UNK     1      19.330   5.000  30.591  1.00  0.00     0.005 C 
ENDBRANCH   2  30
TORSDOF 4
ENDMDL
