MODEL 1
REMARK VINA RESULT:     -10.0      0.000      0.000
REMARK  4 active torsions:
REMARK  status: ('A' for Active; 'I' for Inactive)
REMARK    1  A    between atoms: C1_7  and  N1_4 
REMARK       I    between atoms: C9_15  and  N1_4 
REMARK    2  A    between atoms: C6_12  and  N2_5 
REMARK    3  A    between atoms: C1_7  and  C2_8 
REMARK    4  A    between atoms: C10_16  and  C9_15 
ROOT
HETATM    1  O2  UNK     1      21.464  -4.041  37.275  1.00  0.00    -0.267 OA
HETATM    2  N1  UNK     1      19.358  -3.879  36.290  1.00  0.00    -0.348 N 
HETATM    3  C9  UNK     1      20.439  -4.552  36.828  1.00  0.00     0.258 C 
HETATM    4  H2  UNK     1      18.536  -4.404  36.006  1.00  0.00     0.163 HD
ENDROOT
BRANCH   2   5
HETATM    5  C1  UNK     1      19.300  -2.439  36.183  1.00  0.00     0.114 C 
HETATM    6  C3  UNK     1      18.013  -1.924  36.830  1.00  0.00     0.037 C 
BRANCH   5   7
HETATM    7  C2  UNK     1      19.425  -1.984  34.743  1.00  0.00    -0.036 A 
HETATM    8  C4  UNK     1      18.588  -0.987  34.276  1.00  0.00     0.011 A 
HETATM    9  C7  UNK     1      18.703  -0.569  32.951  1.00  0.00     0.030 A 
HETATM   10  C6  UNK     1      19.652  -1.155  32.114  1.00  0.00     0.039 A 
HETATM   11  C8  UNK     1      20.488  -2.159  32.603  1.00  0.00     0.030 A 
HETATM   12  C5  UNK     1      20.373  -2.577  33.929  1.00  0.00     0.011 A 
BRANCH  10  13
HETATM   13  N2  UNK     1      19.766  -0.740  30.799  1.00  0.00    -0.315 N 
HETATM   14  C16 UNK     1      20.197  -1.494  29.738  1.00  0.00     0.117 A 
HETATM   15  C21 UNK     1      20.137  -0.652  28.652  1.00  0.00     0.135 A 
HETATM   16  N3  UNK     1      19.684   0.592  29.014  1.00  0.00    -0.254 NA
HETATM   17  C18 UNK     1      19.470   0.507  30.308  1.00  0.00     0.214 A 
ENDBRANCH  10  13
ENDBRANCH   5   7
ENDBRANCH   2   5
BRANCH   3  18
HETATM   18  C10 UNK     1      20.261  -6.009  36.829  1.00  0.00     0.108 A 
HETATM   19  C12 UNK     1      20.111  -6.586  38.028  1.00  0.00     0.037 A 
HETATM   20  C11 UNK     1      19.930  -8.025  38.132  1.00  0.00    -0.001 A 
HETATM   21  C13 UNK     1      19.914  -8.787  36.968  1.00  0.00     0.089 A 
HETATM   22  C15 UNK     1      19.768  -8.669  39.361  1.00  0.00     0.014 A 
HETATM   23  O1  UNK     1      20.073  -8.175  35.709  1.00  0.00    -0.274 OA
HETATM   24  C17 UNK     1      19.745 -10.170  36.998  1.00  0.00     0.038 A 
HETATM   25  C14 UNK     1      20.249  -6.800  35.579  1.00  0.00     0.304 A 
HETATM   26  O3  UNK     1      20.387  -6.276  34.479  1.00  0.00    -0.259 OA
HETATM   27  C20 UNK     1      19.585 -10.804  38.228  1.00  0.00     0.003 A 
HETATM   28  C19 UNK     1      19.597 -10.055  39.408  1.00  0.00     0.001 A 
ENDBRANCH   3  18
TORSDOF 4
ENDMDL
MODEL 2
REMARK VINA RESULT:      -9.7      6.782     10.442
REMARK  4 active torsions:
REMARK  status: ('A' for Active; 'I' for Inactive)
REMARK    1  A    between atoms: C1_7  and  N1_4 
REMARK       I    between atoms: C9_15  and  N1_4 
REMARK    2  A    between atoms: C6_12  and  N2_5 
REMARK    3  A    between atoms: C1_7  and  C2_8 
REMARK    4  A    between atoms: C10_16  and  C9_15 
ROOT
HETATM    1  O2  UNK     1      18.206   3.075  28.760  1.00  0.00    -0.267 OA
HETATM    2  N1  UNK     1      19.185   4.142  30.587  1.00  0.00    -0.348 N 
HETATM    3  C9  UNK     1      18.743   3.047  29.865  1.00  0.00     0.258 C 
HETATM    4  H2  UNK     1      19.671   3.994  31.466  1.00  0.00     0.163 HD
ENDROOT
BRANCH   2   5
HETATM    5  C1  UNK     1      19.063   5.501  30.110  1.00  0.00     0.114 C 
HETATM    6  C3  UNK     1      20.453   6.084  29.851  1.00  0.00     0.037 C 
BRANCH   5   7
HETATM    7  C2  UNK     1      18.266   6.357  31.074  1.00  0.00    -0.036 A 
HETATM    8  C4  UNK     1      18.553   6.295  32.426  1.00  0.00     0.011 A 
HETATM    9  C7  UNK     1      17.819   7.082  33.312  1.00  0.00     0.030 A 
HETATM   10  C6  UNK     1      16.810   7.918  32.834  1.00  0.00     0.039 A 
HETATM   11  C8  UNK     1      16.536   7.967  31.466  1.00  0.00     0.030 A 
HETATM   12  C5  UNK     1      17.270   7.179  30.580  1.00  0.00     0.011 A 
BRANCH  10  13
HETATM   13  N2  UNK     1      16.083   8.699  33.713  1.00  0.00    -0.315 N 
HETATM   14  C16 UNK     1      14.733   8.633  33.941  1.00  0.00     0.117 A 
HETATM   15  C21 UNK     1      14.481   9.598  34.887  1.00  0.00     0.135 A 
HETATM   16  N3  UNK     1      15.632  10.253  35.246  1.00  0.00    -0.254 NA
HETATM   17  C18 UNK     1      16.576   9.690  34.524  1.00  0.00     0.214 A 
ENDBRANCH  10  13
ENDBRANCH   5   7
ENDBRANCH   2   5
BRANCH   3  18
HETATM   18  C10 UNK     1      18.980   1.775  30.557  1.00  0.00     0.108 A 
HETATM   19  C12 UNK     1      19.616   0.829  29.854  1.00  0.00     0.037 A 
HETATM   20  C11 UNK     1      19.895  -0.466  30.453  1.00  0.00    -0.001 A 
HETATM   21  C13 UNK     1      19.492  -0.703  31.763  1.00  0.00     0.089 A 
HETATM   22  C15 UNK     1      20.556  -1.482  29.758  1.00  0.00     0.014 A 
HETATM   23  O1  UNK     1      18.823   0.296  32.498  1.00  0.00    -0.274 OA
HETATM   24  C17 UNK     1      19.728  -1.922  32.395  1.00  0.00     0.038 A 
HETATM   25  C14 UNK     1      18.542   1.545  31.951  1.00  0.00     0.304 A 
HETATM   26  O3  UNK     1      17.959   2.408  32.598  1.00  0.00    -0.259 OA
HETATM   27  C20 UNK     1      20.388  -2.929  31.694  1.00  0.00     0.003 A 
HETATM   28  C19 UNK     1      20.801  -2.710  30.378  1.00  0.00     0.001 A 
ENDBRANCH   3  18
TORSDOF 4
ENDMDL
MODEL 3
REMARK VINA RESULT:      -9.5      1.224      1.561
REMARK  4 active torsions:
REMARK  status: ('A' for Active; 'I' for Inactive)
REMARK    1  A    between atoms: C1_7  and  N1_4 
REMARK       I    between atoms: C9_15  and  N1_4 
REMARK    2  A    between atoms: C6_12  and  N2_5 
REMARK    3  A    between atoms: C1_7  and  C2_8 
REMARK    4  A    between atoms: C10_16  and  C9_15 
ROOT
HETATM    1  O2  UNK     1      20.908  -4.166  37.978  1.00  0.00    -0.267 OA
HETATM    2  N1  UNK     1      19.385  -4.000  36.221  1.00  0.00    -0.348 N 
HETATM    3  C9  UNK     1      20.169  -4.676  37.138  1.00  0.00     0.258 C 
HETATM    4  H2  UNK     1      18.764  -4.527  35.613  1.00  0.00     0.163 HD
ENDROOT
BRANCH   2   5
HETATM    5  C1  UNK     1      19.339  -2.558  36.135  1.00  0.00     0.114 C 
HETATM    6  C3  UNK     1      18.060  -2.041  36.795  1.00  0.00     0.037 C 
BRANCH   5   7
HETATM    7  C2  UNK     1      19.462  -2.084  34.700  1.00  0.00    -0.036 A 
HETATM    8  C4  UNK     1      18.598  -1.108  34.237  1.00  0.00     0.011 A 
HETATM    9  C7  UNK     1      18.711  -0.673  32.917  1.00  0.00     0.030 A 
HETATM   10  C6  UNK     1      19.684  -1.220  32.082  1.00  0.00     0.039 A 
HETATM   11  C8  UNK     1      20.547  -2.204  32.568  1.00  0.00     0.030 A 
HETATM   12  C5  UNK     1      20.434  -2.639  33.888  1.00  0.00     0.011 A 
BRANCH  10  13
HETATM   13  N2  UNK     1      19.796  -0.788  30.773  1.00  0.00    -0.315 N 
HETATM   14  C16 UNK     1      20.277  -1.510  29.711  1.00  0.00     0.117 A 
HETATM   15  C21 UNK     1      20.192  -0.662  28.632  1.00  0.00     0.135 A 
HETATM   16  N3  UNK     1      19.674   0.555  28.998  1.00  0.00    -0.254 NA
HETATM   17  C18 UNK     1      19.446   0.448  30.289  1.00  0.00     0.214 A 
ENDBRANCH  10  13
ENDBRANCH   5   7
ENDBRANCH   2   5
BRANCH   3  18
HETATM   18  C10 UNK     1      20.043  -6.134  37.032  1.00  0.00     0.108 A 
HETATM   19  C12 UNK     1      21.184  -6.815  36.864  1.00  0.00     0.037 A 
HETATM   20  C11 UNK     1      21.161  -8.265  36.746  1.00  0.00    -0.001 A 
HETATM   21  C13 UNK     1      19.939  -8.926  36.812  1.00  0.00     0.089 A 
HETATM   22  C15 UNK     1      22.326  -9.016  36.571  1.00  0.00     0.014 A 
HETATM   23  O1  UNK     1      18.742  -8.204  36.988  1.00  0.00    -0.274 OA
HETATM   24  C17 UNK     1      19.848 -10.313  36.706  1.00  0.00     0.038 A 
HETATM   25  C14 UNK     1      18.732  -6.817  37.103  1.00  0.00     0.304 A 
HETATM   26  O3  UNK     1      17.686  -6.196  37.256  1.00  0.00    -0.259 OA
HETATM   27  C20 UNK     1      21.015 -11.054  36.531  1.00  0.00     0.003 A 
HETATM   28  C19 UNK     1      22.251 -10.408  36.464  1.00  0.00     0.001 A 
ENDBRANCH   3  18
TORSDOF 4
ENDMDL
MODEL 4
REMARK VINA RESULT:      -9.2      7.280     10.287
REMARK  4 active torsions:
REMARK  status: ('A' for Active; 'I' for Inactive)
REMARK    1  A    between atoms: C1_7  and  N1_4 
REMARK       I    between atoms: C9_15  and  N1_4 
REMARK    2  A    between atoms: C6_12  and  N2_5 
REMARK    3  A    between atoms: C1_7  and  C2_8 
REMARK    4  A    between atoms: C10_16  and  C9_15 
ROOT
HETATM    1  O2  UNK     1      17.522   2.798  30.927  1.00  0.00    -0.267 OA
HETATM    2  N1  UNK     1      18.716   4.217  32.339  1.00  0.00    -0.348 N 
HETATM    3  C9  UNK     1      18.105   3.027  31.984  1.00  0.00     0.258 C 
HETATM    4  H2  UNK     1      19.222   4.273  33.218  1.00  0.00     0.163 HD
ENDROOT
BRANCH   2   5
HETATM    5  C1  UNK     1      18.742   5.377  31.477  1.00  0.00     0.114 C 
HETATM    6  C3  UNK     1      20.161   5.593  30.947  1.00  0.00     0.037 C 
BRANCH   5   7
HETATM    7  C2  UNK     1      18.214   6.607  32.187  1.00  0.00    -0.036 A 
HETATM    8  C4  UNK     1      19.045   7.295  33.052  1.00  0.00     0.011 A 
HETATM    9  C7  UNK     1      18.559   8.427  33.705  1.00  0.00     0.030 A 
HETATM   10  C6  UNK     1      17.249   8.852  33.483  1.00  0.00     0.039 A 
HETATM   11  C8  UNK     1      16.426   8.145  32.606  1.00  0.00     0.030 A 
HETATM   12  C5  UNK     1      16.913   7.013  31.953  1.00  0.00     0.011 A 
BRANCH  10  13
HETATM   13  N2  UNK     1      16.767   9.975  34.131  1.00  0.00    -0.315 N 
HETATM   14  C16 UNK     1      17.318  11.230  34.114  1.00  0.00     0.117 A 
HETATM   15  C21 UNK     1      16.489  11.997  34.898  1.00  0.00     0.135 A 
HETATM   16  N3  UNK     1      15.448  11.253  35.394  1.00  0.00    -0.254 NA
HETATM   17  C18 UNK     1      15.642  10.044  34.915  1.00  0.00     0.214 A 
ENDBRANCH  10  13
ENDBRANCH   5   7
ENDBRANCH   2   5
BRANCH   3  18
HETATM   18  C10 UNK     1      18.214   1.998  33.024  1.00  0.00     0.108 A 
HETATM   19  C12 UNK     1      17.879   2.373  34.266  1.00  0.00     0.037 A 
HETATM   20  C11 UNK     1      17.955   1.423  35.364  1.00  0.00    -0.001 A 
HETATM   21  C13 UNK     1      18.379   0.124  35.102  1.00  0.00     0.089 A 
HETATM   22  C15 UNK     1      17.616   1.770  36.674  1.00  0.00     0.014 A 
HETATM   23  O1  UNK     1      18.729  -0.265  33.795  1.00  0.00    -0.274 OA
HETATM   24  C17 UNK     1      18.474  -0.834  36.110  1.00  0.00     0.038 A 
HETATM   25  C14 UNK     1      18.667   0.622  32.723  1.00  0.00     0.304 A 
HETATM   26  O3  UNK     1      18.975   0.274  31.588  1.00  0.00    -0.259 OA
HETATM   27  C20 UNK     1      18.134  -0.479  37.414  1.00  0.00     0.003 A 
HETATM   28  C19 UNK     1      17.706   0.821  37.695  1.00  0.00     0.001 A 
ENDBRANCH   3  18
TORSDOF 4
ENDMDL
MODEL 5
REMARK VINA RESULT:      -9.2      3.136      8.722
REMARK  4 active torsions:
REMARK  status: ('A' for Active; 'I' for Inactive)
REMARK    1  A    between atoms: C1_7  and  N1_4 
REMARK       I    between atoms: C9_15  and  N1_4 
REMARK    2  A    between atoms: C6_12  and  N2_5 
REMARK    3  A    between atoms: C1_7  and  C2_8 
REMARK    4  A    between atoms: C10_16  and  C9_15 
ROOT
HETATM    1  O2  UNK     1      17.753  -1.317  36.115  1.00  0.00    -0.267 OA
HETATM    2  N1  UNK     1      19.396  -2.856  35.512  1.00  0.00    -0.348 N 
HETATM    3  C9  UNK     1      18.587  -1.751  35.323  1.00  0.00     0.258 C 
HETATM    4  H2  UNK     1      20.095  -3.087  34.812  1.00  0.00     0.163 HD
ENDROOT
BRANCH   2   5
HETATM    5  C1  UNK     1      19.357  -3.666  36.709  1.00  0.00     0.114 C 
HETATM    6  C3  UNK     1      20.018  -2.913  37.865  1.00  0.00     0.037 C 
BRANCH   5   7
HETATM    7  C2  UNK     1      19.996  -5.021  36.483  1.00  0.00    -0.036 A 
HETATM    8  C4  UNK     1      19.813  -5.659  35.269  1.00  0.00     0.011 A 
HETATM    9  C7  UNK     1      20.402  -6.906  35.062  1.00  0.00     0.030 A 
HETATM   10  C6  UNK     1      21.162  -7.495  36.071  1.00  0.00     0.039 A 
HETATM   11  C8  UNK     1      21.336  -6.836  37.289  1.00  0.00     0.030 A 
HETATM   12  C5  UNK     1      20.748  -5.589  37.496  1.00  0.00     0.011 A 
BRANCH  10  13
HETATM   13  N2  UNK     1      21.746  -8.732  35.865  1.00  0.00    -0.315 N 
HETATM   14  C16 UNK     1      22.693  -9.332  36.654  1.00  0.00     0.117 A 
HETATM   15  C21 UNK     1      22.958 -10.536  36.045  1.00  0.00     0.135 A 
HETATM   16  N3  UNK     1      22.205 -10.693  34.910  1.00  0.00    -0.254 NA
HETATM   17  C18 UNK     1      21.487  -9.594  34.829  1.00  0.00     0.214 A 
ENDBRANCH  10  13
ENDBRANCH   5   7
ENDBRANCH   2   5
BRANCH   3  18
HETATM   18  C10 UNK     1      18.813  -1.093  34.031  1.00  0.00     0.108 A 
HETATM   19  C12 UNK     1      19.374  -1.844  33.075  1.00  0.00     0.037 A 
HETATM   20  C11 UNK     1      19.639  -1.279  31.761  1.00  0.00    -0.001 A 
HETATM   21  C13 UNK     1      19.299   0.048  31.517  1.00  0.00     0.089 A 
HETATM   22  C15 UNK     1      20.221  -2.025  30.733  1.00  0.00     0.014 A 
HETATM   23  O1  UNK     1      18.710   0.833  32.527  1.00  0.00    -0.274 OA
HETATM   24  C17 UNK     1      19.527   0.648  30.281  1.00  0.00     0.038 A 
HETATM   25  C14 UNK     1      18.444   0.321  33.794  1.00  0.00     0.304 A 
HETATM   26  O3  UNK     1      17.931   1.012  34.668  1.00  0.00    -0.259 OA
HETATM   27  C20 UNK     1      20.109  -0.103  29.262  1.00  0.00     0.003 A 
HETATM   28  C19 UNK     1      20.456  -1.437  29.487  1.00  0.00     0.001 A 
ENDBRANCH   3  18
TORSDOF 4
ENDMDL
MODEL 6
REMARK VINA RESULT:      -9.1      9.633     14.279
REMARK  4 active torsions:
REMARK  status: ('A' for Active; 'I' for Inactive)
REMARK    1  A    between atoms: C1_7  and  N1_4 
REMARK       I    between atoms: C9_15  and  N1_4 
REMARK    2  A    between atoms: C6_12  and  N2_5 
REMARK    3  A    between atoms: C1_7  and  C2_8 
REMARK    4  A    between atoms: C10_16  and  C9_15 
ROOT
HETATM    1  O2  UNK     1      16.378   7.030  35.212  1.00  0.00    -0.267 OA
HETATM    2  N1  UNK     1      17.822   7.962  33.638  1.00  0.00    -0.348 N 
HETATM    3  C9  UNK     1      16.646   7.875  34.361  1.00  0.00     0.258 C 
HETATM    4  H2  UNK     1      17.958   8.742  33.001  1.00  0.00     0.163 HD
ENDROOT
BRANCH   2   5
HETATM    5  C1  UNK     1      18.919   7.034  33.802  1.00  0.00     0.114 C 
HETATM    6  C3  UNK     1      20.248   7.785  33.709  1.00  0.00     0.037 C 
BRANCH   5   7
HETATM    7  C2  UNK     1      18.842   5.902  32.797  1.00  0.00    -0.036 A 
HETATM    8  C4  UNK     1      19.377   6.084  31.535  1.00  0.00     0.011 A 
HETATM    9  C7  UNK     1      19.306   5.042  30.611  1.00  0.00     0.030 A 
HETATM   10  C6  UNK     1      18.701   3.836  30.963  1.00  0.00     0.039 A 
HETATM   11  C8  UNK     1      18.167   3.672  32.242  1.00  0.00     0.030 A 
HETATM   12  C5  UNK     1      18.238   4.714  33.166  1.00  0.00     0.011 A 
BRANCH  10  13
HETATM   13  N2  UNK     1      18.631   2.803  30.047  1.00  0.00    -0.315 N 
HETATM   14  C16 UNK     1      19.141   1.539  30.197  1.00  0.00     0.117 A 
HETATM   15  C21 UNK     1      18.824   0.883  29.031  1.00  0.00     0.135 A 
HETATM   16  N3  UNK     1      18.137   1.703  28.173  1.00  0.00    -0.254 NA
HETATM   17  C18 UNK     1      18.036   2.848  28.811  1.00  0.00     0.214 A 
ENDBRANCH  10  13
ENDBRANCH   5   7
ENDBRANCH   2   5
BRANCH   3  18
HETATM   18  C10 UNK     1      15.686   8.931  34.018  1.00  0.00     0.108 A 
HETATM   19  C12 UNK     1      15.131   9.582  35.048  1.00  0.00     0.037 A 
HETATM   20  C11 UNK     1      14.166  10.644  34.808  1.00  0.00    -0.001 A 
HETATM   21  C13 UNK     1      13.834  10.969  33.497  1.00  0.00     0.089 A 
HETATM   22  C15 UNK     1      13.562  11.350  35.852  1.00  0.00     0.014 A 
HETATM   23  O1  UNK     1      14.422  10.280  32.418  1.00  0.00    -0.274 OA
HETATM   24  C17 UNK     1      12.918  11.975  33.200  1.00  0.00     0.038 A 
HETATM   25  C14 UNK     1      15.348   9.259  32.615  1.00  0.00     0.304 A 
HETATM   26  O3  UNK     1      15.854   8.665  31.670  1.00  0.00    -0.259 OA
HETATM   27  C20 UNK     1      12.320  12.675  34.247  1.00  0.00     0.003 A 
HETATM   28  C19 UNK     1      12.641  12.363  35.570  1.00  0.00     0.001 A 
ENDBRANCH   3  18
TORSDOF 4
ENDMDL
MODEL 7
REMARK VINA RESULT:      -8.9      7.332     10.244
REMARK  4 active torsions:
REMARK  status: ('A' for Active; 'I' for Inactive)
REMARK    1  A    between atoms: C1_7  and  N1_4 
REMARK       I    between atoms: C9_15  and  N1_4 
REMARK    2  A    between atoms: C6_12  and  N2_5 
REMARK    3  A    between atoms: C1_7  and  C2_8 
REMARK    4  A    between atoms: C10_16  and  C9_15 
ROOT
HETATM    1  O2  UNK     1      17.520   2.801  31.218  1.00  0.00    -0.267 OA
HETATM    2  N1  UNK     1      18.600   4.270  32.670  1.00  0.00    -0.348 N 
HETATM    3  C9  UNK     1      18.055   3.056  32.295  1.00  0.00     0.258 C 
HETATM    4  H2  UNK     1      19.073   4.348  33.567  1.00  0.00     0.163 HD
ENDROOT
BRANCH   2   5
HETATM    5  C1  UNK     1      18.607   5.431  31.809  1.00  0.00     0.114 C 
HETATM    6  C3  UNK     1      20.048   5.881  31.560  1.00  0.00     0.037 C 
BRANCH   5   7
HETATM    7  C2  UNK     1      17.760   6.550  32.380  1.00  0.00    -0.036 A 
HETATM    8  C4  UNK     1      16.383   6.416  32.388  1.00  0.00     0.011 A 
HETATM    9  C7  UNK     1      15.604   7.446  32.913  1.00  0.00     0.030 A 
HETATM   10  C6  UNK     1      16.213   8.594  33.421  1.00  0.00     0.039 A 
HETATM   11  C8  UNK     1      17.604   8.710  33.404  1.00  0.00     0.030 A 
HETATM   12  C5  UNK     1      18.383   7.680  32.879  1.00  0.00     0.011 A 
BRANCH  10  13
HETATM   13  N2  UNK     1      15.440   9.615  33.941  1.00  0.00    -0.315 N 
HETATM   14  C16 UNK     1      14.113   9.848  33.689  1.00  0.00     0.117 A 
HETATM   15  C21 UNK     1      13.797  10.965  34.426  1.00  0.00     0.135 A 
HETATM   16  N3  UNK     1      14.887  11.424  35.121  1.00  0.00    -0.254 NA
HETATM   17  C18 UNK     1      15.858  10.593  34.810  1.00  0.00     0.214 A 
ENDBRANCH  10  13
ENDBRANCH   5   7
ENDBRANCH   2   5
BRANCH   3  18
HETATM   18  C10 UNK     1      18.172   2.031  33.339  1.00  0.00     0.108 A 
HETATM   19  C12 UNK     1      17.790   2.394  34.570  1.00  0.00     0.037 A 
HETATM   20  C11 UNK     1      17.869   1.448  35.671  1.00  0.00    -0.001 A 
HETATM   21  C13 UNK     1      18.347   0.165  35.424  1.00  0.00     0.089 A 
HETATM   22  C15 UNK     1      17.481   1.783  36.971  1.00  0.00     0.014 A 
HETATM   23  O1  UNK     1      18.748  -0.211  34.127  1.00  0.00    -0.274 OA
HETATM   24  C17 UNK     1      18.449  -0.788  36.435  1.00  0.00     0.038 A 
HETATM   25  C14 UNK     1      18.683   0.672  33.053  1.00  0.00     0.304 A 
HETATM   26  O3  UNK     1      19.035   0.336  31.927  1.00  0.00    -0.259 OA
HETATM   27  C20 UNK     1      18.060  -0.445  37.728  1.00  0.00     0.003 A 
HETATM   28  C19 UNK     1      17.577   0.838  37.996  1.00  0.00     0.001 A 
ENDBRANCH   3  18
TORSDOF 4
ENDMDL
MODEL 8
REMARK VINA RESULT:      -8.8     27.334     29.316
REMARK  4 active torsions:
REMARK  status: ('A' for Active; 'I' for Inactive)
REMARK    1  A    between atoms: C1_7  and  N1_4 
REMARK       I    between atoms: C9_15  and  N1_4 
REMARK    2  A    between atoms: C6_12  and  N2_5 
REMARK    3  A    between atoms: C1_7  and  C2_8 
REMARK    4  A    between atoms: C10_16  and  C9_15 
ROOT
HETATM    1  O2  UNK     1       7.034   7.245   8.742  1.00  0.00    -0.267 OA
HETATM    2  N1  UNK     1       8.841   5.803   8.445  1.00  0.00    -0.348 N 
HETATM    3  C9  UNK     1       7.617   6.185   8.962  1.00  0.00     0.258 C 
HETATM    4  H2  UNK     1       9.199   4.874   8.648  1.00  0.00     0.163 HD
ENDROOT
BRANCH   2   5
HETATM    5  C1  UNK     1       9.613   6.636   7.550  1.00  0.00     0.114 C 
HETATM    6  C3  UNK     1       9.576   6.049   6.138  1.00  0.00     0.037 C 
BRANCH   5   7
HETATM    7  C2  UNK     1      11.033   6.816   8.047  1.00  0.00    -0.036 A 
HETATM    8  C4  UNK     1      11.973   5.841   7.766  1.00  0.00     0.011 A 
HETATM    9  C7  UNK     1      13.280   6.007   8.223  1.00  0.00     0.030 A 
HETATM   10  C6  UNK     1      13.626   7.143   8.955  1.00  0.00     0.039 A 
HETATM   11  C8  UNK     1      12.662   8.116   9.228  1.00  0.00     0.030 A 
HETATM   12  C5  UNK     1      11.356   7.950   8.770  1.00  0.00     0.011 A 
BRANCH  10  13
HETATM   13  N2  UNK     1      14.921   7.307   9.409  1.00  0.00    -0.315 N 
HETATM   14  C16 UNK     1      15.806   6.312   9.736  1.00  0.00     0.117 A 
HETATM   15  C21 UNK     1      16.950   6.965  10.130  1.00  0.00     0.135 A 
HETATM   16  N3  UNK     1      16.795   8.326  10.056  1.00  0.00    -0.254 NA
HETATM   17  C18 UNK     1      15.567   8.500   9.619  1.00  0.00     0.214 A 
ENDBRANCH  10  13
ENDBRANCH   5   7
ENDBRANCH   2   5
BRANCH   3  18
HETATM   18  C10 UNK     1       7.028   5.170   9.843  1.00  0.00     0.108 A 
HETATM   19  C12 UNK     1       6.721   5.569  11.083  1.00  0.00     0.037 A 
HETATM   20  C11 UNK     1       6.134   4.634  12.030  1.00  0.00    -0.001 A 
HETATM   21  C13 UNK     1       5.898   3.324  11.625  1.00  0.00     0.089 A 
HETATM   22  C15 UNK     1       5.797   5.007  13.334  1.00  0.00     0.014 A 
HETATM   23  O1  UNK     1       6.223   2.910  10.318  1.00  0.00    -0.274 OA
HETATM   24  C17 UNK     1       5.339   2.379  12.483  1.00  0.00     0.038 A 
HETATM   25  C14 UNK     1       6.786   3.782   9.390  1.00  0.00     0.304 A 
HETATM   26  O3  UNK     1       7.067   3.412   8.255  1.00  0.00    -0.259 OA
HETATM   27  C20 UNK     1       5.006   2.760  13.781  1.00  0.00     0.003 A 
HETATM   28  C19 UNK     1       5.235   4.071  14.206  1.00  0.00     0.001 A 
ENDBRANCH   3  18
TORSDOF 4
ENDMDL
MODEL 9
REMARK VINA RESULT:      -8.4     28.489     31.316
REMARK  4 active torsions:
REMARK  status: ('A' for Active; 'I' for Inactive)
REMARK    1  A    between atoms: C1_7  and  N1_4 
REMARK       I    between atoms: C9_15  and  N1_4 
REMARK    2  A    between atoms: C6_12  and  N2_5 
REMARK    3  A    between atoms: C1_7  and  C2_8 
REMARK    4  A    between atoms: C10_16  and  C9_15 
ROOT
HETATM    1  O2  UNK     1      15.343   6.613   9.126  1.00  0.00    -0.267 OA
HETATM    2  N1  UNK     1      14.943   8.909   9.159  1.00  0.00    -0.348 N 
HETATM    3  C9  UNK     1      14.585   7.578   9.045  1.00  0.00     0.258 C 
HETATM    4  H2  UNK     1      14.219   9.622   9.136  1.00  0.00     0.163 HD
ENDROOT
BRANCH   2   5
HETATM    5  C1  UNK     1      16.301   9.343   9.398  1.00  0.00     0.114 C 
HETATM    6  C3  UNK     1      16.526   9.535  10.899  1.00  0.00     0.037 C 
BRANCH   5   7
HETATM    7  C2  UNK     1      16.627  10.599   8.615  1.00  0.00    -0.036 A 
HETATM    8  C4  UNK     1      15.617  11.246   7.928  1.00  0.00     0.011 A 
HETATM    9  C7  UNK     1      15.917  12.401   7.208  1.00  0.00     0.030 A 
HETATM   10  C6  UNK     1      17.223  12.891   7.186  1.00  0.00     0.039 A 
HETATM   11  C8  UNK     1      18.229  12.225   7.887  1.00  0.00     0.030 A 
HETATM   12  C5  UNK     1      17.928  11.069   8.607  1.00  0.00     0.011 A 
BRANCH  10  13
HETATM   13  N2  UNK     1      17.521  14.037   6.472  1.00  0.00    -0.315 N 
HETATM   14  C16 UNK     1      18.771  14.512   6.170  1.00  0.00     0.117 A 
HETATM   15  C21 UNK     1      18.555  15.666   5.456  1.00  0.00     0.135 A 
HETATM   16  N3  UNK     1      17.213  15.914   5.309  1.00  0.00    -0.254 NA
HETATM   17  C18 UNK     1      16.619  14.918   5.929  1.00  0.00     0.214 A 
ENDBRANCH  10  13
ENDBRANCH   5   7
ENDBRANCH   2   5
BRANCH   3  18
HETATM   18  C10 UNK     1      13.150   7.391   8.807  1.00  0.00     0.108 A 
HETATM   19  C12 UNK     1      12.804   6.952   7.590  1.00  0.00     0.037 A 
HETATM   20  C11 UNK     1      11.404   6.738   7.259  1.00  0.00    -0.001 A 
HETATM   21  C13 UNK     1      10.436   6.995   8.225  1.00  0.00     0.089 A 
HETATM   22  C15 UNK     1      10.997   6.281   6.003  1.00  0.00     0.014 A 
HETATM   23  O1  UNK     1      10.806   7.456   9.503  1.00  0.00    -0.274 OA
HETATM   24  C17 UNK     1       9.079   6.810   7.971  1.00  0.00     0.038 A 
HETATM   25  C14 UNK     1      12.138   7.671   9.850  1.00  0.00     0.304 A 
HETATM   26  O3  UNK     1      12.450   8.073  10.965  1.00  0.00    -0.259 OA
HETATM   27  C20 UNK     1       8.682   6.354   6.716  1.00  0.00     0.003 A 
HETATM   28  C19 UNK     1       9.639   6.090   5.733  1.00  0.00     0.001 A 
ENDBRANCH   3  18
TORSDOF 4
ENDMDL
MODEL 10
REMARK VINA RESULT:      -8.4      3.967      8.873
REMARK  4 active torsions:
REMARK  status: ('A' for Active; 'I' for Inactive)
REMARK    1  A    between atoms: C1_7  and  N1_4 
REMARK       I    between atoms: C9_15  and  N1_4 
REMARK    2  A    between atoms: C6_12  and  N2_5 
REMARK    3  A    between atoms: C1_7  and  C2_8 
REMARK    4  A    between atoms: C10_16  and  C9_15 
ROOT
HETATM    1  O2  UNK     1      20.153  -5.699  34.963  1.00  0.00    -0.267 OA
HETATM    2  N1  UNK     1      19.989  -5.492  37.279  1.00  0.00    -0.348 N 
HETATM    3  C9  UNK     1      19.971  -5.027  35.976  1.00  0.00     0.258 C 
HETATM    4  H2  UNK     1      19.763  -4.854  38.037  1.00  0.00     0.163 HD
ENDROOT
BRANCH   2   5
HETATM    5  C1  UNK     1      20.234  -6.875  37.619  1.00  0.00     0.114 C 
HETATM    6  C3  UNK     1      19.313  -7.296  38.765  1.00  0.00     0.037 C 
BRANCH   5   7
HETATM    7  C2  UNK     1      21.693  -7.114  37.953  1.00  0.00    -0.036 A 
HETATM    8  C4  UNK     1      22.343  -6.232  38.796  1.00  0.00     0.011 A 
HETATM    9  C7  UNK     1      23.686  -6.451  39.104  1.00  0.00     0.030 A 
HETATM   10  C6  UNK     1      24.356  -7.548  38.563  1.00  0.00     0.039 A 
HETATM   11  C8  UNK     1      23.681  -8.427  37.714  1.00  0.00     0.030 A 
HETATM   12  C5  UNK     1      22.339  -8.207  37.407  1.00  0.00     0.011 A 
BRANCH  10  13
HETATM   13  N2  UNK     1      25.687  -7.766  38.867  1.00  0.00    -0.315 N 
HETATM   14  C16 UNK     1      26.239  -8.929  39.340  1.00  0.00     0.117 A 
HETATM   15  C21 UNK     1      27.578  -8.656  39.490  1.00  0.00     0.135 A 
HETATM   16  N3  UNK     1      27.864  -7.364  39.125  1.00  0.00    -0.254 NA
HETATM   17  C18 UNK     1      26.709  -6.857  38.755  1.00  0.00     0.214 A 
ENDBRANCH  10  13
ENDBRANCH   5   7
ENDBRANCH   2   5
BRANCH   3  18
HETATM   18  C10 UNK     1      19.699  -3.588  35.887  1.00  0.00     0.108 A 
HETATM   19  C12 UNK     1      18.997  -3.055  36.895  1.00  0.00     0.037 A 
HETATM   20  C11 UNK     1      18.677  -1.636  36.895  1.00  0.00    -0.001 A 
HETATM   21  C13 UNK     1      19.111  -0.847  35.835  1.00  0.00     0.089 A 
HETATM   22  C15 UNK     1      17.948  -1.038  37.926  1.00  0.00     0.014 A 
HETATM   23  O1  UNK     1      19.849  -1.414  34.777  1.00  0.00    -0.274 OA
HETATM   24  C17 UNK     1      18.837   0.517  35.775  1.00  0.00     0.038 A 
HETATM   25  C14 UNK     1      20.171  -2.768  34.749  1.00  0.00     0.304 A 
HETATM   26  O3  UNK     1      20.813  -3.252  33.824  1.00  0.00    -0.259 OA
HETATM   27  C20 UNK     1      18.110   1.106  36.807  1.00  0.00     0.003 A 
HETATM   28  C19 UNK     1      17.665   0.330  37.881  1.00  0.00     0.001 A 
ENDBRANCH   3  18
TORSDOF 4
ENDMDL
