MODEL 1
REMARK VINA RESULT:      -8.4      0.000      0.000
REMARK  8 active torsions:
REMARK  status: ('A' for Active; 'I' for Inactive)
REMARK    1  A    between atoms: C11_20  and  O2_3 
REMARK    2  A    between atoms: C19_28  and  O2_3 
REMARK       I    between atoms: C4_13  and  N1_8 
REMARK    3  A    between atoms: C6_15  and  N1_8 
REMARK    4  A    between atoms: C7_16  and  N1_8 
REMARK       I    between atoms: C12_21  and  N2_9 
REMARK    5  A    between atoms: C5_14  and  N2_9 
REMARK    6  A    between atoms: C2_11  and  C4_13 
REMARK    7  A    between atoms: C11_20  and  C3_12 
REMARK    8  A    between atoms: C12_21  and  C13_22 
ROOT
HETATM    1  S1  UNK     1      19.008  -2.182  12.363  1.00  0.00    -0.065 SA
HETATM    2  C1  UNK     1      19.859  -4.596  12.592  1.00  0.00    -0.020 A 
HETATM    3  C2  UNK     1      19.310  -3.723  11.678  1.00  0.00     0.082 A 
HETATM    4  C3  UNK     1      20.034  -3.993  13.870  1.00  0.00     0.080 A 
HETATM    5  C5  UNK     1      19.613  -2.681  13.885  1.00  0.00     0.094 A 
HETATM    6  C8  UNK     1      20.224  -6.001  12.279  1.00  0.00     0.051 C 
ENDROOT
BRANCH   5   7
HETATM    7  N2  UNK     1      19.601  -1.727  14.907  1.00  0.00    -0.316 N 
HETATM    8  C12 UNK     1      18.666  -1.635  15.929  1.00  0.00     0.262 C 
HETATM    9  O5  UNK     1      17.687  -2.348  16.140  1.00  0.00    -0.267 OA
HETATM   10  H8  UNK     1      20.363  -1.054  14.877  1.00  0.00     0.169 HD
BRANCH   8  11
HETATM   11  C13 UNK     1      18.952  -0.514  16.832  1.00  0.00     0.108 A 
HETATM   12  C15 UNK     1      18.961  -0.796  18.140  1.00  0.00     0.037 A 
HETATM   13  C14 UNK     1      19.234   0.250  19.114  1.00  0.00    -0.001 A 
HETATM   14  C16 UNK     1      19.484   1.542  18.662  1.00  0.00     0.089 A 
HETATM   15  C18 UNK     1      19.253   0.001  20.489  1.00  0.00     0.014 A 
HETATM   16  O3  UNK     1      19.474   1.832  17.284  1.00  0.00    -0.274 OA
HETATM   17  C20 UNK     1      19.753   2.588  19.543  1.00  0.00     0.038 A 
HETATM   18  C17 UNK     1      19.216   0.853  16.329  1.00  0.00     0.304 A 
HETATM   19  O6  UNK     1      19.208   1.116  15.131  1.00  0.00    -0.259 OA
HETATM   20  C22 UNK     1      19.769   2.330  20.912  1.00  0.00     0.003 A 
HETATM   21  C21 UNK     1      19.521   1.040  21.384  1.00  0.00     0.001 A 
ENDBRANCH   8  11
ENDBRANCH   5   7
BRANCH   4  22
HETATM   22  C11 UNK     1      20.584  -4.643  15.034  1.00  0.00     0.296 C 
HETATM   23  O4  UNK     1      19.915  -5.322  15.827  1.00  0.00    -0.259 OA
BRANCH  22  24
HETATM   24  O2  UNK     1      21.938  -4.446  15.196  1.00  0.00    -0.318 OA
BRANCH  24  25
HETATM   25  C19 UNK     1      22.366  -3.911  16.454  1.00  0.00     0.174 C 
HETATM   26  C23 UNK     1      23.816  -3.486  16.341  1.00  0.00     0.034 C 
ENDBRANCH  24  25
ENDBRANCH  22  24
ENDBRANCH   4  22
BRANCH   3  27
HETATM   27  C4  UNK     1      18.981  -3.939  10.305  1.00  0.00     0.261 C 
HETATM   28  O1  UNK     1      17.806  -4.168   9.943  1.00  0.00    -0.267 OA
HETATM   29  N1  UNK     1      20.022  -3.891   9.335  1.00  0.00    -0.348 N 
BRANCH  29  30
HETATM   30  C6  UNK     1      21.419  -3.606   9.657  1.00  0.00     0.121 C 
HETATM   31  C9  UNK     1      21.771  -2.160   9.374  1.00  0.00     0.026 C 
ENDBRANCH  29  30
BRANCH  29  32
HETATM   32  C7  UNK     1      19.735  -4.106   7.923  1.00  0.00     0.121 C 
HETATM   33  C10 UNK     1      20.007  -5.538   7.513  1.00  0.00     0.026 C 
ENDBRANCH  29  32
ENDBRANCH   3  27
TORSDOF 8
ENDMDL
MODEL 2
REMARK VINA RESULT:      -8.0     18.025     21.083
REMARK  8 active torsions:
REMARK  status: ('A' for Active; 'I' for Inactive)
REMARK    1  A    between atoms: C11_20  and  O2_3 
REMARK    2  A    between atoms: C19_28  and  O2_3 
REMARK       I    between atoms: C4_13  and  N1_8 
REMARK    3  A    between atoms: C6_15  and  N1_8 
REMARK    4  A    between atoms: C7_16  and  N1_8 
REMARK       I    between atoms: C12_21  and  N2_9 
REMARK    5  A    between atoms: C5_14  and  N2_9 
REMARK    6  A    between atoms: C2_11  and  C4_13 
REMARK    7  A    between atoms: C11_20  and  C3_12 
REMARK    8  A    between atoms: C12_21  and  C13_22 
ROOT
HETATM    1  S1  UNK     1      18.287   2.539  35.230  1.00  0.00    -0.065 SA
HETATM    2  C1  UNK     1      18.527   1.149  33.083  1.00  0.00    -0.020 A 
HETATM    3  C2  UNK     1      18.551   1.035  34.456  1.00  0.00     0.082 A 
HETATM    4  C3  UNK     1      18.289   2.487  32.661  1.00  0.00     0.080 A 
HETATM    5  C5  UNK     1      18.140   3.347  33.727  1.00  0.00     0.094 A 
HETATM    6  C8  UNK     1      18.727   0.008  32.153  1.00  0.00     0.051 C 
ENDROOT
BRANCH   5   7
HETATM    7  N2  UNK     1      17.895   4.723  33.777  1.00  0.00    -0.316 N 
HETATM    8  C12 UNK     1      18.852   5.719  33.918  1.00  0.00     0.262 C 
HETATM    9  O5  UNK     1      20.071   5.603  34.026  1.00  0.00    -0.267 OA
HETATM   10  H8  UNK     1      16.917   4.990  33.694  1.00  0.00     0.169 HD
BRANCH   8  11
HETATM   11  C13 UNK     1      18.249   7.057  33.933  1.00  0.00     0.108 A 
HETATM   12  C15 UNK     1      16.912   7.103  33.989  1.00  0.00     0.037 A 
HETATM   13  C14 UNK     1      16.222   8.383  34.007  1.00  0.00    -0.001 A 
HETATM   14  C16 UNK     1      16.974   9.553  33.965  1.00  0.00     0.089 A 
HETATM   15  C18 UNK     1      14.829   8.478  34.064  1.00  0.00     0.014 A 
HETATM   16  O3  UNK     1      18.380   9.499  33.907  1.00  0.00    -0.274 OA
HETATM   17  C20 UNK     1      16.375  10.811  33.980  1.00  0.00     0.038 A 
HETATM   18  C17 UNK     1      19.068   8.289  33.888  1.00  0.00     0.304 A 
HETATM   19  O6  UNK     1      20.293   8.251  33.837  1.00  0.00    -0.259 OA
HETATM   20  C22 UNK     1      14.985  10.896  34.037  1.00  0.00     0.003 A 
HETATM   21  C21 UNK     1      14.214   9.733  34.080  1.00  0.00     0.001 A 
ENDBRANCH   8  11
ENDBRANCH   5   7
BRANCH   4  22
HETATM   22  C11 UNK     1      18.206   2.931  31.291  1.00  0.00     0.296 C 
HETATM   23  O4  UNK     1      17.288   2.620  30.519  1.00  0.00    -0.259 OA
BRANCH  22  24
HETATM   24  O2  UNK     1      19.249   3.744  30.903  1.00  0.00    -0.318 OA
BRANCH  24  25
HETATM   25  C19 UNK     1      18.905   4.957  30.224  1.00  0.00     0.174 C 
HETATM   26  C23 UNK     1      20.018   5.965  30.422  1.00  0.00     0.034 C 
ENDBRANCH  24  25
ENDBRANCH  22  24
ENDBRANCH   4  22
BRANCH   3  27
HETATM   27  C4  UNK     1      18.759  -0.124  35.264  1.00  0.00     0.261 C 
HETATM   28  O1  UNK     1      19.907  -0.489  35.600  1.00  0.00    -0.267 OA
HETATM   29  N1  UNK     1      17.626  -0.874  35.691  1.00  0.00    -0.348 N 
BRANCH  29  30
HETATM   30  C6  UNK     1      16.246  -0.514  35.372  1.00  0.00     0.121 C 
HETATM   31  C9  UNK     1      15.657   0.411  36.417  1.00  0.00     0.026 C 
ENDBRANCH  29  30
BRANCH  29  32
HETATM   32  C7  UNK     1      17.789  -2.064  36.516  1.00  0.00     0.121 C 
HETATM   33  C10 UNK     1      18.165  -1.707  37.938  1.00  0.00     0.026 C 
ENDBRANCH  29  32
ENDBRANCH   3  27
TORSDOF 8
ENDMDL
MODEL 3
REMARK VINA RESULT:      -8.0     16.133     20.850
REMARK  8 active torsions:
REMARK  status: ('A' for Active; 'I' for Inactive)
REMARK    1  A    between atoms: C11_20  and  O2_3 
REMARK    2  A    between atoms: C19_28  and  O2_3 
REMARK       I    between atoms: C4_13  and  N1_8 
REMARK    3  A    between atoms: C6_15  and  N1_8 
REMARK    4  A    between atoms: C7_16  and  N1_8 
REMARK       I    between atoms: C12_21  and  N2_9 
REMARK    5  A    between atoms: C5_14  and  N2_9 
REMARK    6  A    between atoms: C2_11  and  C4_13 
REMARK    7  A    between atoms: C11_20  and  C3_12 
REMARK    8  A    between atoms: C12_21  and  C13_22 
ROOT
HETATM    1  S1  UNK     1      18.140   2.710  35.076  1.00  0.00    -0.065 SA
HETATM    2  C1  UNK     1      18.564   1.317  32.960  1.00  0.00    -0.020 A 
HETATM    3  C2  UNK     1      18.492   1.209  34.331  1.00  0.00     0.082 A 
HETATM    4  C3  UNK     1      18.327   2.648  32.514  1.00  0.00     0.080 A 
HETATM    5  C5  UNK     1      18.083   3.509  33.562  1.00  0.00     0.094 A 
HETATM    6  C8  UNK     1      18.854   0.177  32.053  1.00  0.00     0.051 C 
ENDROOT
BRANCH   5   7
HETATM    7  N2  UNK     1      17.805   4.878  33.587  1.00  0.00    -0.316 N 
HETATM    8  C12 UNK     1      18.734   5.904  33.467  1.00  0.00     0.262 C 
HETATM    9  O5  UNK     1      19.951   5.823  33.321  1.00  0.00    -0.267 OA
HETATM   10  H8  UNK     1      16.822   5.117  33.699  1.00  0.00     0.169 HD
BRANCH   8  11
HETATM   11  C13 UNK     1      18.100   7.226  33.536  1.00  0.00     0.108 A 
HETATM   12  C15 UNK     1      18.898   8.248  33.868  1.00  0.00     0.037 A 
HETATM   13  C14 UNK     1      18.362   9.596  33.963  1.00  0.00    -0.001 A 
HETATM   14  C16 UNK     1      17.011   9.803  33.704  1.00  0.00     0.089 A 
HETATM   15  C18 UNK     1      19.158  10.692  34.306  1.00  0.00     0.014 A 
HETATM   16  O3  UNK     1      16.176   8.724  33.355  1.00  0.00    -0.274 OA
HETATM   17  C20 UNK     1      16.435  11.070  33.778  1.00  0.00     0.038 A 
HETATM   18  C17 UNK     1      16.660   7.423  33.257  1.00  0.00     0.304 A 
HETATM   19  O6  UNK     1      15.925   6.489  32.953  1.00  0.00    -0.259 OA
HETATM   20  C22 UNK     1      17.236  12.157  34.121  1.00  0.00     0.003 A 
HETATM   21  C21 UNK     1      18.595  11.969  34.383  1.00  0.00     0.001 A 
ENDBRANCH   8  11
ENDBRANCH   5   7
BRANCH   4  22
HETATM   22  C11 UNK     1      18.333   3.085  31.139  1.00  0.00     0.296 C 
HETATM   23  O4  UNK     1      18.969   4.067  30.729  1.00  0.00    -0.259 OA
BRANCH  22  24
HETATM   24  O2  UNK     1      17.560   2.308  30.304  1.00  0.00    -0.318 OA
BRANCH  24  25
HETATM   25  C19 UNK     1      17.915   2.303  28.916  1.00  0.00     0.174 C 
HETATM   26  C23 UNK     1      18.387   0.916  28.534  1.00  0.00     0.034 C 
ENDBRANCH  24  25
ENDBRANCH  22  24
ENDBRANCH   4  22
BRANCH   3  27
HETATM   27  C4  UNK     1      18.667   0.058  35.158  1.00  0.00     0.261 C 
HETATM   28  O1  UNK     1      19.795  -0.282  35.576  1.00  0.00    -0.267 OA
HETATM   29  N1  UNK     1      17.523  -0.714  35.510  1.00  0.00    -0.348 N 
BRANCH  29  30
HETATM   30  C6  UNK     1      16.161  -0.384  35.093  1.00  0.00     0.121 C 
HETATM   31  C9  UNK     1      15.430   0.406  36.158  1.00  0.00     0.026 C 
ENDBRANCH  29  30
BRANCH  29  32
HETATM   32  C7  UNK     1      17.651  -1.897  36.350  1.00  0.00     0.121 C 
HETATM   33  C10 UNK     1      17.927  -1.526  37.792  1.00  0.00     0.026 C 
ENDBRANCH  29  32
ENDBRANCH   3  27
TORSDOF 8
ENDMDL
MODEL 4
REMARK VINA RESULT:      -7.7     24.215     25.536
REMARK  8 active torsions:
REMARK  status: ('A' for Active; 'I' for Inactive)
REMARK    1  A    between atoms: C11_20  and  O2_3 
REMARK    2  A    between atoms: C19_28  and  O2_3 
REMARK       I    between atoms: C4_13  and  N1_8 
REMARK    3  A    between atoms: C6_15  and  N1_8 
REMARK    4  A    between atoms: C7_16  and  N1_8 
REMARK       I    between atoms: C12_21  and  N2_9 
REMARK    5  A    between atoms: C5_14  and  N2_9 
REMARK    6  A    between atoms: C2_11  and  C4_13 
REMARK    7  A    between atoms: C11_20  and  C3_12 
REMARK    8  A    between atoms: C12_21  and  C13_22 
ROOT
HETATM    1  S1  UNK     1      29.212  -6.919  38.400  1.00  0.00    -0.065 SA
HETATM    2  C1  UNK     1      30.008  -8.731  36.761  1.00  0.00    -0.020 A 
HETATM    3  C2  UNK     1      30.482  -7.761  37.618  1.00  0.00     0.082 A 
HETATM    4  C3  UNK     1      28.585  -8.784  36.746  1.00  0.00     0.080 A 
HETATM    5  C5  UNK     1      28.024  -7.852  37.593  1.00  0.00     0.094 A 
HETATM    6  C8  UNK     1      30.880  -9.617  35.949  1.00  0.00     0.051 C 
ENDROOT
BRANCH   5   7
HETATM    7  N2  UNK     1      26.690  -7.558  37.887  1.00  0.00    -0.316 N 
HETATM    8  C12 UNK     1      25.927  -8.138  38.892  1.00  0.00     0.262 C 
HETATM    9  O5  UNK     1      26.254  -9.002  39.702  1.00  0.00    -0.267 OA
HETATM   10  H8  UNK     1      26.266  -6.844  37.299  1.00  0.00     0.169 HD
BRANCH   8  11
HETATM   11  C13 UNK     1      24.563  -7.596  38.924  1.00  0.00     0.108 A 
HETATM   12  C15 UNK     1      23.575  -8.490  39.053  1.00  0.00     0.037 A 
HETATM   13  C14 UNK     1      22.189  -8.050  39.093  1.00  0.00    -0.001 A 
HETATM   14  C16 UNK     1      21.911  -6.690  38.995  1.00  0.00     0.089 A 
HETATM   15  C18 UNK     1      21.126  -8.947  39.228  1.00  0.00     0.014 A 
HETATM   16  O3  UNK     1      22.956  -5.754  38.860  1.00  0.00    -0.274 OA
HETATM   17  C20 UNK     1      20.606  -6.203  39.027  1.00  0.00     0.038 A 
HETATM   18  C17 UNK     1      24.291  -6.145  38.817  1.00  0.00     0.304 A 
HETATM   19  O6  UNK     1      25.194  -5.323  38.698  1.00  0.00    -0.259 OA
HETATM   20  C22 UNK     1      19.552  -7.105  39.161  1.00  0.00     0.003 A 
HETATM   21  C21 UNK     1      19.812  -8.473  39.262  1.00  0.00     0.001 A 
ENDBRANCH   8  11
ENDBRANCH   5   7
BRANCH   4  22
HETATM   22  C11 UNK     1      27.789  -9.689  35.955  1.00  0.00     0.296 C 
HETATM   23  O4  UNK     1      27.823  -9.738  34.717  1.00  0.00    -0.259 OA
BRANCH  22  24
HETATM   24  O2  UNK     1      26.972 -10.511  36.700  1.00  0.00    -0.318 OA
BRANCH  24  25
HETATM   25  C19 UNK     1      25.587 -10.548  36.336  1.00  0.00     0.174 C 
HETATM   26  C23 UNK     1      25.165 -11.990  36.149  1.00  0.00     0.034 C 
ENDBRANCH  24  25
ENDBRANCH  22  24
ENDBRANCH   4  22
BRANCH   3  27
HETATM   27  C4  UNK     1      31.831  -7.396  37.913  1.00  0.00     0.261 C 
HETATM   28  O1  UNK     1      32.537  -8.078  38.686  1.00  0.00    -0.267 OA
HETATM   29  N1  UNK     1      32.372  -6.227  37.306  1.00  0.00    -0.348 N 
BRANCH  29  30
HETATM   30  C6  UNK     1      31.634  -5.380  36.371  1.00  0.00     0.121 C 
HETATM   31  C9  UNK     1      31.327  -4.025  36.972  1.00  0.00     0.026 C 
ENDBRANCH  29  30
BRANCH  29  32
HETATM   32  C7  UNK     1      33.743  -5.814  37.578  1.00  0.00     0.121 C 
HETATM   33  C10 UNK     1      34.695  -6.314  36.512  1.00  0.00     0.026 C 
ENDBRANCH  29  32
ENDBRANCH   3  27
TORSDOF 8
ENDMDL
MODEL 5
REMARK VINA RESULT:      -7.6     23.832     25.255
REMARK  8 active torsions:
REMARK  status: ('A' for Active; 'I' for Inactive)
REMARK    1  A    between atoms: C11_20  and  O2_3 
REMARK    2  A    between atoms: C19_28  and  O2_3 
REMARK       I    between atoms: C4_13  and  N1_8 
REMARK    3  A    between atoms: C6_15  and  N1_8 
REMARK    4  A    between atoms: C7_16  and  N1_8 
REMARK       I    between atoms: C12_21  and  N2_9 
REMARK    5  A    between atoms: C5_14  and  N2_9 
REMARK    6  A    between atoms: C2_11  and  C4_13 
REMARK    7  A    between atoms: C11_20  and  C3_12 
REMARK    8  A    between atoms: C12_21  and  C13_22 
ROOT
HETATM    1  S1  UNK     1      28.512  -9.076  36.617  1.00  0.00    -0.065 SA
HETATM    2  C1  UNK     1      30.507  -7.770  37.573  1.00  0.00    -0.020 A 
HETATM    3  C2  UNK     1      30.201  -8.834  36.752  1.00  0.00     0.082 A 
HETATM    4  C3  UNK     1      29.339  -7.146  38.097  1.00  0.00     0.080 A 
HETATM    5  C5  UNK     1      28.185  -7.756  37.657  1.00  0.00     0.094 A 
HETATM    6  C8  UNK     1      31.892  -7.326  37.874  1.00  0.00     0.051 C 
ENDROOT
BRANCH   5   7
HETATM    7  N2  UNK     1      26.839  -7.479  37.915  1.00  0.00    -0.316 N 
HETATM    8  C12 UNK     1      26.043  -8.103  38.866  1.00  0.00     0.262 C 
HETATM    9  O5  UNK     1      26.346  -8.998  39.653  1.00  0.00    -0.267 OA
HETATM   10  H8  UNK     1      26.432  -6.745  37.340  1.00  0.00     0.169 HD
BRANCH   8  11
HETATM   11  C13 UNK     1      24.676  -7.569  38.870  1.00  0.00     0.108 A 
HETATM   12  C15 UNK     1      23.689  -8.470  38.951  1.00  0.00     0.037 A 
HETATM   13  C14 UNK     1      22.300  -8.038  38.960  1.00  0.00    -0.001 A 
HETATM   14  C16 UNK     1      22.018  -6.678  38.884  1.00  0.00     0.089 A 
HETATM   15  C18 UNK     1      21.239  -8.944  39.043  1.00  0.00     0.014 A 
HETATM   16  O3  UNK     1      23.060  -5.734  38.800  1.00  0.00    -0.274 OA
HETATM   17  C20 UNK     1      20.709  -6.199  38.888  1.00  0.00     0.038 A 
HETATM   18  C17 UNK     1      24.398  -6.118  38.788  1.00  0.00     0.304 A 
HETATM   19  O6  UNK     1      25.300  -5.289  38.713  1.00  0.00    -0.259 OA
HETATM   20  C22 UNK     1      19.658  -7.109  38.971  1.00  0.00     0.003 A 
HETATM   21  C21 UNK     1      19.922  -8.478  39.049  1.00  0.00     0.001 A 
ENDBRANCH   8  11
ENDBRANCH   5   7
BRANCH   4  22
HETATM   22  C11 UNK     1      29.325  -6.008  38.984  1.00  0.00     0.296 C 
HETATM   23  O4  UNK     1      28.489  -5.846  39.885  1.00  0.00    -0.259 OA
BRANCH  22  24
HETATM   24  O2  UNK     1      30.332  -5.100  38.744  1.00  0.00    -0.318 OA
BRANCH  24  25
HETATM   25  C19 UNK     1      30.044  -4.044  37.820  1.00  0.00     0.174 C 
HETATM   26  C23 UNK     1      31.263  -3.798  36.956  1.00  0.00     0.034 C 
ENDBRANCH  24  25
ENDBRANCH  22  24
ENDBRANCH   4  22
BRANCH   3  27
HETATM   27  C4  UNK     1      31.078  -9.709  36.042  1.00  0.00     0.261 C 
HETATM   28  O1  UNK     1      31.508 -10.763  36.558  1.00  0.00    -0.267 OA
HETATM   29  N1  UNK     1      31.464  -9.364  34.716  1.00  0.00    -0.348 N 
BRANCH  29  30
HETATM   30  C6  UNK     1      30.995  -8.168  34.018  1.00  0.00     0.121 C 
HETATM   31  C9  UNK     1      32.049  -7.081  34.008  1.00  0.00     0.026 C 
ENDBRANCH  29  30
BRANCH  29  32
HETATM   32  C7  UNK     1      32.358 -10.225  33.952  1.00  0.00     0.121 C 
HETATM   33  C10 UNK     1      31.655 -10.833  32.756  1.00  0.00     0.026 C 
ENDBRANCH  29  32
ENDBRANCH   3  27
TORSDOF 8
ENDMDL
MODEL 6
REMARK VINA RESULT:      -7.5     15.821     20.935
REMARK  8 active torsions:
REMARK  status: ('A' for Active; 'I' for Inactive)
REMARK    1  A    between atoms: C11_20  and  O2_3 
REMARK    2  A    between atoms: C19_28  and  O2_3 
REMARK       I    between atoms: C4_13  and  N1_8 
REMARK    3  A    between atoms: C6_15  and  N1_8 
REMARK    4  A    between atoms: C7_16  and  N1_8 
REMARK       I    between atoms: C12_21  and  N2_9 
REMARK    5  A    between atoms: C5_14  and  N2_9 
REMARK    6  A    between atoms: C2_11  and  C4_13 
REMARK    7  A    between atoms: C11_20  and  C3_12 
REMARK    8  A    between atoms: C12_21  and  C13_22 
ROOT
HETATM    1  S1  UNK     1      18.680  -0.533  32.767  1.00  0.00    -0.065 SA
HETATM    2  C1  UNK     1      18.362   1.751  33.899  1.00  0.00    -0.020 A 
HETATM    3  C2  UNK     1      18.398   1.152  32.658  1.00  0.00     0.082 A 
HETATM    4  C3  UNK     1      18.568   0.815  34.952  1.00  0.00     0.080 A 
HETATM    5  C5  UNK     1      18.754  -0.465  34.476  1.00  0.00     0.094 A 
HETATM    6  C8  UNK     1      18.135   3.203  34.112  1.00  0.00     0.051 C 
ENDROOT
BRANCH   5   7
HETATM    7  N2  UNK     1      18.985  -1.673  35.142  1.00  0.00    -0.316 N 
HETATM    8  C12 UNK     1      20.139  -2.440  35.068  1.00  0.00     0.262 C 
HETATM    9  O5  UNK     1      21.164  -2.225  34.424  1.00  0.00    -0.267 OA
HETATM   10  H8  UNK     1      18.220  -1.993  35.732  1.00  0.00     0.169 HD
BRANCH   8  11
HETATM   11  C13 UNK     1      20.045  -3.650  35.894  1.00  0.00     0.108 A 
HETATM   12  C15 UNK     1      20.039  -4.816  35.236  1.00  0.00     0.037 A 
HETATM   13  C14 UNK     1      19.947  -6.070  35.968  1.00  0.00    -0.001 A 
HETATM   14  C16 UNK     1      19.866  -6.035  37.356  1.00  0.00     0.089 A 
HETATM   15  C18 UNK     1      19.937  -7.309  35.323  1.00  0.00     0.014 A 
HETATM   16  O3  UNK     1      19.875  -4.805  38.043  1.00  0.00    -0.274 OA
HETATM   17  C20 UNK     1      19.777  -7.200  38.116  1.00  0.00     0.038 A 
HETATM   18  C17 UNK     1      19.961  -3.589  37.370  1.00  0.00     0.304 A 
HETATM   19  O6  UNK     1      19.966  -2.523  37.977  1.00  0.00    -0.259 OA
HETATM   20  C22 UNK     1      19.767  -8.431  37.464  1.00  0.00     0.003 A 
HETATM   21  C21 UNK     1      19.848  -8.486  36.071  1.00  0.00     0.001 A 
ENDBRANCH   8  11
ENDBRANCH   5   7
BRANCH   4  22
HETATM   22  C11 UNK     1      18.587   1.128  36.359  1.00  0.00     0.296 C 
HETATM   23  O4  UNK     1      19.313   1.996  36.864  1.00  0.00    -0.259 OA
BRANCH  22  24
HETATM   24  O2  UNK     1      17.716   0.370  37.112  1.00  0.00    -0.318 OA
BRANCH  24  25
HETATM   25  C19 UNK     1      16.438   0.950  37.400  1.00  0.00     0.174 C 
HETATM   26  C23 UNK     1      15.451   0.520  36.335  1.00  0.00     0.034 C 
ENDBRANCH  24  25
ENDBRANCH  22  24
ENDBRANCH   4  22
BRANCH   3  27
HETATM   27  C4  UNK     1      18.238   1.739  31.366  1.00  0.00     0.261 C 
HETATM   28  O1  UNK     1      17.338   2.575  31.136  1.00  0.00    -0.267 OA
HETATM   29  N1  UNK     1      19.130   1.355  30.324  1.00  0.00    -0.348 N 
BRANCH  29  30
HETATM   30  C6  UNK     1      20.227   0.406  30.502  1.00  0.00     0.121 C 
HETATM   31  C9  UNK     1      20.460  -0.414  29.250  1.00  0.00     0.026 C 
ENDBRANCH  29  30
BRANCH  29  32
HETATM   32  C7  UNK     1      19.005   1.926  28.989  1.00  0.00     0.121 C 
HETATM   33  C10 UNK     1      17.727   1.477  28.311  1.00  0.00     0.026 C 
ENDBRANCH  29  32
ENDBRANCH   3  27
TORSDOF 8
ENDMDL
MODEL 7
REMARK VINA RESULT:      -7.5     21.597     25.281
REMARK  8 active torsions:
REMARK  status: ('A' for Active; 'I' for Inactive)
REMARK    1  A    between atoms: C11_20  and  O2_3 
REMARK    2  A    between atoms: C19_28  and  O2_3 
REMARK       I    between atoms: C4_13  and  N1_8 
REMARK    3  A    between atoms: C6_15  and  N1_8 
REMARK    4  A    between atoms: C7_16  and  N1_8 
REMARK       I    between atoms: C12_21  and  N2_9 
REMARK    5  A    between atoms: C5_14  and  N2_9 
REMARK    6  A    between atoms: C2_11  and  C4_13 
REMARK    7  A    between atoms: C11_20  and  C3_12 
REMARK    8  A    between atoms: C12_21  and  C13_22 
ROOT
HETATM    1  S1  UNK     1      29.568  -6.842  38.366  1.00  0.00    -0.065 SA
HETATM    2  C1  UNK     1      30.341  -8.346  36.432  1.00  0.00    -0.020 A 
HETATM    3  C2  UNK     1      30.827  -7.556  37.451  1.00  0.00     0.082 A 
HETATM    4  C3  UNK     1      28.917  -8.365  36.401  1.00  0.00     0.080 A 
HETATM    5  C5  UNK     1      28.368  -7.589  37.399  1.00  0.00     0.094 A 
HETATM    6  C8  UNK     1      31.201  -9.090  35.477  1.00  0.00     0.051 C 
ENDROOT
BRANCH   5   7
HETATM    7  N2  UNK     1      27.038  -7.324  37.735  1.00  0.00    -0.316 N 
HETATM    8  C12 UNK     1      26.319  -7.920  38.763  1.00  0.00     0.262 C 
HETATM    9  O5  UNK     1      26.691  -8.777  39.563  1.00  0.00    -0.267 OA
HETATM   10  H8  UNK     1      26.579  -6.620  37.161  1.00  0.00     0.169 HD
BRANCH   8  11
HETATM   11  C13 UNK     1      24.946  -7.409  38.838  1.00  0.00     0.108 A 
HETATM   12  C15 UNK     1      23.980  -8.325  38.980  1.00  0.00     0.037 A 
HETATM   13  C14 UNK     1      22.587  -7.916  39.062  1.00  0.00    -0.001 A 
HETATM   14  C16 UNK     1      22.278  -6.561  38.992  1.00  0.00     0.089 A 
HETATM   15  C18 UNK     1      21.547  -8.838  39.210  1.00  0.00     0.014 A 
HETATM   16  O3  UNK     1      23.298  -5.601  38.844  1.00  0.00    -0.274 OA
HETATM   17  C20 UNK     1      20.964  -6.103  39.065  1.00  0.00     0.038 A 
HETATM   18  C17 UNK     1      24.640  -5.963  38.762  1.00  0.00     0.304 A 
HETATM   19  O6  UNK     1      25.522  -5.120  38.631  1.00  0.00    -0.259 OA
HETATM   20  C22 UNK     1      19.934  -7.030  39.212  1.00  0.00     0.003 A 
HETATM   21  C21 UNK     1      20.224  -8.394  39.285  1.00  0.00     0.001 A 
ENDBRANCH   8  11
ENDBRANCH   5   7
BRANCH   4  22
HETATM   22  C11 UNK     1      28.110  -9.096  35.456  1.00  0.00     0.296 C 
HETATM   23  O4  UNK     1      27.251  -9.929  35.781  1.00  0.00    -0.259 OA
BRANCH  22  24
HETATM   24  O2  UNK     1      28.374  -8.789  34.139  1.00  0.00    -0.318 OA
BRANCH  24  25
HETATM   25  C19 UNK     1      28.261  -7.412  33.762  1.00  0.00     0.174 C 
HETATM   26  C23 UNK     1      28.055  -7.327  32.265  1.00  0.00     0.034 C 
ENDBRANCH  24  25
ENDBRANCH  22  24
ENDBRANCH   4  22
BRANCH   3  27
HETATM   27  C4  UNK     1      32.180  -7.279  37.813  1.00  0.00     0.261 C 
HETATM   28  O1  UNK     1      32.790  -7.982  38.647  1.00  0.00    -0.267 OA
HETATM   29  N1  UNK     1      32.840  -6.174  37.204  1.00  0.00    -0.348 N 
BRANCH  29  30
HETATM   30  C6  UNK     1      32.220  -5.310  36.201  1.00  0.00     0.121 C 
HETATM   31  C9  UNK     1      31.777  -3.992  36.801  1.00  0.00     0.026 C 
ENDBRANCH  29  30
BRANCH  29  32
HETATM   32  C7  UNK     1      34.220  -5.852  37.542  1.00  0.00     0.121 C 
HETATM   33  C10 UNK     1      35.105  -5.842  36.314  1.00  0.00     0.026 C 
ENDBRANCH  29  32
ENDBRANCH   3  27
TORSDOF 8
ENDMDL
MODEL 8
REMARK VINA RESULT:      -7.5     17.524     22.525
REMARK  8 active torsions:
REMARK  status: ('A' for Active; 'I' for Inactive)
REMARK    1  A    between atoms: C11_20  and  O2_3 
REMARK    2  A    between atoms: C19_28  and  O2_3 
REMARK       I    between atoms: C4_13  and  N1_8 
REMARK    3  A    between atoms: C6_15  and  N1_8 
REMARK    4  A    between atoms: C7_16  and  N1_8 
REMARK       I    between atoms: C12_21  and  N2_9 
REMARK    5  A    between atoms: C5_14  and  N2_9 
REMARK    6  A    between atoms: C2_11  and  C4_13 
REMARK    7  A    between atoms: C11_20  and  C3_12 
REMARK    8  A    between atoms: C12_21  and  C13_22 
ROOT
HETATM    1  S1  UNK     1      16.484   6.552  33.321  1.00  0.00    -0.065 SA
HETATM    2  C1  UNK     1      19.005   7.046  33.303  1.00  0.00    -0.020 A 
HETATM    3  C2  UNK     1      18.097   6.038  33.065  1.00  0.00     0.082 A 
HETATM    4  C3  UNK     1      18.369   8.256  33.701  1.00  0.00     0.080 A 
HETATM    5  C5  UNK     1      16.998   8.127  33.752  1.00  0.00     0.094 A 
HETATM    6  C8  UNK     1      20.475   6.889  33.160  1.00  0.00     0.051 C 
ENDROOT
BRANCH   5   7
HETATM    7  N2  UNK     1      15.996   9.043  34.086  1.00  0.00    -0.316 N 
HETATM    8  C12 UNK     1      15.147   9.688  33.197  1.00  0.00     0.262 C 
HETATM    9  O5  UNK     1      15.102   9.592  31.972  1.00  0.00    -0.267 OA
HETATM   10  H8  UNK     1      15.899   9.232  35.081  1.00  0.00     0.169 HD
BRANCH   8  11
HETATM   11  C13 UNK     1      14.213  10.585  33.887  1.00  0.00     0.108 A 
HETATM   12  C15 UNK     1      13.248  11.127  33.133  1.00  0.00     0.037 A 
HETATM   13  C14 UNK     1      12.274  12.030  33.726  1.00  0.00    -0.001 A 
HETATM   14  C16 UNK     1      12.364  12.319  35.084  1.00  0.00     0.089 A 
HETATM   15  C18 UNK     1      11.250  12.618  32.978  1.00  0.00     0.014 A 
HETATM   16  O3  UNK     1      13.381  11.746  35.872  1.00  0.00    -0.274 OA
HETATM   17  C20 UNK     1      11.463  13.176  35.713  1.00  0.00     0.038 A 
HETATM   18  C17 UNK     1      14.327  10.879  35.333  1.00  0.00     0.304 A 
HETATM   19  O6  UNK     1      15.210  10.385  36.026  1.00  0.00    -0.259 OA
HETATM   20  C22 UNK     1      10.446  13.758  34.959  1.00  0.00     0.003 A 
HETATM   21  C21 UNK     1      10.339  13.479  33.595  1.00  0.00     0.001 A 
ENDBRANCH   8  11
ENDBRANCH   5   7
BRANCH   4  22
HETATM   22  C11 UNK     1      19.043   9.491  34.020  1.00  0.00     0.296 C 
HETATM   23  O4  UNK     1      20.079   9.557  34.698  1.00  0.00    -0.259 OA
BRANCH  22  24
HETATM   24  O2  UNK     1      18.431  10.611  33.502  1.00  0.00    -0.318 OA
BRANCH  24  25
HETATM   25  C19 UNK     1      18.541  11.819  34.266  1.00  0.00     0.174 C 
HETATM   26  C23 UNK     1      17.308  12.666  34.027  1.00  0.00     0.034 C 
ENDBRANCH  24  25
ENDBRANCH  22  24
ENDBRANCH   4  22
BRANCH   3  27
HETATM   27  C4  UNK     1      18.330   4.690  32.653  1.00  0.00     0.261 C 
HETATM   28  O1  UNK     1      18.301   3.743  33.468  1.00  0.00    -0.267 OA
HETATM   29  N1  UNK     1      18.599   4.431  31.278  1.00  0.00    -0.348 N 
BRANCH  29  30
HETATM   30  C6  UNK     1      18.629   5.466  30.247  1.00  0.00     0.121 C 
HETATM   31  C9  UNK     1      20.048   5.867  29.903  1.00  0.00     0.026 C 
ENDBRANCH  29  30
BRANCH  29  32
HETATM   32  C7  UNK     1      18.844   3.073  30.811  1.00  0.00     0.121 C 
HETATM   33  C10 UNK     1      18.094   2.783  29.528  1.00  0.00     0.026 C 
ENDBRANCH  29  32
ENDBRANCH   3  27
TORSDOF 8
ENDMDL
MODEL 9
REMARK VINA RESULT:      -7.3     12.622     14.498
REMARK  8 active torsions:
REMARK  status: ('A' for Active; 'I' for Inactive)
REMARK    1  A    between atoms: C11_20  and  O2_3 
REMARK    2  A    between atoms: C19_28  and  O2_3 
REMARK       I    between atoms: C4_13  and  N1_8 
REMARK    3  A    between atoms: C6_15  and  N1_8 
REMARK    4  A    between atoms: C7_16  and  N1_8 
REMARK       I    between atoms: C12_21  and  N2_9 
REMARK    5  A    between atoms: C5_14  and  N2_9 
REMARK    6  A    between atoms: C2_11  and  C4_13 
REMARK    7  A    between atoms: C11_20  and  C3_12 
REMARK    8  A    between atoms: C12_21  and  C13_22 
ROOT
HETATM    1  S1  UNK     1      12.325   8.917   8.597  1.00  0.00    -0.065 SA
HETATM    2  C1  UNK     1      12.538   6.491   9.414  1.00  0.00    -0.020 A 
HETATM    3  C2  UNK     1      11.602   7.427   9.033  1.00  0.00     0.082 A 
HETATM    4  C3  UNK     1      13.865   7.002   9.347  1.00  0.00     0.080 A 
HETATM    5  C5  UNK     1      13.894   8.311   8.917  1.00  0.00     0.094 A 
HETATM    6  C8  UNK     1      12.201   5.110   9.844  1.00  0.00     0.051 C 
ENDROOT
BRANCH   5   7
HETATM    7  N2  UNK     1      14.960   9.190   8.708  1.00  0.00    -0.316 N 
HETATM    8  C12 UNK     1      15.305  10.265   9.517  1.00  0.00     0.262 C 
HETATM    9  O5  UNK     1      14.763  10.653  10.549  1.00  0.00    -0.267 OA
HETATM   10  H8  UNK     1      15.521   8.998   7.881  1.00  0.00     0.169 HD
BRANCH   8  11
HETATM   11  C13 UNK     1      16.479  10.980   9.004  1.00  0.00     0.108 A 
HETATM   12  C15 UNK     1      17.571  10.957   9.778  1.00  0.00     0.037 A 
HETATM   13  C14 UNK     1      18.784  11.638   9.356  1.00  0.00    -0.001 A 
HETATM   14  C16 UNK     1      18.789  12.311   8.138  1.00  0.00     0.089 A 
HETATM   15  C18 UNK     1      19.947  11.640  10.132  1.00  0.00     0.014 A 
HETATM   16  O3  UNK     1      17.638  12.332   7.327  1.00  0.00    -0.274 OA
HETATM   17  C20 UNK     1      19.919  12.983   7.675  1.00  0.00     0.038 A 
HETATM   18  C17 UNK     1      16.462  11.690   7.705  1.00  0.00     0.304 A 
HETATM   19  O6  UNK     1      15.464  11.714   6.993  1.00  0.00    -0.259 OA
HETATM   20  C22 UNK     1      21.073  12.980   8.456  1.00  0.00     0.003 A 
HETATM   21  C21 UNK     1      21.087  12.309   9.681  1.00  0.00     0.001 A 
ENDBRANCH   8  11
ENDBRANCH   5   7
BRANCH   4  22
HETATM   22  C11 UNK     1      15.062   6.270   9.680  1.00  0.00     0.296 C 
HETATM   23  O4  UNK     1      15.718   5.610   8.861  1.00  0.00    -0.259 OA
BRANCH  22  24
HETATM   24  O2  UNK     1      15.424   6.365  11.006  1.00  0.00    -0.318 OA
BRANCH  24  25
HETATM   25  C19 UNK     1      16.245   7.480  11.374  1.00  0.00     0.174 C 
HETATM   26  C23 UNK     1      17.544   7.410  10.598  1.00  0.00     0.034 C 
ENDBRANCH  24  25
ENDBRANCH  22  24
ENDBRANCH   4  22
BRANCH   3  27
HETATM   27  C4  UNK     1      10.180   7.309   8.963  1.00  0.00     0.261 C 
HETATM   28  O1  UNK     1       9.441   7.782   9.853  1.00  0.00    -0.267 OA
HETATM   29  N1  UNK     1       9.603   6.634   7.850  1.00  0.00    -0.348 N 
BRANCH  29  30
HETATM   30  C6  UNK     1      10.381   6.070   6.749  1.00  0.00     0.121 C 
HETATM   31  C9  UNK     1       9.735   6.354   5.409  1.00  0.00     0.026 C 
ENDBRANCH  29  30
BRANCH  29  32
HETATM   32  C7  UNK     1       8.158   6.487   7.736  1.00  0.00     0.121 C 
HETATM   33  C10 UNK     1       7.666   5.254   8.464  1.00  0.00     0.026 C 
ENDBRANCH  29  32
ENDBRANCH   3  27
TORSDOF 8
ENDMDL
MODEL 10
REMARK VINA RESULT:      -7.3     13.184     15.323
REMARK  8 active torsions:
REMARK  status: ('A' for Active; 'I' for Inactive)
REMARK    1  A    between atoms: C11_20  and  O2_3 
REMARK    2  A    between atoms: C19_28  and  O2_3 
REMARK       I    between atoms: C4_13  and  N1_8 
REMARK    3  A    between atoms: C6_15  and  N1_8 
REMARK    4  A    between atoms: C7_16  and  N1_8 
REMARK       I    between atoms: C12_21  and  N2_9 
REMARK    5  A    between atoms: C5_14  and  N2_9 
REMARK    6  A    between atoms: C2_11  and  C4_13 
REMARK    7  A    between atoms: C11_20  and  C3_12 
REMARK    8  A    between atoms: C12_21  and  C13_22 
ROOT
HETATM    1  S1  UNK     1       9.732   8.404   9.845  1.00  0.00    -0.065 SA
HETATM    2  C1  UNK     1       9.102   6.617   8.110  1.00  0.00    -0.020 A 
HETATM    3  C2  UNK     1       8.567   7.369   9.133  1.00  0.00     0.082 A 
HETATM    4  C3  UNK     1      10.484   6.893   7.908  1.00  0.00     0.080 A 
HETATM    5  C5  UNK     1      10.955   7.846   8.784  1.00  0.00     0.094 A 
HETATM    6  C8  UNK     1       8.326   5.634   7.312  1.00  0.00     0.051 C 
ENDROOT
BRANCH   5   7
HETATM    7  N2  UNK     1      12.224   8.411   8.940  1.00  0.00    -0.316 N 
HETATM    8  C12 UNK     1      13.073   8.228  10.023  1.00  0.00     0.262 C 
HETATM    9  O5  UNK     1      12.892   7.555  11.035  1.00  0.00    -0.267 OA
HETATM   10  H8  UNK     1      12.530   9.002   8.170  1.00  0.00     0.169 HD
BRANCH   8  11
HETATM   11  C13 UNK     1      14.331   8.968   9.862  1.00  0.00     0.108 A 
HETATM   12  C15 UNK     1      14.400   9.793   8.810  1.00  0.00     0.037 A 
HETATM   13  C14 UNK     1      15.606  10.569   8.565  1.00  0.00    -0.001 A 
HETATM   14  C16 UNK     1      16.680  10.438   9.441  1.00  0.00     0.089 A 
HETATM   15  C18 UNK     1      15.723  11.442   7.481  1.00  0.00     0.014 A 
HETATM   16  O3  UNK     1      16.600   9.569  10.546  1.00  0.00    -0.274 OA
HETATM   17  C20 UNK     1      17.863  11.154   9.263  1.00  0.00     0.038 A 
HETATM   18  C17 UNK     1      15.460   8.814  10.805  1.00  0.00     0.304 A 
HETATM   19  O6  UNK     1      15.400   8.058  11.770  1.00  0.00    -0.259 OA
HETATM   20  C22 UNK     1      17.971  12.021   8.178  1.00  0.00     0.003 A 
HETATM   21  C21 UNK     1      16.903  12.166   7.290  1.00  0.00     0.001 A 
ENDBRANCH   8  11
ENDBRANCH   5   7
BRANCH   4  22
HETATM   22  C11 UNK     1      11.325   6.271   6.915  1.00  0.00     0.296 C 
HETATM   23  O4  UNK     1      11.705   6.836   5.879  1.00  0.00    -0.259 OA
BRANCH  22  24
HETATM   24  O2  UNK     1      11.680   4.974   7.217  1.00  0.00    -0.318 OA
BRANCH  24  25
HETATM   25  C19 UNK     1      12.430   4.772   8.420  1.00  0.00     0.174 C 
HETATM   26  C23 UNK     1      13.838   5.291   8.214  1.00  0.00     0.034 C 
ENDBRANCH  24  25
ENDBRANCH  22  24
ENDBRANCH   4  22
BRANCH   3  27
HETATM   27  C4  UNK     1       7.233   7.387   9.641  1.00  0.00     0.261 C 
HETATM   28  O1  UNK     1       6.439   8.311   9.361  1.00  0.00    -0.267 OA
HETATM   29  N1  UNK     1       6.806   6.321  10.484  1.00  0.00    -0.348 N 
BRANCH  29  30
HETATM   30  C6  UNK     1       7.651   5.184  10.847  1.00  0.00     0.121 C 
HETATM   31  C9  UNK     1       7.110   3.888  10.282  1.00  0.00     0.026 C 
ENDBRANCH  29  30
BRANCH  29  32
HETATM   32  C7  UNK     1       5.455   6.296  11.027  1.00  0.00     0.121 C 
HETATM   33  C10 UNK     1       5.459   6.431  12.535  1.00  0.00     0.026 C 
ENDBRANCH  29  32
ENDBRANCH   3  27
TORSDOF 8
ENDMDL
