MODEL 1
REMARK VINA RESULT:      -8.6      0.000      0.000
REMARK  3 active torsions:
REMARK  status: ('A' for Active; 'I' for Inactive)
REMARK    1  A    between atoms: C3_9  and  N1_6 
REMARK    2  A    between atoms: C1_7  and  C3_9 
REMARK    3  A    between atoms: C10_16  and  C2_8 
ROOT
HETATM    1  O2  UNK     1      29.895  -5.673  37.987  1.00  0.00    -0.303 OA
HETATM    2  O3  UNK     1      31.578  -3.455  37.057  1.00  0.00    -0.265 OA
HETATM    3  O4  UNK     1      30.565  -8.970  35.628  1.00  0.00    -0.287 OA
HETATM    4  N1  UNK     1      32.300  -4.977  35.395  1.00  0.00    -0.331 N 
HETATM    5  C2  UNK     1      32.008  -6.363  35.032  1.00  0.00     0.161 A 
HETATM    6  C5  UNK     1      31.016  -6.700  36.095  1.00  0.00     0.060 A 
HETATM    7  C7  UNK     1      31.568  -4.540  36.501  1.00  0.00     0.279 A 
HETATM    8  C9  UNK     1      30.746  -5.687  36.921  1.00  0.00     0.156 A 
HETATM    9  C11 UNK     1      30.351  -7.988  36.324  1.00  0.00     0.196 A 
HETATM   10  C12 UNK     1      29.405  -8.009  37.464  1.00  0.00     0.049 A 
HETATM   11  C13 UNK     1      29.225  -6.852  38.237  1.00  0.00     0.090 A 
HETATM   12  C16 UNK     1      28.697  -9.173  37.769  1.00  0.00     0.025 A 
HETATM   13  C17 UNK     1      28.338  -6.861  39.314  1.00  0.00     0.039 A 
HETATM   14  C20 UNK     1      27.810  -9.177  38.848  1.00  0.00    -0.061 A 
HETATM   15  C21 UNK     1      27.631  -8.025  39.617  1.00  0.00     0.009 A 
HETATM   16  C23 UNK     1      27.050 -10.416  39.181  1.00  0.00     0.048 C 
ENDROOT
BRANCH   5  17
HETATM   17  C10 UNK     1      31.442  -6.479  33.659  1.00  0.00    -0.030 A 
HETATM   18  C14 UNK     1      32.120  -7.213  32.684  1.00  0.00     0.012 A 
HETATM   19  C18 UNK     1      31.592  -7.320  31.398  1.00  0.00     0.043 A 
HETATM   20  C22 UNK     1      30.384  -6.695  31.085  1.00  0.00     0.116 A 
HETATM   21  C19 UNK     1      29.706  -5.962  32.060  1.00  0.00     0.043 A 
HETATM   22  F1  UNK     1      29.876  -6.800  29.850  1.00  0.00    -0.206 F 
HETATM   23  C15 UNK     1      30.235  -5.854  33.346  1.00  0.00     0.012 A 
ENDBRANCH   5  17
BRANCH   4  24
HETATM   24  C3  UNK     1      33.248  -4.145  34.681  1.00  0.00     0.159 C 
BRANCH  24  25
HETATM   25  C1  UNK     1      34.662  -4.680  34.808  1.00  0.00     0.139 C 
HETATM   26  O1  UNK     1      34.962  -5.535  33.692  1.00  0.00    -0.384 OA
HETATM   27  C8  UNK     1      35.682  -6.678  34.178  1.00  0.00     0.168 C 
HETATM   28  C6  UNK     1      36.027  -6.399  35.625  1.00  0.00     0.029 C 
HETATM   29  C4  UNK     1      34.882  -5.518  36.055  1.00  0.00     0.035 C 
ENDBRANCH  24  25
ENDBRANCH   4  24
TORSDOF 3
ENDMDL
MODEL 2
REMARK VINA RESULT:      -8.5      3.321      5.796
REMARK  3 active torsions:
REMARK  status: ('A' for Active; 'I' for Inactive)
REMARK    1  A    between atoms: C3_9  and  N1_6 
REMARK    2  A    between atoms: C1_7  and  C3_9 
REMARK    3  A    between atoms: C10_16  and  C2_8 
ROOT
HETATM    1  O2  UNK     1      30.085  -8.853  32.284  1.00  0.00    -0.303 OA
HETATM    2  O3  UNK     1      32.409  -9.799  33.807  1.00  0.00    -0.265 OA
HETATM    3  O4  UNK     1      29.915  -4.752  32.473  1.00  0.00    -0.287 OA
HETATM    4  N1  UNK     1      32.763  -7.510  34.285  1.00  0.00    -0.331 N 
HETATM    5  C2  UNK     1      32.101  -6.247  33.960  1.00  0.00     0.161 A 
HETATM    6  C5  UNK     1      30.982  -6.757  33.116  1.00  0.00     0.060 A 
HETATM    7  C7  UNK     1      32.118  -8.618  33.734  1.00  0.00     0.279 A 
HETATM    8  C9  UNK     1      30.966  -8.085  32.988  1.00  0.00     0.156 A 
HETATM    9  C11 UNK     1      29.952  -5.972  32.425  1.00  0.00     0.196 A 
HETATM   10  C12 UNK     1      28.964  -6.772  31.663  1.00  0.00     0.049 A 
HETATM   11  C13 UNK     1      29.081  -8.170  31.631  1.00  0.00     0.090 A 
HETATM   12  C16 UNK     1      27.924  -6.139  30.979  1.00  0.00     0.025 A 
HETATM   13  C17 UNK     1      28.157  -8.932  30.915  1.00  0.00     0.039 A 
HETATM   14  C20 UNK     1      27.003  -6.907  30.264  1.00  0.00    -0.061 A 
HETATM   15  C21 UNK     1      27.119  -8.298  30.233  1.00  0.00     0.009 A 
HETATM   16  C23 UNK     1      25.889  -6.239  29.531  1.00  0.00     0.048 C 
ENDROOT
BRANCH   5  17
HETATM   17  C10 UNK     1      31.624  -5.532  35.177  1.00  0.00    -0.030 A 
HETATM   18  C14 UNK     1      30.556  -6.044  35.915  1.00  0.00     0.012 A 
HETATM   19  C18 UNK     1      30.108  -5.375  37.053  1.00  0.00     0.043 A 
HETATM   20  C22 UNK     1      30.728  -4.191  37.456  1.00  0.00     0.116 A 
HETATM   21  C19 UNK     1      31.796  -3.679  36.719  1.00  0.00     0.043 A 
HETATM   22  F1  UNK     1      30.299  -3.550  38.550  1.00  0.00    -0.206 F 
HETATM   23  C15 UNK     1      32.244  -4.348  35.580  1.00  0.00     0.012 A 
ENDBRANCH   5  17
BRANCH   4  24
HETATM   24  C3  UNK     1      33.963  -7.601  35.094  1.00  0.00     0.159 C 
BRANCH  24  25
HETATM   25  C1  UNK     1      35.209  -7.338  34.270  1.00  0.00     0.139 C 
HETATM   26  O1  UNK     1      35.628  -8.550  33.619  1.00  0.00    -0.384 OA
HETATM   27  C8  UNK     1      37.059  -8.638  33.703  1.00  0.00     0.168 C 
HETATM   28  C6  UNK     1      37.552  -7.311  34.238  1.00  0.00     0.029 C 
HETATM   29  C4  UNK     1      36.394  -6.871  35.098  1.00  0.00     0.035 C 
ENDBRANCH  24  25
ENDBRANCH   4  24
TORSDOF 3
ENDMDL
MODEL 3
REMARK VINA RESULT:      -8.4      3.028      5.310
REMARK  3 active torsions:
REMARK  status: ('A' for Active; 'I' for Inactive)
REMARK    1  A    between atoms: C3_9  and  N1_6 
REMARK    2  A    between atoms: C1_7  and  C3_9 
REMARK    3  A    between atoms: C10_16  and  C2_8 
ROOT
HETATM    1  O2  UNK     1      32.423  -6.948  35.266  1.00  0.00    -0.303 OA
HETATM    2  O3  UNK     1      33.495  -8.545  33.048  1.00  0.00    -0.265 OA
HETATM    3  O4  UNK     1      28.318  -7.047  35.151  1.00  0.00    -0.287 OA
HETATM    4  N1  UNK     1      31.226  -8.897  32.482  1.00  0.00    -0.331 N 
HETATM    5  C2  UNK     1      29.927  -8.483  33.012  1.00  0.00     0.161 A 
HETATM    6  C5  UNK     1      30.377  -7.675  34.184  1.00  0.00     0.060 A 
HETATM    7  C7  UNK     1      32.299  -8.389  33.216  1.00  0.00     0.279 A 
HETATM    8  C9  UNK     1      31.704  -7.600  34.308  1.00  0.00     0.156 A 
HETATM    9  C11 UNK     1      29.538  -7.002  35.182  1.00  0.00     0.196 A 
HETATM   10  C12 UNK     1      30.284  -6.267  36.231  1.00  0.00     0.049 A 
HETATM   11  C13 UNK     1      31.687  -6.278  36.219  1.00  0.00     0.090 A 
HETATM   12  C16 UNK     1      29.596  -5.570  37.226  1.00  0.00     0.025 A 
HETATM   13  C17 UNK     1      32.400  -5.591  37.203  1.00  0.00     0.039 A 
HETATM   14  C20 UNK     1      30.314  -4.885  38.208  1.00  0.00    -0.061 A 
HETATM   15  C21 UNK     1      31.710  -4.895  38.196  1.00  0.00     0.009 A 
HETATM   16  C23 UNK     1      29.587  -4.137  39.275  1.00  0.00     0.048 C 
ENDROOT
BRANCH   5  17
HETATM   17  C10 UNK     1      29.145  -7.683  32.028  1.00  0.00    -0.030 A 
HETATM   18  C14 UNK     1      27.938  -8.175  31.531  1.00  0.00     0.012 A 
HETATM   19  C18 UNK     1      27.206  -7.428  30.608  1.00  0.00     0.043 A 
HETATM   20  C22 UNK     1      27.681  -6.187  30.181  1.00  0.00     0.116 A 
HETATM   21  C19 UNK     1      28.888  -5.695  30.679  1.00  0.00     0.043 A 
HETATM   22  F1  UNK     1      26.977  -5.469  29.297  1.00  0.00    -0.206 F 
HETATM   23  C15 UNK     1      29.620  -6.443  31.601  1.00  0.00     0.012 A 
ENDBRANCH   5  17
BRANCH   4  24
HETATM   24  C3  UNK     1      31.382  -9.745  31.316  1.00  0.00     0.159 C 
BRANCH  24  25
HETATM   25  C1  UNK     1      30.530 -10.995  31.421  1.00  0.00     0.139 C 
HETATM   26  O1  UNK     1      31.024 -11.835  32.479  1.00  0.00    -0.384 OA
HETATM   27  C8  UNK     1      30.986 -13.198  32.031  1.00  0.00     0.168 C 
HETATM   28  C6  UNK     1      30.229 -13.211  30.719  1.00  0.00     0.029 C 
HETATM   29  C4  UNK     1      30.546 -11.846  30.163  1.00  0.00     0.035 C 
ENDBRANCH  24  25
ENDBRANCH   4  24
TORSDOF 3
ENDMDL
MODEL 4
REMARK VINA RESULT:      -8.3      3.189      6.357
REMARK  3 active torsions:
REMARK  status: ('A' for Active; 'I' for Inactive)
REMARK    1  A    between atoms: C3_9  and  N1_6 
REMARK    2  A    between atoms: C1_7  and  C3_9 
REMARK    3  A    between atoms: C10_16  and  C2_8 
ROOT
HETATM    1  O2  UNK     1      30.238  -9.038  32.995  1.00  0.00    -0.303 OA
HETATM    2  O3  UNK     1      32.219 -10.063  34.903  1.00  0.00    -0.265 OA
HETATM    3  O4  UNK     1      27.790  -6.339  34.894  1.00  0.00    -0.287 OA
HETATM    4  N1  UNK     1      31.115  -8.677  36.471  1.00  0.00    -0.331 N 
HETATM    5  C2  UNK     1      29.974  -7.762  36.455  1.00  0.00     0.161 A 
HETATM    6  C5  UNK     1      29.581  -7.872  35.019  1.00  0.00     0.060 A 
HETATM    7  C7  UNK     1      31.355  -9.268  35.230  1.00  0.00     0.279 A 
HETATM    8  C9  UNK     1      30.335  -8.721  34.318  1.00  0.00     0.156 A 
HETATM    9  C11 UNK     1      28.506  -7.152  34.328  1.00  0.00     0.196 A 
HETATM   10  C12 UNK     1      28.357  -7.482  32.891  1.00  0.00     0.049 A 
HETATM   11  C13 UNK     1      29.229  -8.408  32.298  1.00  0.00     0.090 A 
HETATM   12  C16 UNK     1      27.355  -6.876  32.130  1.00  0.00     0.025 A 
HETATM   13  C17 UNK     1      29.099  -8.725  30.946  1.00  0.00     0.039 A 
HETATM   14  C20 UNK     1      27.229  -7.197  30.777  1.00  0.00    -0.061 A 
HETATM   15  C21 UNK     1      28.097  -8.118  30.188  1.00  0.00     0.009 A 
HETATM   16  C23 UNK     1      26.162  -6.554  29.957  1.00  0.00     0.048 C 
ENDROOT
BRANCH   5  17
HETATM   17  C10 UNK     1      28.892  -8.195  37.382  1.00  0.00    -0.030 A 
HETATM   18  C14 UNK     1      28.126  -9.323  37.084  1.00  0.00     0.012 A 
HETATM   19  C18 UNK     1      27.112  -9.728  37.951  1.00  0.00     0.043 A 
HETATM   20  C22 UNK     1      26.861  -9.005  39.118  1.00  0.00     0.116 A 
HETATM   21  C19 UNK     1      27.627  -7.877  39.416  1.00  0.00     0.043 A 
HETATM   22  F1  UNK     1      25.888  -9.395  39.951  1.00  0.00    -0.206 F 
HETATM   23  C15 UNK     1      28.641  -7.472  38.550  1.00  0.00     0.012 A 
ENDBRANCH   5  17
BRANCH   4  24
HETATM   24  C3  UNK     1      31.913  -8.943  37.653  1.00  0.00     0.159 C 
BRANCH  24  25
HETATM   25  C1  UNK     1      32.826  -7.777  37.979  1.00  0.00     0.139 C 
HETATM   26  O1  UNK     1      32.063  -6.704  38.555  1.00  0.00    -0.384 OA
HETATM   27  C8  UNK     1      32.531  -5.465  38.001  1.00  0.00     0.168 C 
HETATM   28  C6  UNK     1      33.785  -5.781  37.214  1.00  0.00     0.029 C 
HETATM   29  C4  UNK     1      33.523  -7.195  36.761  1.00  0.00     0.035 C 
ENDBRANCH  24  25
ENDBRANCH   4  24
TORSDOF 3
ENDMDL
MODEL 5
REMARK VINA RESULT:      -8.3      3.226      4.708
REMARK  3 active torsions:
REMARK  status: ('A' for Active; 'I' for Inactive)
REMARK    1  A    between atoms: C3_9  and  N1_6 
REMARK    2  A    between atoms: C1_7  and  C3_9 
REMARK    3  A    between atoms: C10_16  and  C2_8 
ROOT
HETATM    1  O2  UNK     1      25.642  -5.455  38.980  1.00  0.00    -0.303 OA
HETATM    2  O3  UNK     1      28.234  -4.082  38.862  1.00  0.00    -0.265 OA
HETATM    3  O4  UNK     1      26.200  -9.472  38.325  1.00  0.00    -0.287 OA
HETATM    4  N1  UNK     1      29.111  -6.227  38.386  1.00  0.00    -0.331 N 
HETATM    5  C2  UNK     1      28.573  -7.578  38.226  1.00  0.00     0.161 A 
HETATM    6  C5  UNK     1      27.127  -7.307  38.476  1.00  0.00     0.060 A 
HETATM    7  C7  UNK     1      28.125  -5.280  38.668  1.00  0.00     0.279 A 
HETATM    8  C9  UNK     1      26.854  -6.022  38.713  1.00  0.00     0.156 A 
HETATM    9  C11 UNK     1      26.026  -8.276  38.506  1.00  0.00     0.196 A 
HETATM   10  C12 UNK     1      24.690  -7.696  38.776  1.00  0.00     0.049 A 
HETATM   11  C13 UNK     1      24.566  -6.316  38.999  1.00  0.00     0.090 A 
HETATM   12  C16 UNK     1      23.561  -8.516  38.810  1.00  0.00     0.025 A 
HETATM   13  C17 UNK     1      23.313  -5.759  39.257  1.00  0.00     0.039 A 
HETATM   14  C20 UNK     1      22.309  -7.953  39.069  1.00  0.00    -0.061 A 
HETATM   15  C21 UNK     1      22.186  -6.580  39.290  1.00  0.00     0.009 A 
HETATM   16  C23 UNK     1      21.097  -8.823  39.107  1.00  0.00     0.048 C 
ENDROOT
BRANCH   5  17
HETATM   17  C10 UNK     1      28.828  -8.127  36.864  1.00  0.00    -0.030 A 
HETATM   18  C14 UNK     1      28.206  -7.557  35.753  1.00  0.00     0.012 A 
HETATM   19  C18 UNK     1      28.443  -8.071  34.479  1.00  0.00     0.043 A 
HETATM   20  C22 UNK     1      29.303  -9.158  34.314  1.00  0.00     0.116 A 
HETATM   21  C19 UNK     1      29.925  -9.729  35.425  1.00  0.00     0.043 A 
HETATM   22  F1  UNK     1      29.532  -9.651  33.090  1.00  0.00    -0.206 F 
HETATM   23  C15 UNK     1      29.688  -9.214  36.699  1.00  0.00     0.012 A 
ENDBRANCH   5  17
BRANCH   4  24
HETATM   24  C3  UNK     1      30.520  -5.906  38.265  1.00  0.00     0.159 C 
BRANCH  24  25
HETATM   25  C1  UNK     1      30.833  -5.279  36.921  1.00  0.00     0.139 C 
HETATM   26  O1  UNK     1      31.580  -6.203  36.112  1.00  0.00    -0.384 OA
HETATM   27  C8  UNK     1      32.617  -5.478  35.435  1.00  0.00     0.168 C 
HETATM   28  C6  UNK     1      32.353  -4.006  35.672  1.00  0.00     0.029 C 
HETATM   29  C4  UNK     1      31.682  -4.023  37.022  1.00  0.00     0.035 C 
ENDBRANCH  24  25
ENDBRANCH   4  24
TORSDOF 3
ENDMDL
MODEL 6
REMARK VINA RESULT:      -8.3      2.746      6.514
REMARK  3 active torsions:
REMARK  status: ('A' for Active; 'I' for Inactive)
REMARK    1  A    between atoms: C3_9  and  N1_6 
REMARK    2  A    between atoms: C1_7  and  C3_9 
REMARK    3  A    between atoms: C10_16  and  C2_8 
ROOT
HETATM    1  O2  UNK     1      27.942  -7.771  32.973  1.00  0.00    -0.303 OA
HETATM    2  O3  UNK     1      27.405  -6.754  35.674  1.00  0.00    -0.265 OA
HETATM    3  O4  UNK     1      31.877  -8.924  32.711  1.00  0.00    -0.287 OA
HETATM    4  N1  UNK     1      29.697  -7.192  36.066  1.00  0.00    -0.331 N 
HETATM    5  C2  UNK     1      30.821  -7.716  35.291  1.00  0.00     0.161 A 
HETATM    6  C5  UNK     1      30.133  -7.982  33.994  1.00  0.00     0.060 A 
HETATM    7  C7  UNK     1      28.512  -7.131  35.331  1.00  0.00     0.279 A 
HETATM    8  C9  UNK     1      28.841  -7.649  33.992  1.00  0.00     0.156 A 
HETATM    9  C11 UNK     1      30.709  -8.570  32.779  1.00  0.00     0.196 A 
HETATM   10  C12 UNK     1      29.767  -8.703  31.643  1.00  0.00     0.049 A 
HETATM   11  C13 UNK     1      28.433  -8.297  31.797  1.00  0.00     0.090 A 
HETATM   12  C16 UNK     1      30.204  -9.230  30.426  1.00  0.00     0.025 A 
HETATM   13  C17 UNK     1      27.537  -8.420  30.735  1.00  0.00     0.039 A 
HETATM   14  C20 UNK     1      29.303  -9.351  29.365  1.00  0.00    -0.061 A 
HETATM   15  C21 UNK     1      27.975  -8.947  29.519  1.00  0.00     0.009 A 
HETATM   16  C23 UNK     1      29.761  -9.913  28.062  1.00  0.00     0.048 C 
ENDROOT
BRANCH   5  17
HETATM   17  C10 UNK     1      31.927  -6.726  35.163  1.00  0.00    -0.030 A 
HETATM   18  C14 UNK     1      31.666  -5.448  34.665  1.00  0.00     0.012 A 
HETATM   19  C18 UNK     1      32.701  -4.521  34.543  1.00  0.00     0.043 A 
HETATM   20  C22 UNK     1      33.998  -4.870  34.920  1.00  0.00     0.116 A 
HETATM   21  C19 UNK     1      34.259  -6.147  35.418  1.00  0.00     0.043 A 
HETATM   22  F1  UNK     1      34.991  -3.979  34.805  1.00  0.00    -0.206 F 
HETATM   23  C15 UNK     1      33.225  -7.074  35.540  1.00  0.00     0.012 A 
ENDBRANCH   5  17
BRANCH   4  24
HETATM   24  C3  UNK     1      29.802  -6.780  37.452  1.00  0.00     0.159 C 
BRANCH  24  25
HETATM   25  C1  UNK     1      29.310  -7.863  38.393  1.00  0.00     0.139 C 
HETATM   26  O1  UNK     1      28.927  -9.026  37.640  1.00  0.00    -0.384 OA
HETATM   27  C8  UNK     1      27.713  -9.550  38.199  1.00  0.00     0.168 C 
HETATM   28  C6  UNK     1      27.462  -8.798  39.489  1.00  0.00     0.029 C 
HETATM   29  C4  UNK     1      28.086  -7.457  39.195  1.00  0.00     0.035 C 
ENDBRANCH  24  25
ENDBRANCH   4  24
TORSDOF 3
ENDMDL
MODEL 7
REMARK VINA RESULT:      -8.2      2.927      6.250
REMARK  3 active torsions:
REMARK  status: ('A' for Active; 'I' for Inactive)
REMARK    1  A    between atoms: C3_9  and  N1_6 
REMARK    2  A    between atoms: C1_7  and  C3_9 
REMARK    3  A    between atoms: C10_16  and  C2_8 
ROOT
HETATM    1  O2  UNK     1      27.989  -7.998  32.782  1.00  0.00    -0.303 OA
HETATM    2  O3  UNK     1      27.450  -7.059  35.511  1.00  0.00    -0.265 OA
HETATM    3  O4  UNK     1      31.817  -9.475  32.583  1.00  0.00    -0.287 OA
HETATM    4  N1  UNK     1      29.682  -7.712  35.949  1.00  0.00    -0.331 N 
HETATM    5  C2  UNK     1      30.782  -8.296  35.185  1.00  0.00     0.161 A 
HETATM    6  C5  UNK     1      30.118  -8.444  33.856  1.00  0.00     0.060 A 
HETATM    7  C7  UNK     1      28.532  -7.515  35.183  1.00  0.00     0.279 A 
HETATM    8  C9  UNK     1      28.860  -7.999  33.831  1.00  0.00     0.156 A 
HETATM    9  C11 UNK     1      30.683  -9.024  32.632  1.00  0.00     0.196 A 
HETATM   10  C12 UNK     1      29.772  -9.024  31.463  1.00  0.00     0.049 A 
HETATM   11  C13 UNK     1      28.472  -8.511  31.598  1.00  0.00     0.090 A 
HETATM   12  C16 UNK     1      30.202  -9.532  30.236  1.00  0.00     0.025 A 
HETATM   13  C17 UNK     1      27.606  -8.508  30.504  1.00  0.00     0.039 A 
HETATM   14  C20 UNK     1      29.330  -9.527  29.145  1.00  0.00    -0.061 A 
HETATM   15  C21 UNK     1      28.038  -9.016  29.279  1.00  0.00     0.009 A 
HETATM   16  C23 UNK     1      29.782 -10.068  27.830  1.00  0.00     0.048 C 
ENDROOT
BRANCH   5  17
HETATM   17  C10 UNK     1      31.973  -7.401  35.136  1.00  0.00    -0.030 A 
HETATM   18  C14 UNK     1      33.163  -7.789  35.754  1.00  0.00     0.012 A 
HETATM   19  C18 UNK     1      34.277  -6.951  35.710  1.00  0.00     0.043 A 
HETATM   20  C22 UNK     1      34.202  -5.724  35.050  1.00  0.00     0.116 A 
HETATM   21  C19 UNK     1      33.012  -5.337  34.432  1.00  0.00     0.043 A 
HETATM   22  F1  UNK     1      35.273  -4.921  35.006  1.00  0.00    -0.206 F 
HETATM   23  C15 UNK     1      31.898  -6.175  34.476  1.00  0.00     0.012 A 
ENDBRANCH   5  17
BRANCH   4  24
HETATM   24  C3  UNK     1      29.775  -7.372  37.356  1.00  0.00     0.159 C 
BRANCH  24  25
HETATM   25  C1  UNK     1      29.282  -5.963  37.621  1.00  0.00     0.139 C 
HETATM   26  O1  UNK     1      30.158  -5.013  36.990  1.00  0.00    -0.384 OA
HETATM   27  C8  UNK     1      30.358  -3.913  37.890  1.00  0.00     0.168 C 
HETATM   28  C6  UNK     1      29.384  -4.097  39.035  1.00  0.00     0.029 C 
HETATM   29  C4  UNK     1      29.254  -5.598  39.095  1.00  0.00     0.035 C 
ENDBRANCH  24  25
ENDBRANCH   4  24
TORSDOF 3
ENDMDL
MODEL 8
REMARK VINA RESULT:      -8.1      3.067      6.048
REMARK  3 active torsions:
REMARK  status: ('A' for Active; 'I' for Inactive)
REMARK    1  A    between atoms: C3_9  and  N1_6 
REMARK    2  A    between atoms: C1_7  and  C3_9 
REMARK    3  A    between atoms: C10_16  and  C2_8 
ROOT
HETATM    1  O2  UNK     1      30.274  -9.060  32.355  1.00  0.00    -0.303 OA
HETATM    2  O3  UNK     1      32.559 -10.030  33.922  1.00  0.00    -0.265 OA
HETATM    3  O4  UNK     1      28.454  -5.978  34.373  1.00  0.00    -0.287 OA
HETATM    4  N1  UNK     1      31.901  -8.396  35.501  1.00  0.00    -0.331 N 
HETATM    5  C2  UNK     1      30.838  -7.397  35.609  1.00  0.00     0.161 A 
HETATM    6  C5  UNK     1      30.139  -7.630  34.311  1.00  0.00     0.060 A 
HETATM    7  C7  UNK     1      31.832  -9.136  34.320  1.00  0.00     0.279 A 
HETATM    8  C9  UNK     1      30.673  -8.610  33.580  1.00  0.00     0.156 A 
HETATM    9  C11 UNK     1      28.982  -6.903  33.775  1.00  0.00     0.196 A 
HETATM   10  C12 UNK     1      28.507  -7.375  32.453  1.00  0.00     0.049 A 
HETATM   11  C13 UNK     1      29.176  -8.429  31.811  1.00  0.00     0.090 A 
HETATM   12  C16 UNK     1      27.401  -6.775  31.848  1.00  0.00     0.025 A 
HETATM   13  C17 UNK     1      28.739  -8.879  30.565  1.00  0.00     0.039 A 
HETATM   14  C20 UNK     1      26.967  -7.230  30.601  1.00  0.00    -0.061 A 
HETATM   15  C21 UNK     1      27.633  -8.278  29.963  1.00  0.00     0.009 A 
HETATM   16  C23 UNK     1      25.786  -6.595  29.947  1.00  0.00     0.048 C 
ENDROOT
BRANCH   5  17
HETATM   17  C10 UNK     1      29.959  -7.636  36.788  1.00  0.00    -0.030 A 
HETATM   18  C14 UNK     1      29.277  -8.847  36.917  1.00  0.00     0.012 A 
HETATM   19  C18 UNK     1      28.453  -9.070  38.019  1.00  0.00     0.043 A 
HETATM   20  C22 UNK     1      28.309  -8.083  38.994  1.00  0.00     0.116 A 
HETATM   21  C19 UNK     1      28.990  -6.872  38.865  1.00  0.00     0.043 A 
HETATM   22  F1  UNK     1      27.518  -8.299  40.053  1.00  0.00    -0.206 F 
HETATM   23  C15 UNK     1      29.814  -6.648  37.763  1.00  0.00     0.012 A 
ENDBRANCH   5  17
BRANCH   4  24
HETATM   24  C3  UNK     1      32.919  -8.596  36.514  1.00  0.00     0.159 C 
BRANCH  24  25
HETATM   25  C1  UNK     1      33.948  -7.482  36.494  1.00  0.00     0.139 C 
HETATM   26  O1  UNK     1      33.417  -6.314  37.142  1.00  0.00    -0.384 OA
HETATM   27  C8  UNK     1      33.796  -5.159  36.377  1.00  0.00     0.168 C 
HETATM   28  C6  UNK     1      34.789  -5.628  35.335  1.00  0.00     0.029 C 
HETATM   29  C4  UNK     1      34.342  -7.047  35.093  1.00  0.00     0.035 C 
ENDBRANCH  24  25
ENDBRANCH   4  24
TORSDOF 3
ENDMDL
MODEL 9
REMARK VINA RESULT:      -8.1      1.310      1.561
REMARK  3 active torsions:
REMARK  status: ('A' for Active; 'I' for Inactive)
REMARK    1  A    between atoms: C3_9  and  N1_6 
REMARK    2  A    between atoms: C1_7  and  C3_9 
REMARK    3  A    between atoms: C10_16  and  C2_8 
ROOT
HETATM    1  O2  UNK     1      30.250  -5.156  37.381  1.00  0.00    -0.303 OA
HETATM    2  O3  UNK     1      32.760  -3.927  36.483  1.00  0.00    -0.265 OA
HETATM    3  O4  UNK     1      29.547  -8.564  35.198  1.00  0.00    -0.287 OA
HETATM    4  N1  UNK     1      32.833  -5.712  34.932  1.00  0.00    -0.331 N 
HETATM    5  C2  UNK     1      31.992  -6.862  34.603  1.00  0.00     0.161 A 
HETATM    6  C5  UNK     1      30.905  -6.678  35.608  1.00  0.00     0.060 A 
HETATM    7  C7  UNK     1      32.311  -4.937  35.968  1.00  0.00     0.279 A 
HETATM    8  C9  UNK     1      31.059  -5.596  36.375  1.00  0.00     0.156 A 
HETATM    9  C11 UNK     1      29.743  -7.544  35.841  1.00  0.00     0.196 A 
HETATM   10  C12 UNK     1      28.830  -7.089  36.915  1.00  0.00     0.049 A 
HETATM   11  C13 UNK     1      29.129  -5.919  37.630  1.00  0.00     0.090 A 
HETATM   12  C16 UNK     1      27.678  -7.819  37.216  1.00  0.00     0.025 A 
HETATM   13  C17 UNK     1      28.277  -5.482  38.645  1.00  0.00     0.039 A 
HETATM   14  C20 UNK     1      26.829  -7.378  38.233  1.00  0.00    -0.061 A 
HETATM   15  C21 UNK     1      27.127  -6.213  38.943  1.00  0.00     0.009 A 
HETATM   16  C23 UNK     1      25.597  -8.152  38.560  1.00  0.00     0.048 C 
ENDROOT
BRANCH   5  17
HETATM   17  C10 UNK     1      31.492  -6.812  33.200  1.00  0.00    -0.030 A 
HETATM   18  C14 UNK     1      31.853  -7.811  32.294  1.00  0.00     0.012 A 
HETATM   19  C18 UNK     1      31.387  -7.764  30.980  1.00  0.00     0.043 A 
HETATM   20  C22 UNK     1      30.559  -6.718  30.570  1.00  0.00     0.116 A 
HETATM   21  C19 UNK     1      30.198  -5.720  31.476  1.00  0.00     0.043 A 
HETATM   22  F1  UNK     1      30.111  -6.674  29.310  1.00  0.00    -0.206 F 
HETATM   23  C15 UNK     1      30.664  -5.767  32.790  1.00  0.00     0.012 A 
ENDBRANCH   5  17
BRANCH   4  24
HETATM   24  C3  UNK     1      34.077  -5.409  34.252  1.00  0.00     0.159 C 
BRANCH  24  25
HETATM   25  C1  UNK     1      34.912  -6.657  34.038  1.00  0.00     0.139 C 
HETATM   26  O1  UNK     1      35.842  -6.814  35.123  1.00  0.00    -0.384 OA
HETATM   27  C8  UNK     1      37.104  -7.232  34.582  1.00  0.00     0.168 C 
HETATM   28  C6  UNK     1      36.871  -7.557  33.121  1.00  0.00     0.029 C 
HETATM   29  C4  UNK     1      35.744  -6.619  32.769  1.00  0.00     0.035 C 
ENDBRANCH  24  25
ENDBRANCH   4  24
TORSDOF 3
ENDMDL
MODEL 10
REMARK VINA RESULT:      -8.0      3.346      5.887
REMARK  3 active torsions:
REMARK  status: ('A' for Active; 'I' for Inactive)
REMARK    1  A    between atoms: C3_9  and  N1_6 
REMARK    2  A    between atoms: C1_7  and  C3_9 
REMARK    3  A    between atoms: C10_16  and  C2_8 
ROOT
HETATM    1  O2  UNK     1      30.476  -8.614  31.907  1.00  0.00    -0.303 OA
HETATM    2  O3  UNK     1      33.058  -9.287  33.133  1.00  0.00    -0.265 OA
HETATM    3  O4  UNK     1      29.736  -4.604  32.411  1.00  0.00    -0.287 OA
HETATM    4  N1  UNK     1      33.125  -7.002  33.742  1.00  0.00    -0.331 N 
HETATM    5  C2  UNK     1      32.257  -5.837  33.575  1.00  0.00     0.161 A 
HETATM    6  C5  UNK     1      31.142  -6.459  32.803  1.00  0.00     0.060 A 
HETATM    7  C7  UNK     1      32.593  -8.161  33.174  1.00  0.00     0.279 A 
HETATM    8  C9  UNK     1      31.306  -7.765  32.580  1.00  0.00     0.156 A 
HETATM    9  C11 UNK     1      29.944  -5.800  32.271  1.00  0.00     0.196 A 
HETATM   10  C12 UNK     1      29.009  -6.694  31.548  1.00  0.00     0.049 A 
HETATM   11  C13 UNK     1      29.322  -8.054  31.403  1.00  0.00     0.090 A 
HETATM   12  C16 UNK     1      27.823  -6.186  31.012  1.00  0.00     0.025 A 
HETATM   13  C17 UNK     1      28.450  -8.904  30.722  1.00  0.00     0.039 A 
HETATM   14  C20 UNK     1      26.954  -7.041  30.332  1.00  0.00    -0.061 A 
HETATM   15  C21 UNK     1      27.266  -8.395  30.188  1.00  0.00     0.009 A 
HETATM   16  C23 UNK     1      25.685  -6.507  29.757  1.00  0.00     0.048 C 
ENDROOT
BRANCH   5  17
HETATM   17  C10 UNK     1      31.810  -5.274  34.880  1.00  0.00    -0.030 A 
HETATM   18  C14 UNK     1      30.759  -5.874  35.575  1.00  0.00     0.012 A 
HETATM   19  C18 UNK     1      30.339  -5.348  36.796  1.00  0.00     0.043 A 
HETATM   20  C22 UNK     1      30.970  -4.221  37.325  1.00  0.00     0.116 A 
HETATM   21  C19 UNK     1      32.021  -3.621  36.630  1.00  0.00     0.043 A 
HETATM   22  F1  UNK     1      30.567  -3.717  38.498  1.00  0.00    -0.206 F 
HETATM   23  C15 UNK     1      32.441  -4.147  35.408  1.00  0.00     0.012 A 
ENDBRANCH   5  17
BRANCH   4  24
HETATM   24  C3  UNK     1      34.402  -6.958  34.427  1.00  0.00     0.159 C 
BRANCH  24  25
HETATM   25  C1  UNK     1      34.325  -7.622  35.789  1.00  0.00     0.139 C 
HETATM   26  O1  UNK     1      33.109  -8.381  35.894  1.00  0.00    -0.384 OA
HETATM   27  C8  UNK     1      32.559  -8.177  37.204  1.00  0.00     0.168 C 
HETATM   28  C6  UNK     1      33.603  -7.433  38.010  1.00  0.00     0.029 C 
HETATM   29  C4  UNK     1      34.310  -6.635  36.943  1.00  0.00     0.035 C 
ENDBRANCH  24  25
ENDBRANCH   4  24
TORSDOF 3
ENDMDL
