MODEL 1
REMARK VINA RESULT:      -9.4      0.000      0.000
REMARK  4 active torsions:
REMARK  status: ('A' for Active; 'I' for Inactive)
REMARK    1  A    between atoms: C12_19  and  O2_3 
REMARK    2  A    between atoms: C3_10  and  N1_7 
REMARK       I    between atoms: C9_16  and  N1_7 
REMARK    3  A    between atoms: C12_19  and  C2_9 
REMARK    4  A    between atoms: C6_13  and  C9_16 
ROOT
HETATM    1  O3  UNK     1      21.420  -4.308  36.920  1.00  0.00    -0.267 OA
HETATM    2  N1  UNK     1      19.175  -5.006  37.066  1.00  0.00    -0.316 N 
HETATM    3  C9  UNK     1      20.209  -4.108  36.836  1.00  0.00     0.262 C 
HETATM    4  H1  UNK     1      18.216  -4.685  36.971  1.00  0.00     0.169 HD
ENDROOT
BRANCH   2   5
HETATM    5  C3  UNK     1      19.281  -6.364  37.454  1.00  0.00     0.094 A 
HETATM    6  C2  UNK     1      18.912  -7.480  36.796  1.00  0.00     0.080 A 
HETATM    7  C1  UNK     1      19.212  -8.638  37.570  1.00  0.00    -0.030 A 
HETATM    8  C4  UNK     1      19.794  -8.317  38.777  1.00  0.00    -0.012 A 
HETATM    9  C5  UNK     1      18.931 -10.028  37.131  1.00  0.00     0.050 C 
HETATM   10  S1  UNK     1      19.977  -6.626  38.972  1.00  0.00    -0.076 SA
HETATM   11  C8  UNK     1      20.251  -9.220  39.857  1.00  0.00     0.057 C 
BRANCH   6  12
HETATM   12  C12 UNK     1      18.303  -7.481  35.489  1.00  0.00     0.296 C 
HETATM   13  O4  UNK     1      17.159  -7.878  35.223  1.00  0.00    -0.259 OA
BRANCH  12  14
HETATM   14  O2  UNK     1      19.152  -6.977  34.532  1.00  0.00    -0.322 OA
HETATM   15  C18 UNK     1      20.486  -7.498  34.512  1.00  0.00     0.213 C 
ENDBRANCH  12  14
ENDBRANCH   6  12
ENDBRANCH   2   5
BRANCH   3  16
HETATM   16  C6  UNK     1      19.715  -2.782  36.446  1.00  0.00     0.108 A 
HETATM   17  C10 UNK     1      19.014  -2.117  37.371  1.00  0.00     0.037 A 
HETATM   18  C7  UNK     1      18.482  -0.795  37.079  1.00  0.00    -0.001 A 
HETATM   19  C11 UNK     1      18.714  -0.238  35.825  1.00  0.00     0.089 A 
HETATM   20  C14 UNK     1      17.746  -0.064  38.014  1.00  0.00     0.014 A 
HETATM   21  O1  UNK     1      19.452  -0.944  34.855  1.00  0.00    -0.274 OA
HETATM   22  C15 UNK     1      18.232   1.022  35.481  1.00  0.00     0.038 A 
HETATM   23  C13 UNK     1      19.974  -2.210  35.105  1.00  0.00     0.304 A 
HETATM   24  O5  UNK     1      20.615  -2.817  34.255  1.00  0.00    -0.259 OA
HETATM   25  C17 UNK     1      17.498   1.744  36.419  1.00  0.00     0.003 A 
HETATM   26  C16 UNK     1      17.256   1.202  37.684  1.00  0.00     0.001 A 
ENDBRANCH   3  16
TORSDOF 4
ENDMDL
MODEL 2
REMARK VINA RESULT:      -9.4      1.852      7.328
REMARK  4 active torsions:
REMARK  status: ('A' for Active; 'I' for Inactive)
REMARK    1  A    between atoms: C12_19  and  O2_3 
REMARK    2  A    between atoms: C3_10  and  N1_7 
REMARK       I    between atoms: C9_16  and  N1_7 
REMARK    3  A    between atoms: C12_19  and  C2_9 
REMARK    4  A    between atoms: C6_13  and  C9_16 
ROOT
HETATM    1  O3  UNK     1      20.909  -3.217  37.678  1.00  0.00    -0.267 OA
HETATM    2  N1  UNK     1      18.951  -3.285  36.371  1.00  0.00    -0.316 N 
HETATM    3  C9  UNK     1      20.036  -3.818  37.055  1.00  0.00     0.262 C 
HETATM    4  H1  UNK     1      18.319  -3.915  35.885  1.00  0.00     0.169 HD
ENDROOT
BRANCH   2   5
HETATM    5  C3  UNK     1      18.603  -1.919  36.235  1.00  0.00     0.094 A 
HETATM    6  C2  UNK     1      18.679  -1.114  35.158  1.00  0.00     0.080 A 
HETATM    7  C1  UNK     1      18.216   0.195  35.480  1.00  0.00    -0.030 A 
HETATM    8  C4  UNK     1      17.816   0.294  36.794  1.00  0.00    -0.012 A 
HETATM    9  C5  UNK     1      18.169   1.322  34.514  1.00  0.00     0.050 C 
HETATM   10  S1  UNK     1      17.999  -1.186  37.634  1.00  0.00    -0.076 SA
HETATM   11  C8  UNK     1      17.278   1.468  37.516  1.00  0.00     0.057 C 
BRANCH   6  12
HETATM   12  C12 UNK     1      19.162  -1.537  33.867  1.00  0.00     0.296 C 
HETATM   13  O4  UNK     1      18.549  -1.437  32.794  1.00  0.00    -0.259 OA
BRANCH  12  14
HETATM   14  O2  UNK     1      20.423  -2.081  33.950  1.00  0.00    -0.322 OA
HETATM   15  C18 UNK     1      21.012  -2.532  32.725  1.00  0.00     0.213 C 
ENDBRANCH  12  14
ENDBRANCH   6  12
ENDBRANCH   2   5
BRANCH   3  16
HETATM   16  C6  UNK     1      20.072  -5.284  36.979  1.00  0.00     0.108 A 
HETATM   17  C10 UNK     1      19.997  -5.938  38.143  1.00  0.00     0.037 A 
HETATM   18  C7  UNK     1      20.025  -7.392  38.171  1.00  0.00    -0.001 A 
HETATM   19  C11 UNK     1      20.133  -8.086  36.970  1.00  0.00     0.089 A 
HETATM   20  C14 UNK     1      19.948  -8.117  39.363  1.00  0.00     0.014 A 
HETATM   21  O1  UNK     1      20.213  -7.392  35.747  1.00  0.00    -0.274 OA
HETATM   22  C15 UNK     1      20.166  -9.478  36.927  1.00  0.00     0.038 A 
HETATM   23  C13 UNK     1      20.187  -6.001  35.689  1.00  0.00     0.304 A 
HETATM   24  O5  UNK     1      20.257  -5.404  34.620  1.00  0.00    -0.259 OA
HETATM   25  C17 UNK     1      20.090 -10.193  38.120  1.00  0.00     0.003 A 
HETATM   26  C16 UNK     1      19.980  -9.514  39.335  1.00  0.00     0.001 A 
ENDBRANCH   3  16
TORSDOF 4
ENDMDL
MODEL 3
REMARK VINA RESULT:      -9.3      8.603     12.529
REMARK  4 active torsions:
REMARK  status: ('A' for Active; 'I' for Inactive)
REMARK    1  A    between atoms: C12_19  and  O2_3 
REMARK    2  A    between atoms: C3_10  and  N1_7 
REMARK       I    between atoms: C9_16  and  N1_7 
REMARK    3  A    between atoms: C12_19  and  C2_9 
REMARK    4  A    between atoms: C6_13  and  C9_16 
ROOT
HETATM    1  O3  UNK     1      17.564   3.804  32.906  1.00  0.00    -0.267 OA
HETATM    2  N1  UNK     1      19.032   5.189  31.692  1.00  0.00    -0.316 N 
HETATM    3  C9  UNK     1      18.354   4.013  31.987  1.00  0.00     0.262 C 
HETATM    4  H1  UNK     1      19.671   5.202  30.902  1.00  0.00     0.169 HD
ENDROOT
BRANCH   2   5
HETATM    5  C3  UNK     1      18.967   6.420  32.387  1.00  0.00     0.094 A 
HETATM    6  C2  UNK     1      18.019   7.377  32.360  1.00  0.00     0.080 A 
HETATM    7  C1  UNK     1      18.370   8.453  33.227  1.00  0.00    -0.030 A 
HETATM    8  C4  UNK     1      19.574   8.235  33.859  1.00  0.00    -0.012 A 
HETATM    9  C5  UNK     1      17.537   9.665  33.426  1.00  0.00     0.050 C 
HETATM   10  S1  UNK     1      20.277   6.741  33.409  1.00  0.00    -0.076 SA
HETATM   11  C8  UNK     1      20.284   9.100  34.828  1.00  0.00     0.057 C 
BRANCH   6  12
HETATM   12  C12 UNK     1      16.822   7.303  31.560  1.00  0.00     0.296 C 
HETATM   13  O4  UNK     1      16.626   7.900  30.491  1.00  0.00    -0.259 OA
BRANCH  12  14
HETATM   14  O2  UNK     1      15.885   6.470  32.123  1.00  0.00    -0.322 OA
HETATM   15  C18 UNK     1      14.552   6.982  32.240  1.00  0.00     0.213 C 
ENDBRANCH  12  14
ENDBRANCH   6  12
ENDBRANCH   2   5
BRANCH   3  16
HETATM   16  C6  UNK     1      18.672   2.938  31.040  1.00  0.00     0.108 A 
HETATM   17  C10 UNK     1      19.061   1.775  31.575  1.00  0.00     0.037 A 
HETATM   18  C7  UNK     1      19.397   0.649  30.717  1.00  0.00    -0.001 A 
HETATM   19  C11 UNK     1      19.308   0.804  29.337  1.00  0.00     0.089 A 
HETATM   20  C14 UNK     1      19.806  -0.584  31.231  1.00  0.00     0.014 A 
HETATM   21  O1  UNK     1      18.899   2.031  28.780  1.00  0.00    -0.274 OA
HETATM   22  C15 UNK     1      19.617  -0.233  28.461  1.00  0.00     0.038 A 
HETATM   23  C13 UNK     1      18.570   3.126  29.575  1.00  0.00     0.304 A 
HETATM   24  O5  UNK     1      18.215   4.191  29.082  1.00  0.00    -0.259 OA
HETATM   25  C17 UNK     1      20.025  -1.459  28.982  1.00  0.00     0.003 A 
HETATM   26  C16 UNK     1      20.120  -1.634  30.364  1.00  0.00     0.001 A 
ENDBRANCH   3  16
TORSDOF 4
ENDMDL
MODEL 4
REMARK VINA RESULT:      -8.8      6.919      9.943
REMARK  4 active torsions:
REMARK  status: ('A' for Active; 'I' for Inactive)
REMARK    1  A    between atoms: C12_19  and  O2_3 
REMARK    2  A    between atoms: C3_10  and  N1_7 
REMARK       I    between atoms: C9_16  and  N1_7 
REMARK    3  A    between atoms: C12_19  and  C2_9 
REMARK    4  A    between atoms: C6_13  and  C9_16 
ROOT
HETATM    1  O3  UNK     1      19.474   5.066  31.181  1.00  0.00    -0.267 OA
HETATM    2  N1  UNK     1      18.071   3.522  32.274  1.00  0.00    -0.316 N 
HETATM    3  C9  UNK     1      18.564   4.781  31.957  1.00  0.00     0.262 C 
HETATM    4  H1  UNK     1      17.320   3.446  32.953  1.00  0.00     0.169 HD
ENDROOT
BRANCH   2   5
HETATM    5  C3  UNK     1      18.509   2.273  31.773  1.00  0.00     0.094 A 
HETATM    6  C2  UNK     1      18.627   1.086  32.399  1.00  0.00     0.080 A 
HETATM    7  C1  UNK     1      19.109   0.092  31.499  1.00  0.00    -0.030 A 
HETATM    8  C4  UNK     1      19.327   0.599  30.237  1.00  0.00    -0.012 A 
HETATM    9  C5  UNK     1      19.349  -1.324  31.874  1.00  0.00     0.050 C 
HETATM   10  S1  UNK     1      18.950   2.266  30.140  1.00  0.00    -0.076 SA
HETATM   11  C8  UNK     1      19.820  -0.098  29.027  1.00  0.00     0.057 C 
BRANCH   6  12
HETATM   12  C12 UNK     1      18.303   0.871  33.787  1.00  0.00     0.296 C 
HETATM   13  O4  UNK     1      19.100   0.532  34.674  1.00  0.00    -0.259 OA
BRANCH  12  14
HETATM   14  O2  UNK     1      16.969   1.091  34.038  1.00  0.00    -0.322 OA
HETATM   15  C18 UNK     1      16.333   0.209  34.971  1.00  0.00     0.213 C 
ENDBRANCH  12  14
ENDBRANCH   6  12
ENDBRANCH   2   5
BRANCH   3  16
HETATM   16  C6  UNK     1      17.858   5.849  32.675  1.00  0.00     0.108 A 
HETATM   17  C10 UNK     1      16.645   6.171  32.213  1.00  0.00     0.037 A 
HETATM   18  C7  UNK     1      15.867   7.218  32.859  1.00  0.00    -0.001 A 
HETATM   19  C11 UNK     1      16.408   7.875  33.960  1.00  0.00     0.089 A 
HETATM   20  C14 UNK     1      14.596   7.586  32.412  1.00  0.00     0.014 A 
HETATM   21  O1  UNK     1      17.686   7.532  34.441  1.00  0.00    -0.274 OA
HETATM   22  C15 UNK     1      15.716   8.887  34.622  1.00  0.00     0.038 A 
HETATM   23  C13 UNK     1      18.453   6.535  33.845  1.00  0.00     0.304 A 
HETATM   24  O5  UNK     1      19.566   6.243  34.270  1.00  0.00    -0.259 OA
HETATM   25  C17 UNK     1      14.450   9.248  34.170  1.00  0.00     0.003 A 
HETATM   26  C16 UNK     1      13.891   8.599  33.066  1.00  0.00     0.001 A 
ENDBRANCH   3  16
TORSDOF 4
ENDMDL
MODEL 5
REMARK VINA RESULT:      -8.8     19.621     21.341
REMARK  4 active torsions:
REMARK  status: ('A' for Active; 'I' for Inactive)
REMARK    1  A    between atoms: C12_19  and  O2_3 
REMARK    2  A    between atoms: C3_10  and  N1_7 
REMARK       I    between atoms: C9_16  and  N1_7 
REMARK    3  A    between atoms: C12_19  and  C2_9 
REMARK    4  A    between atoms: C6_13  and  C9_16 
ROOT
HETATM    1  O3  UNK     1      17.758  -2.170  15.934  1.00  0.00    -0.267 OA
HETATM    2  N1  UNK     1      19.720  -1.503  14.814  1.00  0.00    -0.316 N 
HETATM    3  C9  UNK     1      18.744  -1.447  15.801  1.00  0.00     0.262 C 
HETATM    4  H1  UNK     1      20.472  -0.820  14.827  1.00  0.00     0.169 HD
ENDROOT
BRANCH   2   5
HETATM    5  C3  UNK     1      19.799  -2.410  13.729  1.00  0.00     0.094 A 
HETATM    6  C2  UNK     1      20.208  -3.693  13.706  1.00  0.00     0.080 A 
HETATM    7  C1  UNK     1      20.118  -4.222  12.386  1.00  0.00    -0.030 A 
HETATM    8  C4  UNK     1      19.642  -3.293  11.488  1.00  0.00    -0.012 A 
HETATM    9  C5  UNK     1      20.492  -5.611  12.019  1.00  0.00     0.050 C 
HETATM   10  S1  UNK     1      19.305  -1.790  12.235  1.00  0.00    -0.076 SA
HETATM   11  C8  UNK     1      19.403  -3.443  10.034  1.00  0.00     0.057 C 
BRANCH   6  12
HETATM   12  C12 UNK     1      20.667  -4.414  14.867  1.00  0.00     0.296 C 
HETATM   13  O4  UNK     1      20.051  -5.318  15.450  1.00  0.00    -0.259 OA
BRANCH  12  14
HETATM   14  O2  UNK     1      21.906  -3.981  15.277  1.00  0.00    -0.322 OA
HETATM   15  C18 UNK     1      22.057  -3.680  16.669  1.00  0.00     0.213 C 
ENDBRANCH  12  14
ENDBRANCH   6  12
ENDBRANCH   2   5
BRANCH   3  16
HETATM   16  C6  UNK     1      18.994  -0.370  16.766  1.00  0.00     0.108 A 
HETATM   17  C10 UNK     1      18.985  -0.718  18.057  1.00  0.00     0.037 A 
HETATM   18  C7  UNK     1      19.222   0.280  19.088  1.00  0.00    -0.001 A 
HETATM   19  C11 UNK     1      19.456   1.598  18.708  1.00  0.00     0.089 A 
HETATM   20  C14 UNK     1      19.223  -0.039  20.448  1.00  0.00     0.014 A 
HETATM   21  O1  UNK     1      19.463   1.959  17.347  1.00  0.00    -0.274 OA
HETATM   22  C15 UNK     1      19.688   2.601  19.645  1.00  0.00     0.038 A 
HETATM   23  C13 UNK     1      19.241   1.026  16.337  1.00  0.00     0.304 A 
HETATM   24  O5  UNK     1      19.249   1.349  15.155  1.00  0.00    -0.259 OA
HETATM   25  C17 UNK     1      19.687   2.275  20.999  1.00  0.00     0.003 A 
HETATM   26  C16 UNK     1      19.454   0.958  21.400  1.00  0.00     0.001 A 
ENDBRANCH   3  16
TORSDOF 4
ENDMDL
MODEL 6
REMARK VINA RESULT:      -8.8      8.309     12.140
REMARK  4 active torsions:
REMARK  status: ('A' for Active; 'I' for Inactive)
REMARK    1  A    between atoms: C12_19  and  O2_3 
REMARK    2  A    between atoms: C3_10  and  N1_7 
REMARK       I    between atoms: C9_16  and  N1_7 
REMARK    3  A    between atoms: C12_19  and  C2_9 
REMARK    4  A    between atoms: C6_13  and  C9_16 
ROOT
HETATM    1  O3  UNK     1      17.671   3.111  33.042  1.00  0.00    -0.267 OA
HETATM    2  N1  UNK     1      18.352   4.679  31.421  1.00  0.00    -0.316 N 
HETATM    3  C9  UNK     1      18.167   3.411  31.957  1.00  0.00     0.262 C 
HETATM    4  H1  UNK     1      18.796   4.768  30.512  1.00  0.00     0.169 HD
ENDROOT
BRANCH   2   5
HETATM    5  C3  UNK     1      18.011   5.921  32.008  1.00  0.00     0.094 A 
HETATM    6  C2  UNK     1      18.666   6.646  32.935  1.00  0.00     0.080 A 
HETATM    7  C1  UNK     1      17.951   7.842  33.231  1.00  0.00    -0.030 A 
HETATM    8  C4  UNK     1      16.789   7.944  32.500  1.00  0.00    -0.012 A 
HETATM    9  C5  UNK     1      18.403   8.861  34.212  1.00  0.00     0.050 C 
HETATM   10  S1  UNK     1      16.563   6.603  31.461  1.00  0.00    -0.076 SA
HETATM   11  C8  UNK     1      15.774   9.022  32.512  1.00  0.00     0.057 C 
BRANCH   6  12
HETATM   12  C12 UNK     1      19.917   6.250  33.531  1.00  0.00     0.296 C 
HETATM   13  O4  UNK     1      20.052   5.468  34.485  1.00  0.00    -0.259 OA
BRANCH  12  14
HETATM   14  O2  UNK     1      20.989   6.848  32.910  1.00  0.00    -0.322 OA
HETATM   15  C18 UNK     1      21.797   6.014  32.072  1.00  0.00     0.213 C 
ENDBRANCH  12  14
ENDBRANCH   6  12
ENDBRANCH   2   5
BRANCH   3  16
HETATM   16  C6  UNK     1      18.644   2.354  31.056  1.00  0.00     0.108 A 
HETATM   17  C10 UNK     1      19.050   1.220  31.638  1.00  0.00     0.037 A 
HETATM   18  C7  UNK     1      19.540   0.115  30.829  1.00  0.00    -0.001 A 
HETATM   19  C11 UNK     1      19.580   0.259  29.446  1.00  0.00     0.089 A 
HETATM   20  C14 UNK     1      19.972  -1.088  31.394  1.00  0.00     0.014 A 
HETATM   21  O1  UNK     1      19.153   1.456  28.839  1.00  0.00    -0.274 OA
HETATM   22  C15 UNK     1      20.039  -0.760  28.615  1.00  0.00     0.038 A 
HETATM   23  C13 UNK     1      18.678   2.531  29.587  1.00  0.00     0.304 A 
HETATM   24  O5  UNK     1      18.308   3.569  29.050  1.00  0.00    -0.259 OA
HETATM   25  C17 UNK     1      20.469  -1.955  29.186  1.00  0.00     0.003 A 
HETATM   26  C16 UNK     1      20.436  -2.119  30.573  1.00  0.00     0.001 A 
ENDBRANCH   3  16
TORSDOF 4
ENDMDL
MODEL 7
REMARK VINA RESULT:      -8.7      7.771     12.386
REMARK  4 active torsions:
REMARK  status: ('A' for Active; 'I' for Inactive)
REMARK    1  A    between atoms: C12_19  and  O2_3 
REMARK    2  A    between atoms: C3_10  and  N1_7 
REMARK       I    between atoms: C9_16  and  N1_7 
REMARK    3  A    between atoms: C12_19  and  C2_9 
REMARK    4  A    between atoms: C6_13  and  C9_16 
ROOT
HETATM    1  O3  UNK     1      18.588   5.001  30.297  1.00  0.00    -0.267 OA
HETATM    2  N1  UNK     1      17.640   4.864  32.449  1.00  0.00    -0.316 N 
HETATM    3  C9  UNK     1      18.276   4.381  31.313  1.00  0.00     0.262 C 
HETATM    4  H1  UNK     1      17.433   4.219  33.207  1.00  0.00     0.169 HD
ENDROOT
BRANCH   2   5
HETATM    5  C3  UNK     1      17.203   6.187  32.697  1.00  0.00     0.094 A 
HETATM    6  C2  UNK     1      17.872   7.233  33.219  1.00  0.00     0.080 A 
HETATM    7  C1  UNK     1      17.031   8.382  33.285  1.00  0.00    -0.030 A 
HETATM    8  C4  UNK     1      15.767   8.125  32.802  1.00  0.00    -0.012 A 
HETATM    9  C5  UNK     1      17.464   9.701  33.810  1.00  0.00     0.050 C 
HETATM   10  S1  UNK     1      15.597   6.506  32.274  1.00  0.00    -0.076 SA
HETATM   11  C8  UNK     1      14.609   9.041  32.697  1.00  0.00     0.057 C 
BRANCH   6  12
HETATM   12  C12 UNK     1      19.248   7.178  33.644  1.00  0.00     0.296 C 
HETATM   13  O4  UNK     1      19.652   7.288  34.812  1.00  0.00    -0.259 OA
BRANCH  12  14
HETATM   14  O2  UNK     1      20.101   6.982  32.583  1.00  0.00    -0.322 OA
HETATM   15  C18 UNK     1      21.275   6.201  32.834  1.00  0.00     0.213 C 
ENDBRANCH  12  14
ENDBRANCH   6  12
ENDBRANCH   2   5
BRANCH   3  16
HETATM   16  C6  UNK     1      18.582   2.949  31.415  1.00  0.00     0.108 A 
HETATM   17  C10 UNK     1      19.080   2.371  30.316  1.00  0.00     0.037 A 
HETATM   18  C7  UNK     1      19.414   0.955  30.319  1.00  0.00    -0.001 A 
HETATM   19  C11 UNK     1      19.207   0.218  31.480  1.00  0.00     0.089 A 
HETATM   20  C14 UNK     1      19.937   0.310  29.196  1.00  0.00     0.014 A 
HETATM   21  O1  UNK     1      18.682   0.832  32.634  1.00  0.00    -0.274 OA
HETATM   22  C15 UNK     1      19.505  -1.141  31.550  1.00  0.00     0.038 A 
HETATM   23  C13 UNK     1      18.353   2.184  32.662  1.00  0.00     0.304 A 
HETATM   24  O5  UNK     1      17.896   2.711  33.670  1.00  0.00    -0.259 OA
HETATM   25  C17 UNK     1      20.025  -1.777  30.425  1.00  0.00     0.003 A 
HETATM   26  C16 UNK     1      20.241  -1.053  29.250  1.00  0.00     0.001 A 
ENDBRANCH   3  16
TORSDOF 4
ENDMDL
MODEL 8
REMARK VINA RESULT:      -8.7      7.362     10.702
REMARK  4 active torsions:
REMARK  status: ('A' for Active; 'I' for Inactive)
REMARK    1  A    between atoms: C12_19  and  O2_3 
REMARK    2  A    between atoms: C3_10  and  N1_7 
REMARK       I    between atoms: C9_16  and  N1_7 
REMARK    3  A    between atoms: C12_19  and  C2_9 
REMARK    4  A    between atoms: C6_13  and  C9_16 
ROOT
HETATM    1  O3  UNK     1      19.434   5.491  32.682  1.00  0.00    -0.267 OA
HETATM    2  N1  UNK     1      17.654   4.359  31.636  1.00  0.00    -0.316 N 
HETATM    3  C9  UNK     1      18.288   5.436  32.239  1.00  0.00     0.262 C 
HETATM    4  H1  UNK     1      16.689   4.462  31.334  1.00  0.00     0.169 HD
ENDROOT
BRANCH   2   5
HETATM    5  C3  UNK     1      18.186   3.069  31.394  1.00  0.00     0.094 A 
HETATM    6  C2  UNK     1      18.348   2.031  32.237  1.00  0.00     0.080 A 
HETATM    7  C1  UNK     1      18.925   0.920  31.556  1.00  0.00    -0.030 A 
HETATM    8  C4  UNK     1      19.164   1.195  30.227  1.00  0.00    -0.012 A 
HETATM    9  C5  UNK     1      19.234  -0.381  32.200  1.00  0.00     0.050 C 
HETATM   10  S1  UNK     1      18.693   2.786  29.805  1.00  0.00    -0.076 SA
HETATM   11  C8  UNK     1      19.747   0.318  29.187  1.00  0.00     0.057 C 
BRANCH   6  12
HETATM   12  C12 UNK     1      17.981   2.059  33.630  1.00  0.00     0.296 C 
HETATM   13  O4  UNK     1      18.524   2.744  34.510  1.00  0.00    -0.259 OA
BRANCH  12  14
HETATM   14  O2  UNK     1      16.926   1.218  33.896  1.00  0.00    -0.322 OA
HETATM   15  C18 UNK     1      16.972   0.492  35.129  1.00  0.00     0.213 C 
ENDBRANCH  12  14
ENDBRANCH   6  12
ENDBRANCH   2   5
BRANCH   3  16
HETATM   16  C6  UNK     1      17.419   6.617  32.318  1.00  0.00     0.108 A 
HETATM   17  C10 UNK     1      17.030   6.984  33.544  1.00  0.00     0.037 A 
HETATM   18  C7  UNK     1      16.168   8.142  33.724  1.00  0.00    -0.001 A 
HETATM   19  C11 UNK     1      15.757   8.856  32.603  1.00  0.00     0.089 A 
HETATM   20  C14 UNK     1      15.737   8.561  34.985  1.00  0.00     0.014 A 
HETATM   21  O1  UNK     1      16.170   8.465  31.315  1.00  0.00    -0.274 OA
HETATM   22  C15 UNK     1      14.932   9.973  32.707  1.00  0.00     0.038 A 
HETATM   23  C13 UNK     1      16.996   7.362  31.111  1.00  0.00     0.304 A 
HETATM   24  O5  UNK     1      17.350   7.028  29.986  1.00  0.00    -0.259 OA
HETATM   25  C17 UNK     1      14.506  10.384  33.968  1.00  0.00     0.003 A 
HETATM   26  C16 UNK     1      14.908   9.680  35.105  1.00  0.00     0.001 A 
ENDBRANCH   3  16
TORSDOF 4
ENDMDL
MODEL 9
REMARK VINA RESULT:      -8.5      2.430      3.638
REMARK  4 active torsions:
REMARK  status: ('A' for Active; 'I' for Inactive)
REMARK    1  A    between atoms: C12_19  and  O2_3 
REMARK    2  A    between atoms: C3_10  and  N1_7 
REMARK       I    between atoms: C9_16  and  N1_7 
REMARK    3  A    between atoms: C12_19  and  C2_9 
REMARK    4  A    between atoms: C6_13  and  C9_16 
ROOT
HETATM    1  O3  UNK     1      19.142  -2.363  37.378  1.00  0.00    -0.267 OA
HETATM    2  N1  UNK     1      19.913  -4.137  36.034  1.00  0.00    -0.316 N 
HETATM    3  C9  UNK     1      19.460  -2.850  36.294  1.00  0.00     0.262 C 
HETATM    4  H1  UNK     1      20.121  -4.400  35.075  1.00  0.00     0.169 HD
ENDROOT
BRANCH   2   5
HETATM    5  C3  UNK     1      20.111  -5.187  36.963  1.00  0.00     0.094 A 
HETATM    6  C2  UNK     1      19.314  -6.228  37.272  1.00  0.00     0.080 A 
HETATM    7  C1  UNK     1      19.922  -7.043  38.270  1.00  0.00    -0.030 A 
HETATM    8  C4  UNK     1      21.152  -6.559  38.655  1.00  0.00    -0.012 A 
HETATM    9  C5  UNK     1      19.303  -8.271  38.831  1.00  0.00     0.050 C 
HETATM   10  S1  UNK     1      21.572  -5.128  37.815  1.00  0.00    -0.076 SA
HETATM   11  C8  UNK     1      22.095  -7.108  39.655  1.00  0.00     0.057 C 
BRANCH   6  12
HETATM   12  C12 UNK     1      18.030  -6.467  36.663  1.00  0.00     0.296 C 
HETATM   13  O4  UNK     1      16.959  -5.937  36.996  1.00  0.00    -0.259 OA
BRANCH  12  14
HETATM   14  O2  UNK     1      18.115  -7.377  35.635  1.00  0.00    -0.322 OA
HETATM   15  C18 UNK     1      16.889  -7.739  34.990  1.00  0.00     0.213 C 
ENDBRANCH  12  14
ENDBRANCH   6  12
ENDBRANCH   2   5
BRANCH   3  16
HETATM   16  C6  UNK     1      19.380  -2.034  35.077  1.00  0.00     0.108 A 
HETATM   17  C10 UNK     1      20.010  -2.516  34.000  1.00  0.00     0.037 A 
HETATM   18  C7  UNK     1      19.989  -1.778  32.746  1.00  0.00    -0.001 A 
HETATM   19  C11 UNK     1      19.305  -0.568  32.689  1.00  0.00     0.089 A 
HETATM   20  C14 UNK     1      20.631  -2.244  31.596  1.00  0.00     0.014 A 
HETATM   21  O1  UNK     1      18.644  -0.066  33.827  1.00  0.00    -0.274 OA
HETATM   22  C15 UNK     1      19.246   0.187  31.520  1.00  0.00     0.038 A 
HETATM   23  C13 UNK     1      18.646  -0.749  35.040  1.00  0.00     0.304 A 
HETATM   24  O5  UNK     1      18.069  -0.304  36.026  1.00  0.00    -0.259 OA
HETATM   25  C17 UNK     1      19.891  -0.283  30.379  1.00  0.00     0.003 A 
HETATM   26  C16 UNK     1      20.582  -1.497  30.416  1.00  0.00     0.001 A 
ENDBRANCH   3  16
TORSDOF 4
ENDMDL
MODEL 10
REMARK VINA RESULT:      -8.5      2.396      7.710
REMARK  4 active torsions:
REMARK  status: ('A' for Active; 'I' for Inactive)
REMARK    1  A    between atoms: C12_19  and  O2_3 
REMARK    2  A    between atoms: C3_10  and  N1_7 
REMARK       I    between atoms: C9_16  and  N1_7 
REMARK    3  A    between atoms: C12_19  and  C2_9 
REMARK    4  A    between atoms: C6_13  and  C9_16 
ROOT
HETATM    1  O3  UNK     1      18.295  -5.312  36.489  1.00  0.00    -0.267 OA
HETATM    2  N1  UNK     1      20.092  -3.791  36.419  1.00  0.00    -0.316 N 
HETATM    3  C9  UNK     1      19.495  -5.041  36.515  1.00  0.00     0.262 C 
HETATM    4  H1  UNK     1      21.104  -3.725  36.474  1.00  0.00     0.169 HD
ENDROOT
BRANCH   2   5
HETATM    5  C3  UNK     1      19.452  -2.537  36.270  1.00  0.00     0.094 A 
HETATM    6  C2  UNK     1      19.393  -1.720  35.201  1.00  0.00     0.080 A 
HETATM    7  C1  UNK     1      18.632  -0.554  35.504  1.00  0.00    -0.030 A 
HETATM    8  C4  UNK     1      18.160  -0.566  36.798  1.00  0.00    -0.012 A 
HETATM    9  C5  UNK     1      18.376   0.546  34.541  1.00  0.00     0.050 C 
HETATM   10  S1  UNK     1      18.633  -1.979  37.641  1.00  0.00    -0.076 SA
HETATM   11  C8  UNK     1      17.337   0.446  37.497  1.00  0.00     0.057 C 
BRANCH   6  12
HETATM   12  C12 UNK     1      20.018  -2.004  33.934  1.00  0.00     0.296 C 
HETATM   13  O4  UNK     1      21.181  -2.402  33.771  1.00  0.00    -0.259 OA
BRANCH  12  14
HETATM   14  O2  UNK     1      19.160  -1.783  32.882  1.00  0.00    -0.322 OA
HETATM   15  C18 UNK     1      19.754  -1.432  31.627  1.00  0.00     0.213 C 
ENDBRANCH  12  14
ENDBRANCH   6  12
ENDBRANCH   2   5
BRANCH   3  16
HETATM   16  C6  UNK     1      20.482  -6.117  36.660  1.00  0.00     0.108 A 
HETATM   17  C10 UNK     1      20.343  -7.162  35.837  1.00  0.00     0.037 A 
HETATM   18  C7  UNK     1      21.273  -8.278  35.904  1.00  0.00    -0.001 A 
HETATM   19  C11 UNK     1      22.304  -8.239  36.838  1.00  0.00     0.089 A 
HETATM   20  C14 UNK     1      21.167  -9.389  35.064  1.00  0.00     0.014 A 
HETATM   21  O1  UNK     1      22.445  -7.137  37.702  1.00  0.00    -0.274 OA
HETATM   22  C15 UNK     1      23.227  -9.276  36.955  1.00  0.00     0.038 A 
HETATM   23  C13 UNK     1      21.571  -6.053  37.661  1.00  0.00     0.304 A 
HETATM   24  O5  UNK     1      21.701  -5.097  38.418  1.00  0.00    -0.259 OA
HETATM   25  C17 UNK     1      23.114 -10.380  36.114  1.00  0.00     0.003 A 
HETATM   26  C16 UNK     1      22.086 -10.437  35.170  1.00  0.00     0.001 A 
ENDBRANCH   3  16
TORSDOF 4
ENDMDL
