MODEL 1
REMARK VINA RESULT:      -6.6      0.000      0.000
REMARK  3 active torsions:
REMARK  status: ('A' for Active; 'I' for Inactive)
REMARK    1  A    between atoms: C6_10  and  O2_2 
REMARK    2  A    between atoms: C9_13  and  O3_3 
REMARK    3  A    between atoms: C2_6  and  C4_8 
ROOT
HETATM    1  O1  UNK     1      18.500   0.750  33.272  1.00  0.00    -0.275 OA
HETATM    2  O4  UNK     1      18.842  -1.498  33.518  1.00  0.00    -0.260 OA
HETATM    3  C1  UNK     1      18.970   1.800  31.118  1.00  0.00     0.007 A 
HETATM    4  C2  UNK     1      19.374   0.488  30.594  1.00  0.00    -0.040 A 
HETATM    5  C3  UNK     1      18.545   1.889  32.444  1.00  0.00     0.093 A 
HETATM    6  C5  UNK     1      18.984   2.979  30.359  1.00  0.00     0.054 A 
HETATM    7  C6  UNK     1      18.585   4.196  30.923  1.00  0.00     0.102 A 
HETATM    8  C7  UNK     1      18.144   3.096  33.020  1.00  0.00     0.077 A 
HETATM    9  C8  UNK     1      19.322  -0.578  31.405  1.00  0.00     0.090 A 
HETATM   10  C9  UNK     1      18.166   4.255  32.251  1.00  0.00     0.104 A 
HETATM   11  C11 UNK     1      18.876  -0.501  32.806  1.00  0.00     0.288 A 
ENDROOT
BRANCH   4  12
HETATM   12  C4  UNK     1      19.835   0.360  29.172  1.00  0.00     0.035 C 
HETATM   13  C10 UNK     1      20.791  -0.802  28.996  1.00  0.00     0.010 C 
ENDBRANCH   4  12
BRANCH   7  14
HETATM   14  O2  UNK     1      18.610   5.325  30.159  1.00  0.00    -0.353 OA
HETATM   15  C12 UNK     1      19.876   5.958  29.982  1.00  0.00     0.210 C 
ENDBRANCH   7  14
BRANCH  10  16
HETATM   16  O3  UNK     1      17.776   5.436  32.804  1.00  0.00    -0.353 OA
HETATM   17  C13 UNK     1      18.697   6.074  33.689  1.00  0.00     0.210 C 
ENDBRANCH  10  16
TORSDOF 3
ENDMDL
MODEL 2
REMARK VINA RESULT:      -6.5      2.237      3.539
REMARK  3 active torsions:
REMARK  status: ('A' for Active; 'I' for Inactive)
REMARK    1  A    between atoms: C6_10  and  O2_2 
REMARK    2  A    between atoms: C9_13  and  O3_3 
REMARK    3  A    between atoms: C2_6  and  C4_8 
ROOT
HETATM    1  O1  UNK     1      19.550   0.922  29.324  1.00  0.00    -0.275 OA
HETATM    2  O4  UNK     1      20.464  -0.708  28.005  1.00  0.00    -0.260 OA
HETATM    3  C1  UNK     1      19.138   0.457  31.686  1.00  0.00     0.007 A 
HETATM    4  C2  UNK     1      19.677  -0.896  31.488  1.00  0.00    -0.040 A 
HETATM    5  C3  UNK     1      19.091   1.325  30.594  1.00  0.00     0.093 A 
HETATM    6  C5  UNK     1      18.663   0.934  32.916  1.00  0.00     0.054 A 
HETATM    7  C6  UNK     1      18.163   2.235  33.033  1.00  0.00     0.102 A 
HETATM    8  C7  UNK     1      18.595   2.626  30.696  1.00  0.00     0.077 A 
HETATM    9  C8  UNK     1      20.105  -1.251  30.268  1.00  0.00     0.090 A 
HETATM   10  C9  UNK     1      18.129   3.080  31.925  1.00  0.00     0.104 A 
HETATM   11  C11 UNK     1      20.063  -0.347  29.107  1.00  0.00     0.288 A 
ENDROOT
BRANCH   4  12
HETATM   12  C4  UNK     1      19.741  -1.852  32.642  1.00  0.00     0.035 C 
HETATM   13  C10 UNK     1      21.040  -2.631  32.653  1.00  0.00     0.010 C 
ENDBRANCH   4  12
BRANCH   7  14
HETATM   14  O2  UNK     1      17.709   2.669  34.244  1.00  0.00    -0.353 OA
HETATM   15  C12 UNK     1      18.338   2.125  35.402  1.00  0.00     0.210 C 
ENDBRANCH   7  14
BRANCH  10  16
HETATM   16  O3  UNK     1      17.643   4.347  32.033  1.00  0.00    -0.353 OA
HETATM   17  C13 UNK     1      18.598   5.404  32.118  1.00  0.00     0.210 C 
ENDBRANCH  10  16
TORSDOF 3
ENDMDL
MODEL 3
REMARK VINA RESULT:      -6.4      2.264      5.020
REMARK  3 active torsions:
REMARK  status: ('A' for Active; 'I' for Inactive)
REMARK    1  A    between atoms: C6_10  and  O2_2 
REMARK    2  A    between atoms: C9_13  and  O3_3 
REMARK    3  A    between atoms: C2_6  and  C4_8 
ROOT
HETATM    1  O1  UNK     1      18.133   2.254  32.181  1.00  0.00    -0.275 OA
HETATM    2  O4  UNK     1      18.570   3.082  30.094  1.00  0.00    -0.260 OA
HETATM    3  C1  UNK     1      18.844  -0.015  32.740  1.00  0.00     0.007 A 
HETATM    4  C2  UNK     1      19.399  -0.148  31.385  1.00  0.00    -0.040 A 
HETATM    5  C3  UNK     1      18.226   1.185  33.095  1.00  0.00     0.093 A 
HETATM    6  C5  UNK     1      18.897  -1.030  33.705  1.00  0.00     0.054 A 
HETATM    7  C6  UNK     1      18.348  -0.835  34.977  1.00  0.00     0.102 A 
HETATM    8  C7  UNK     1      17.674   1.394  34.360  1.00  0.00     0.077 A 
HETATM    9  C8  UNK     1      19.295   0.886  30.537  1.00  0.00     0.090 A 
HETATM   10  C9  UNK     1      17.737   0.374  35.304  1.00  0.00     0.104 A 
HETATM   11  C11 UNK     1      18.646   2.158  30.897  1.00  0.00     0.288 A 
ENDROOT
BRANCH   4  12
HETATM   12  C4  UNK     1      20.069  -1.425  30.973  1.00  0.00     0.035 C 
HETATM   13  C10 UNK     1      20.479  -1.397  29.515  1.00  0.00     0.010 C 
ENDBRANCH   4  12
BRANCH   7  14
HETATM   14  O2  UNK     1      18.416  -1.842  35.895  1.00  0.00    -0.353 OA
HETATM   15  C12 UNK     1      19.709  -2.373  36.176  1.00  0.00     0.210 C 
ENDBRANCH   7  14
BRANCH  10  16
HETATM   16  O3  UNK     1      17.200   0.569  36.540  1.00  0.00    -0.353 OA
HETATM   17  C13 UNK     1      17.809   1.563  37.363  1.00  0.00     0.210 C 
ENDBRANCH  10  16
TORSDOF 3
ENDMDL
MODEL 4
REMARK VINA RESULT:      -6.3      2.374      5.811
REMARK  3 active torsions:
REMARK  status: ('A' for Active; 'I' for Inactive)
REMARK    1  A    between atoms: C6_10  and  O2_2 
REMARK    2  A    between atoms: C9_13  and  O3_3 
REMARK    3  A    between atoms: C2_6  and  C4_8 
ROOT
HETATM    1  O1  UNK     1      18.327   1.459  31.599  1.00  0.00    -0.275 OA
HETATM    2  O4  UNK     1      18.250   2.649  29.647  1.00  0.00    -0.260 OA
HETATM    3  C1  UNK     1      18.327   2.656  33.728  1.00  0.00     0.007 A 
HETATM    4  C2  UNK     1      18.270   3.924  32.988  1.00  0.00    -0.040 A 
HETATM    5  C3  UNK     1      18.354   1.461  33.008  1.00  0.00     0.093 A 
HETATM    6  C5  UNK     1      18.355   2.572  35.127  1.00  0.00     0.054 A 
HETATM    7  C6  UNK     1      18.409   1.330  35.768  1.00  0.00     0.102 A 
HETATM    8  C7  UNK     1      18.408   0.214  33.633  1.00  0.00     0.077 A 
HETATM    9  C8  UNK     1      18.245   3.891  31.647  1.00  0.00     0.090 A 
HETATM   10  C9  UNK     1      18.436   0.153  35.022  1.00  0.00     0.104 A 
HETATM   11  C11 UNK     1      18.274   2.639  30.873  1.00  0.00     0.288 A 
ENDROOT
BRANCH   4  12
HETATM   12  C4  UNK     1      18.239   5.225  33.733  1.00  0.00     0.035 C 
HETATM   13  C10 UNK     1      19.510   6.022  33.522  1.00  0.00     0.010 C 
ENDBRANCH   4  12
BRANCH   7  14
HETATM   14  O2  UNK     1      18.436   1.282  37.131  1.00  0.00    -0.353 OA
HETATM   15  C12 UNK     1      17.179   1.290  37.803  1.00  0.00     0.210 C 
ENDBRANCH   7  14
BRANCH  10  16
HETATM   16  O3  UNK     1      18.489  -1.060  35.641  1.00  0.00    -0.353 OA
HETATM   17  C13 UNK     1      19.753  -1.721  35.666  1.00  0.00     0.210 C 
ENDBRANCH  10  16
TORSDOF 3
ENDMDL
MODEL 5
REMARK VINA RESULT:      -6.3      1.867      3.808
REMARK  3 active torsions:
REMARK  status: ('A' for Active; 'I' for Inactive)
REMARK    1  A    between atoms: C6_10  and  O2_2 
REMARK    2  A    between atoms: C9_13  and  O3_3 
REMARK    3  A    between atoms: C2_6  and  C4_8 
ROOT
HETATM    1  O1  UNK     1      18.451   0.982  31.978  1.00  0.00    -0.275 OA
HETATM    2  O4  UNK     1      18.447  -1.234  32.547  1.00  0.00    -0.260 OA
HETATM    3  C1  UNK     1      18.304   2.667  33.739  1.00  0.00     0.007 A 
HETATM    4  C2  UNK     1      18.253   1.587  34.735  1.00  0.00    -0.040 A 
HETATM    5  C3  UNK     1      18.401   2.328  32.389  1.00  0.00     0.093 A 
HETATM    6  C5  UNK     1      18.261   4.030  34.066  1.00  0.00     0.054 A 
HETATM    7  C6  UNK     1      18.314   5.007  33.066  1.00  0.00     0.102 A 
HETATM    8  C7  UNK     1      18.455   3.292  31.380  1.00  0.00     0.077 A 
HETATM    9  C8  UNK     1      18.302   0.315  34.314  1.00  0.00     0.090 A 
HETATM   10  C9  UNK     1      18.410   4.638  31.725  1.00  0.00     0.104 A 
HETATM   11  C11 UNK     1      18.405  -0.058  32.894  1.00  0.00     0.288 A 
ENDROOT
BRANCH   4  12
HETATM   12  C4  UNK     1      18.150   1.919  36.194  1.00  0.00     0.035 C 
HETATM   13  C10 UNK     1      16.975   1.218  36.846  1.00  0.00     0.010 C 
ENDBRANCH   4  12
BRANCH   7  14
HETATM   14  O2  UNK     1      18.269   6.324  33.417  1.00  0.00    -0.353 OA
HETATM   15  C12 UNK     1      19.499   6.930  33.809  1.00  0.00     0.210 C 
ENDBRANCH   7  14
BRANCH  10  16
HETATM   16  O3  UNK     1      18.461   5.585  30.748  1.00  0.00    -0.353 OA
HETATM   17  C13 UNK     1      19.722   5.796  30.114  1.00  0.00     0.210 C 
ENDBRANCH  10  16
TORSDOF 3
ENDMDL
MODEL 6
REMARK VINA RESULT:      -6.3      1.784      5.174
REMARK  3 active torsions:
REMARK  status: ('A' for Active; 'I' for Inactive)
REMARK    1  A    between atoms: C6_10  and  O2_2 
REMARK    2  A    between atoms: C9_13  and  O3_3 
REMARK    3  A    between atoms: C2_6  and  C4_8 
ROOT
HETATM    1  O1  UNK     1      18.064   5.250  34.300  1.00  0.00    -0.275 OA
HETATM    2  O4  UNK     1      18.019   7.499  34.712  1.00  0.00    -0.260 OA
HETATM    3  C1  UNK     1      18.420   4.460  32.016  1.00  0.00     0.007 A 
HETATM    4  C2  UNK     1      18.504   5.859  31.572  1.00  0.00    -0.040 A 
HETATM    5  C3  UNK     1      18.202   4.200  33.370  1.00  0.00     0.093 A 
HETATM    6  C5  UNK     1      18.547   3.361  31.155  1.00  0.00     0.054 A 
HETATM    7  C6  UNK     1      18.457   2.054  31.647  1.00  0.00     0.102 A 
HETATM    8  C7  UNK     1      18.109   2.902  33.875  1.00  0.00     0.077 A 
HETATM    9  C8  UNK     1      18.369   6.837  32.480  1.00  0.00     0.090 A 
HETATM   10  C9  UNK     1      18.238   1.825  33.004  1.00  0.00     0.104 A 
HETATM   11  C11 UNK     1      18.138   6.578  33.911  1.00  0.00     0.288 A 
ENDROOT
BRANCH   4  12
HETATM   12  C4  UNK     1      18.738   6.171  30.124  1.00  0.00     0.035 C 
HETATM   13  C10 UNK     1      20.195   6.003  29.744  1.00  0.00     0.010 C 
ENDBRANCH   4  12
BRANCH   7  14
HETATM   14  O2  UNK     1      18.584   1.007  30.783  1.00  0.00    -0.353 OA
HETATM   15  C12 UNK     1      18.988   1.314  29.450  1.00  0.00     0.210 C 
ENDBRANCH   7  14
BRANCH  10  16
HETATM   16  O3  UNK     1      18.149   0.556  33.488  1.00  0.00    -0.353 OA
HETATM   17  C13 UNK     1      18.223   0.393  34.903  1.00  0.00     0.210 C 
ENDBRANCH  10  16
TORSDOF 3
ENDMDL
MODEL 7
REMARK VINA RESULT:      -6.3      2.455      5.054
REMARK  3 active torsions:
REMARK  status: ('A' for Active; 'I' for Inactive)
REMARK    1  A    between atoms: C6_10  and  O2_2 
REMARK    2  A    between atoms: C9_13  and  O3_3 
REMARK    3  A    between atoms: C2_6  and  C4_8 
ROOT
HETATM    1  O1  UNK     1      19.625  -0.674  30.628  1.00  0.00    -0.275 OA
HETATM    2  O4  UNK     1      20.105  -0.223  28.437  1.00  0.00    -0.260 OA
HETATM    3  C1  UNK     1      18.709   1.096  32.039  1.00  0.00     0.007 A 
HETATM    4  C2  UNK     1      18.762   2.007  30.888  1.00  0.00    -0.040 A 
HETATM    5  C3  UNK     1      19.144  -0.220  31.872  1.00  0.00     0.093 A 
HETATM    6  C5  UNK     1      18.243   1.470  33.307  1.00  0.00     0.054 A 
HETATM    7  C6  UNK     1      18.220   0.549  34.360  1.00  0.00     0.102 A 
HETATM    8  C7  UNK     1      19.126  -1.149  32.913  1.00  0.00     0.077 A 
HETATM    9  C8  UNK     1      19.225   1.547  29.716  1.00  0.00     0.090 A 
HETATM   10  C9  UNK     1      18.661  -0.758  34.164  1.00  0.00     0.104 A 
HETATM   11  C11 UNK     1      19.688   0.162  29.524  1.00  0.00     0.288 A 
ENDROOT
BRANCH   4  12
HETATM   12  C4  UNK     1      18.301   3.427  31.035  1.00  0.00     0.035 C 
HETATM   13  C10 UNK     1      19.117   4.373  30.177  1.00  0.00     0.010 C 
ENDBRANCH   4  12
BRANCH   7  14
HETATM   14  O2  UNK     1      17.761   0.945  35.582  1.00  0.00    -0.353 OA
HETATM   15  C12 UNK     1      18.604   1.811  36.339  1.00  0.00     0.210 C 
ENDBRANCH   7  14
BRANCH  10  16
HETATM   16  O3  UNK     1      18.641  -1.658  35.185  1.00  0.00    -0.353 OA
HETATM   17  C13 UNK     1      19.881  -1.931  35.835  1.00  0.00     0.210 C 
ENDBRANCH  10  16
TORSDOF 3
ENDMDL
MODEL 8
REMARK VINA RESULT:      -6.3      4.748      7.784
REMARK  3 active torsions:
REMARK  status: ('A' for Active; 'I' for Inactive)
REMARK    1  A    between atoms: C6_10  and  O2_2 
REMARK    2  A    between atoms: C9_13  and  O3_3 
REMARK    3  A    between atoms: C2_6  and  C4_8 
ROOT
HETATM    1  O1  UNK     1      15.574   6.705  31.989  1.00  0.00    -0.275 OA
HETATM    2  O4  UNK     1      13.297   6.911  31.908  1.00  0.00    -0.260 OA
HETATM    3  C1  UNK     1      16.854   8.167  33.468  1.00  0.00     0.007 A 
HETATM    4  C2  UNK     1      15.596   8.797  33.894  1.00  0.00    -0.040 A 
HETATM    5  C3  UNK     1      16.802   7.138  32.526  1.00  0.00     0.093 A 
HETATM    6  C5  UNK     1      18.114   8.539  33.956  1.00  0.00     0.054 A 
HETATM    7  C6  UNK     1      19.273   7.896  33.507  1.00  0.00     0.102 A 
HETATM    8  C7  UNK     1      17.949   6.487  32.069  1.00  0.00     0.077 A 
HETATM    9  C8  UNK     1      14.442   8.363  33.364  1.00  0.00     0.090 A 
HETATM   10  C9  UNK     1      19.190   6.872  32.565  1.00  0.00     0.104 A 
HETATM   11  C11 UNK     1      14.372   7.280  32.370  1.00  0.00     0.288 A 
ENDROOT
BRANCH   4  12
HETATM   12  C4  UNK     1      15.618   9.904  34.905  1.00  0.00     0.035 C 
HETATM   13  C10 UNK     1      14.248  10.527  35.084  1.00  0.00     0.010 C 
ENDBRANCH   4  12
BRANCH   7  14
HETATM   14  O2  UNK     1      20.484   8.282  34.001  1.00  0.00    -0.353 OA
HETATM   15  C12 UNK     1      20.564   9.588  34.566  1.00  0.00     0.210 C 
ENDBRANCH   7  14
BRANCH  10  16
HETATM   16  O3  UNK     1      20.314   6.243  32.124  1.00  0.00    -0.353 OA
HETATM   17  C13 UNK     1      20.312   5.778  30.775  1.00  0.00     0.210 C 
ENDBRANCH  10  16
TORSDOF 3
ENDMDL
MODEL 9
REMARK VINA RESULT:      -6.3     13.706     16.024
REMARK  3 active torsions:
REMARK  status: ('A' for Active; 'I' for Inactive)
REMARK    1  A    between atoms: C6_10  and  O2_2 
REMARK    2  A    between atoms: C9_13  and  O3_3 
REMARK    3  A    between atoms: C2_6  and  C4_8 
ROOT
HETATM    1  O1  UNK     1      28.014  -4.967  38.405  1.00  0.00    -0.275 OA
HETATM    2  O4  UNK     1      25.776  -5.147  38.838  1.00  0.00    -0.260 OA
HETATM    3  C1  UNK     1      29.409  -6.971  38.470  1.00  0.00     0.007 A 
HETATM    4  C2  UNK     1      28.216  -7.760  38.809  1.00  0.00    -0.040 A 
HETATM    5  C3  UNK     1      29.269  -5.596  38.278  1.00  0.00     0.093 A 
HETATM    6  C5  UNK     1      30.690  -7.521  38.325  1.00  0.00     0.054 A 
HETATM    7  C6  UNK     1      31.783  -6.710  37.999  1.00  0.00     0.102 A 
HETATM    8  C7  UNK     1      30.350  -4.774  37.953  1.00  0.00     0.077 A 
HETATM    9  C8  UNK     1      27.036  -7.134  38.924  1.00  0.00     0.090 A 
HETATM   10  C9  UNK     1      31.613  -5.339  37.814  1.00  0.00     0.104 A 
HETATM   11  C11 UNK     1      26.872  -5.684  38.725  1.00  0.00     0.288 A 
ENDROOT
BRANCH   4  12
HETATM   12  C4  UNK     1      28.334  -9.240  39.021  1.00  0.00     0.035 C 
HETATM   13  C10 UNK     1      27.143  -9.794  39.776  1.00  0.00     0.010 C 
ENDBRANCH   4  12
BRANCH   7  14
HETATM   14  O2  UNK     1      33.017  -7.275  37.865  1.00  0.00    -0.353 OA
HETATM   15  C12 UNK     1      33.271  -7.993  36.660  1.00  0.00     0.210 C 
ENDBRANCH   7  14
BRANCH  10  16
HETATM   16  O3  UNK     1      32.673  -4.545  37.498  1.00  0.00    -0.353 OA
HETATM   17  C13 UNK     1      32.684  -3.964  36.194  1.00  0.00     0.210 C 
ENDBRANCH  10  16
TORSDOF 3
ENDMDL
MODEL 10
REMARK VINA RESULT:      -6.3     14.092     16.984
REMARK  3 active torsions:
REMARK  status: ('A' for Active; 'I' for Inactive)
REMARK    1  A    between atoms: C6_10  and  O2_2 
REMARK    2  A    between atoms: C9_13  and  O3_3 
REMARK    3  A    between atoms: C2_6  and  C4_8 
ROOT
HETATM    1  O1  UNK     1      19.349   1.349  15.118  1.00  0.00    -0.275 OA
HETATM    2  O4  UNK     1      19.480   3.397  16.127  1.00  0.00    -0.260 OA
HETATM    3  C1  UNK     1      19.042  -0.644  16.496  1.00  0.00     0.007 A 
HETATM    4  C2  UNK     1      19.037   0.213  17.690  1.00  0.00    -0.040 A 
HETATM    5  C3  UNK     1      19.198  -0.047  15.245  1.00  0.00     0.093 A 
HETATM    6  C5  UNK     1      18.897  -2.038  16.538  1.00  0.00     0.054 A 
HETATM    7  C6  UNK     1      18.909  -2.793  15.360  1.00  0.00     0.102 A 
HETATM    8  C7  UNK     1      19.213  -0.787  14.061  1.00  0.00     0.077 A 
HETATM    9  C8  UNK     1      19.183   1.537  17.539  1.00  0.00     0.090 A 
HETATM   10  C9  UNK     1      19.068  -2.169  14.124  1.00  0.00     0.104 A 
HETATM   11  C11 UNK     1      19.349   2.182  16.226  1.00  0.00     0.288 A 
ENDROOT
BRANCH   4  12
HETATM   12  C4  UNK     1      18.871  -0.400  19.050  1.00  0.00     0.035 C 
HETATM   13  C10 UNK     1      18.456   0.631  20.081  1.00  0.00     0.010 C 
ENDBRANCH   4  12
BRANCH   7  14
HETATM   14  O2  UNK     1      18.766  -4.147  15.434  1.00  0.00    -0.353 OA
HETATM   15  C12 UNK     1      19.948  -4.910  15.667  1.00  0.00     0.210 C 
ENDBRANCH   7  14
BRANCH  10  16
HETATM   16  O3  UNK     1      19.082  -2.898  12.975  1.00  0.00    -0.353 OA
HETATM   17  C13 UNK     1      20.348  -3.102  12.349  1.00  0.00     0.210 C 
ENDBRANCH  10  16
TORSDOF 3
ENDMDL
