MODEL 1
REMARK VINA RESULT:      -7.4      0.000      0.000
REMARK  6 active torsions:
REMARK  status: ('A' for Active; 'I' for Inactive)
REMARK    1  A    between atoms: C13_17  and  O2_2 
REMARK    2  A    between atoms: C15_19  and  O2_2 
REMARK    3  A    between atoms: C1_5  and  C2_6 
REMARK    4  A    between atoms: C1_5  and  C3_7 
REMARK    5  A    between atoms: C3_7  and  C6_10 
REMARK    6  A    between atoms: C15_19  and  C16_20 
ROOT
HETATM    1  O1  UNK     1      18.317   2.567  33.776  1.00  0.00    -0.274 OA
HETATM    2  O3  UNK     1      18.671   0.328  33.673  1.00  0.00    -0.259 OA
HETATM    3  C2  UNK     1      18.702   1.498  31.597  1.00  0.00     0.024 A 
HETATM    4  C4  UNK     1      18.551   2.676  30.956  1.00  0.00    -0.037 A 
HETATM    5  C5  UNK     1      18.302   3.903  31.742  1.00  0.00     0.005 A 
HETATM    6  C7  UNK     1      18.192   3.805  33.126  1.00  0.00     0.093 A 
HETATM    7  C8  UNK     1      18.570   1.398  33.080  1.00  0.00     0.295 A 
HETATM    8  C9  UNK     1      18.604   2.827  29.457  1.00  0.00     0.050 C 
HETATM    9  C10 UNK     1      18.177   5.183  31.180  1.00  0.00     0.017 A 
HETATM   10  C11 UNK     1      17.957   4.915  33.943  1.00  0.00     0.075 A 
HETATM   11  C13 UNK     1      17.831   6.172  33.363  1.00  0.00     0.082 A 
HETATM   12  C14 UNK     1      17.943   6.306  31.983  1.00  0.00     0.038 A 
ENDROOT
BRANCH  11  13
HETATM   13  O2  UNK     1      17.603   7.264  34.141  1.00  0.00    -0.279 OA
BRANCH  13  14
HETATM   14  C15 UNK     1      18.343   8.404  33.771  1.00  0.00     0.263 C 
HETATM   15  O4  UNK     1      17.881   9.400  33.233  1.00  0.00    -0.265 OA
BRANCH  14  16
HETATM   16  C16 UNK     1      19.794   8.204  34.145  1.00  0.00     0.107 C 
HETATM   17  C17 UNK     1      20.473   9.511  34.513  1.00  0.00     0.015 C 
ENDBRANCH  14  16
ENDBRANCH  13  14
ENDBRANCH  11  13
BRANCH   3  18
HETATM   18  C1  UNK     1      19.023   0.186  30.925  1.00  0.00     0.045 C 
BRANCH  18  19
HETATM   19  C3  UNK     1      20.508   0.075  30.608  1.00  0.00     0.004 C 
BRANCH  19  20
HETATM   20  C6  UNK     1      20.734  -0.805  29.378  1.00  0.00    -0.004 C 
HETATM   21  C12 UNK     1      19.637  -0.609  28.344  1.00  0.00     0.005 C 
ENDBRANCH  19  20
ENDBRANCH  18  19
ENDBRANCH   3  18
TORSDOF 6
ENDMDL
MODEL 2
REMARK VINA RESULT:      -7.4      1.802      2.265
REMARK  6 active torsions:
REMARK  status: ('A' for Active; 'I' for Inactive)
REMARK    1  A    between atoms: C13_17  and  O2_2 
REMARK    2  A    between atoms: C15_19  and  O2_2 
REMARK    3  A    between atoms: C1_5  and  C2_6 
REMARK    4  A    between atoms: C1_5  and  C3_7 
REMARK    5  A    between atoms: C3_7  and  C6_10 
REMARK    6  A    between atoms: C15_19  and  C16_20 
ROOT
HETATM    1  O1  UNK     1      18.026   2.873  33.466  1.00  0.00    -0.274 OA
HETATM    2  O3  UNK     1      18.069   0.717  34.172  1.00  0.00    -0.259 OA
HETATM    3  C2  UNK     1      18.676   1.096  31.898  1.00  0.00     0.024 A 
HETATM    4  C4  UNK     1      18.823   1.989  30.897  1.00  0.00    -0.037 A 
HETATM    5  C5  UNK     1      18.603   3.425  31.167  1.00  0.00     0.005 A 
HETATM    6  C7  UNK     1      18.210   3.817  32.443  1.00  0.00     0.093 A 
HETATM    7  C8  UNK     1      18.241   1.522  33.261  1.00  0.00     0.295 A 
HETATM    8  C9  UNK     1      19.192   1.610  29.485  1.00  0.00     0.050 C 
HETATM    9  C10 UNK     1      18.775   4.438  30.212  1.00  0.00     0.017 A 
HETATM   10  C11 UNK     1      17.980   5.154  32.783  1.00  0.00     0.075 A 
HETATM   11  C13 UNK     1      18.152   6.140  31.818  1.00  0.00     0.082 A 
HETATM   12  C14 UNK     1      18.551   5.782  30.534  1.00  0.00     0.038 A 
ENDROOT
BRANCH  11  13
HETATM   13  O2  UNK     1      17.934   7.445  32.129  1.00  0.00    -0.279 OA
BRANCH  13  14
HETATM   14  C15 UNK     1      16.654   7.918  31.780  1.00  0.00     0.263 C 
HETATM   15  O4  UNK     1      16.334   8.341  30.677  1.00  0.00    -0.265 OA
BRANCH  14  16
HETATM   16  C16 UNK     1      15.738   7.822  32.979  1.00  0.00     0.107 C 
HETATM   17  C17 UNK     1      14.344   7.357  32.596  1.00  0.00     0.015 C 
ENDBRANCH  14  16
ENDBRANCH  13  14
ENDBRANCH  11  13
BRANCH   3  18
HETATM   18  C1  UNK     1      18.931  -0.386  31.777  1.00  0.00     0.045 C 
BRANCH  18  19
HETATM   19  C3  UNK     1      20.407  -0.676  31.543  1.00  0.00     0.004 C 
BRANCH  19  20
HETATM   20  C6  UNK     1      20.588  -2.011  30.821  1.00  0.00    -0.004 C 
HETATM   21  C12 UNK     1      20.371  -1.869  29.323  1.00  0.00     0.005 C 
ENDBRANCH  19  20
ENDBRANCH  18  19
ENDBRANCH   3  18
TORSDOF 6
ENDMDL
MODEL 3
REMARK VINA RESULT:      -7.0     22.596     24.731
REMARK  6 active torsions:
REMARK  status: ('A' for Active; 'I' for Inactive)
REMARK    1  A    between atoms: C13_17  and  O2_2 
REMARK    2  A    between atoms: C15_19  and  O2_2 
REMARK    3  A    between atoms: C1_5  and  C2_6 
REMARK    4  A    between atoms: C1_5  and  C3_7 
REMARK    5  A    between atoms: C3_7  and  C6_10 
REMARK    6  A    between atoms: C15_19  and  C16_20 
ROOT
HETATM    1  O1  UNK     1      13.894   5.139   8.820  1.00  0.00    -0.274 OA
HETATM    2  O3  UNK     1      16.030   4.840   9.527  1.00  0.00    -0.259 OA
HETATM    3  C2  UNK     1      15.012   6.920  10.092  1.00  0.00     0.024 A 
HETATM    4  C4  UNK     1      13.927   7.716   9.990  1.00  0.00    -0.037 A 
HETATM    5  C5  UNK     1      12.720   7.215   9.301  1.00  0.00     0.005 A 
HETATM    6  C7  UNK     1      12.747   5.943   8.737  1.00  0.00     0.093 A 
HETATM    7  C8  UNK     1      15.039   5.562   9.473  1.00  0.00     0.295 A 
HETATM    8  C9  UNK     1      13.868   9.122  10.533  1.00  0.00     0.050 C 
HETATM    9  C10 UNK     1      11.526   7.942   9.182  1.00  0.00     0.017 A 
HETATM   10  C11 UNK     1      11.650   5.393   8.068  1.00  0.00     0.075 A 
HETATM   11  C13 UNK     1      10.479   6.134   7.957  1.00  0.00     0.082 A 
HETATM   12  C14 UNK     1      10.417   7.407   8.515  1.00  0.00     0.038 A 
ENDROOT
BRANCH  11  13
HETATM   13  O2  UNK     1       9.401   5.617   7.310  1.00  0.00    -0.279 OA
BRANCH  13  14
HETATM   14  C15 UNK     1       8.160   5.991   7.860  1.00  0.00     0.263 C 
HETATM   15  O4  UNK     1       7.471   6.927   7.476  1.00  0.00    -0.265 OA
BRANCH  14  16
HETATM   16  C16 UNK     1       7.811   5.057   8.996  1.00  0.00     0.107 C 
HETATM   17  C17 UNK     1       7.482   5.810  10.273  1.00  0.00     0.015 C 
ENDBRANCH  14  16
ENDBRANCH  13  14
ENDBRANCH  11  13
BRANCH   3  18
HETATM   18  C1  UNK     1      16.282   7.280  10.821  1.00  0.00     0.045 C 
BRANCH  18  19
HETATM   19  C3  UNK     1      17.269   7.984   9.900  1.00  0.00     0.004 C 
BRANCH  19  20
HETATM   20  C6  UNK     1      17.299   9.485  10.184  1.00  0.00    -0.004 C 
HETATM   21  C12 UNK     1      17.053  10.297   8.923  1.00  0.00     0.005 C 
ENDBRANCH  19  20
ENDBRANCH  18  19
ENDBRANCH   3  18
TORSDOF 6
ENDMDL
MODEL 4
REMARK VINA RESULT:      -7.0      1.986      2.873
REMARK  6 active torsions:
REMARK  status: ('A' for Active; 'I' for Inactive)
REMARK    1  A    between atoms: C13_17  and  O2_2 
REMARK    2  A    between atoms: C15_19  and  O2_2 
REMARK    3  A    between atoms: C1_5  and  C2_6 
REMARK    4  A    between atoms: C1_5  and  C3_7 
REMARK    5  A    between atoms: C3_7  and  C6_10 
REMARK    6  A    between atoms: C15_19  and  C16_20 
ROOT
HETATM    1  O1  UNK     1      18.644   3.845  30.254  1.00  0.00    -0.274 OA
HETATM    2  O3  UNK     1      19.031   1.909  29.135  1.00  0.00    -0.259 OA
HETATM    3  C2  UNK     1      18.645   1.714  31.479  1.00  0.00     0.024 A 
HETATM    4  C4  UNK     1      18.416   2.349  32.648  1.00  0.00    -0.037 A 
HETATM    5  C5  UNK     1      18.249   3.817  32.655  1.00  0.00     0.005 A 
HETATM    6  C7  UNK     1      18.371   4.515  31.457  1.00  0.00     0.093 A 
HETATM    7  C8  UNK     1      18.788   2.469  30.200  1.00  0.00     0.295 A 
HETATM    8  C9  UNK     1      18.332   1.646  33.979  1.00  0.00     0.050 C 
HETATM    9  C10 UNK     1      17.960   4.568  33.805  1.00  0.00     0.017 A 
HETATM   10  C11 UNK     1      18.227   5.903  31.376  1.00  0.00     0.075 A 
HETATM   11  C13 UNK     1      17.948   6.627  32.529  1.00  0.00     0.082 A 
HETATM   12  C14 UNK     1      17.813   5.959  33.743  1.00  0.00     0.038 A 
ENDROOT
BRANCH  11  13
HETATM   13  O2  UNK     1      17.805   7.977  32.471  1.00  0.00    -0.279 OA
BRANCH  13  14
HETATM   14  C15 UNK     1      16.506   8.409  32.137  1.00  0.00     0.263 C 
HETATM   15  O4  UNK     1      16.046   8.448  31.004  1.00  0.00    -0.265 OA
BRANCH  14  16
HETATM   16  C16 UNK     1      15.771   8.814  33.395  1.00  0.00     0.107 C 
HETATM   17  C17 UNK     1      14.516   7.988  33.612  1.00  0.00     0.015 C 
ENDBRANCH  14  16
ENDBRANCH  13  14
ENDBRANCH  11  13
BRANCH   3  18
HETATM   18  C1  UNK     1      18.771   0.220  31.320  1.00  0.00     0.045 C 
BRANCH  18  19
HETATM   19  C3  UNK     1      20.231  -0.210  31.262  1.00  0.00     0.004 C 
BRANCH  19  20
HETATM   20  C6  UNK     1      20.413  -1.381  30.297  1.00  0.00    -0.004 C 
HETATM   21  C12 UNK     1      20.823  -0.904  28.913  1.00  0.00     0.005 C 
ENDBRANCH  19  20
ENDBRANCH  18  19
ENDBRANCH   3  18
TORSDOF 6
ENDMDL
MODEL 5
REMARK VINA RESULT:      -7.0     22.696     24.796
REMARK  6 active torsions:
REMARK  status: ('A' for Active; 'I' for Inactive)
REMARK    1  A    between atoms: C13_17  and  O2_2 
REMARK    2  A    between atoms: C15_19  and  O2_2 
REMARK    3  A    between atoms: C1_5  and  C2_6 
REMARK    4  A    between atoms: C1_5  and  C3_7 
REMARK    5  A    between atoms: C3_7  and  C6_10 
REMARK    6  A    between atoms: C15_19  and  C16_20 
ROOT
HETATM    1  O1  UNK     1      11.343   5.066  10.022  1.00  0.00    -0.274 OA
HETATM    2  O3  UNK     1       9.098   4.851  10.267  1.00  0.00    -0.259 OA
HETATM    3  C2  UNK     1       9.848   5.817   8.222  1.00  0.00     0.024 A 
HETATM    4  C4  UNK     1      10.897   6.241   7.485  1.00  0.00    -0.037 A 
HETATM    5  C5  UNK     1      12.269   6.050   7.998  1.00  0.00     0.005 A 
HETATM    6  C7  UNK     1      12.445   5.470   9.251  1.00  0.00     0.093 A 
HETATM    7  C8  UNK     1      10.043   5.209   9.571  1.00  0.00     0.295 A 
HETATM    8  C9  UNK     1      10.758   6.925   6.148  1.00  0.00     0.050 C 
HETATM    9  C10 UNK     1      13.428   6.409   7.292  1.00  0.00     0.017 A 
HETATM   10  C11 UNK     1      13.707   5.254   9.810  1.00  0.00     0.075 A 
HETATM   11  C13 UNK     1      14.841   5.623   9.096  1.00  0.00     0.082 A 
HETATM   12  C14 UNK     1      14.701   6.200   7.837  1.00  0.00     0.038 A 
ENDROOT
BRANCH  11  13
HETATM   13  O2  UNK     1      16.078   5.421   9.622  1.00  0.00    -0.279 OA
BRANCH  13  14
HETATM   14  C15 UNK     1      16.787   6.604   9.908  1.00  0.00     0.263 C 
HETATM   15  O4  UNK     1      17.861   6.919   9.415  1.00  0.00    -0.265 OA
BRANCH  14  16
HETATM   16  C16 UNK     1      16.014   7.422  10.918  1.00  0.00     0.107 C 
HETATM   17  C17 UNK     1      16.083   8.909  10.619  1.00  0.00     0.015 C 
ENDBRANCH  14  16
ENDBRANCH  13  14
ENDBRANCH  11  13
BRANCH   3  18
HETATM   18  C1  UNK     1       8.405   5.892   7.791  1.00  0.00     0.045 C 
BRANCH  18  19
HETATM   19  C3  UNK     1       7.849   7.300   7.958  1.00  0.00     0.004 C 
BRANCH  19  20
HETATM   20  C6  UNK     1       7.113   7.436   9.291  1.00  0.00    -0.004 C 
HETATM   21  C12 UNK     1       7.881   8.316  10.265  1.00  0.00     0.005 C 
ENDBRANCH  19  20
ENDBRANCH  18  19
ENDBRANCH   3  18
TORSDOF 6
ENDMDL
MODEL 6
REMARK VINA RESULT:      -7.0      1.708      7.127
REMARK  6 active torsions:
REMARK  status: ('A' for Active; 'I' for Inactive)
REMARK    1  A    between atoms: C13_17  and  O2_2 
REMARK    2  A    between atoms: C15_19  and  O2_2 
REMARK    3  A    between atoms: C1_5  and  C2_6 
REMARK    4  A    between atoms: C1_5  and  C3_7 
REMARK    5  A    between atoms: C3_7  and  C6_10 
REMARK    6  A    between atoms: C15_19  and  C16_20 
ROOT
HETATM    1  O1  UNK     1      17.873   3.967  33.474  1.00  0.00    -0.274 OA
HETATM    2  O3  UNK     1      17.335   5.930  34.478  1.00  0.00    -0.259 OA
HETATM    3  C2  UNK     1      17.942   6.054  32.177  1.00  0.00     0.024 A 
HETATM    4  C4  UNK     1      18.366   5.393  31.078  1.00  0.00    -0.037 A 
HETATM    5  C5  UNK     1      18.531   3.926  31.132  1.00  0.00     0.005 A 
HETATM    6  C7  UNK     1      18.280   3.264  32.330  1.00  0.00     0.093 A 
HETATM    7  C8  UNK     1      17.687   5.339  33.462  1.00  0.00     0.295 A 
HETATM    8  C9  UNK     1      18.705   6.071  29.774  1.00  0.00     0.050 C 
HETATM    9  C10 UNK     1      18.920   3.140  30.036  1.00  0.00     0.017 A 
HETATM   10  C11 UNK     1      18.412   1.879  32.467  1.00  0.00     0.075 A 
HETATM   11  C13 UNK     1      18.804   1.121  31.369  1.00  0.00     0.082 A 
HETATM   12  C14 UNK     1      19.056   1.751  30.155  1.00  0.00     0.038 A 
ENDROOT
BRANCH  11  13
HETATM   13  O2  UNK     1      18.938  -0.227  31.482  1.00  0.00    -0.279 OA
BRANCH  13  14
HETATM   14  C15 UNK     1      20.162  -0.731  31.001  1.00  0.00     0.263 C 
HETATM   15  O4  UNK     1      21.263  -0.477  31.472  1.00  0.00    -0.265 OA
BRANCH  14  16
HETATM   16  C16 UNK     1      19.905  -1.632  29.815  1.00  0.00     0.107 C 
HETATM   17  C17 UNK     1      20.299  -0.977  28.504  1.00  0.00     0.015 C 
ENDBRANCH  14  16
ENDBRANCH  13  14
ENDBRANCH  11  13
BRANCH   3  18
HETATM   18  C1  UNK     1      17.671   7.536  32.241  1.00  0.00     0.045 C 
BRANCH  18  19
HETATM   19  C3  UNK     1      16.440   7.909  31.426  1.00  0.00     0.004 C 
BRANCH  19  20
HETATM   20  C6  UNK     1      15.170   7.376  32.090  1.00  0.00    -0.004 C 
HETATM   21  C12 UNK     1      14.821   8.165  33.341  1.00  0.00     0.005 C 
ENDBRANCH  19  20
ENDBRANCH  18  19
ENDBRANCH   3  18
TORSDOF 6
ENDMDL
MODEL 7
REMARK VINA RESULT:      -7.0      2.268      7.883
REMARK  6 active torsions:
REMARK  status: ('A' for Active; 'I' for Inactive)
REMARK    1  A    between atoms: C13_17  and  O2_2 
REMARK    2  A    between atoms: C15_19  and  O2_2 
REMARK    3  A    between atoms: C1_5  and  C2_6 
REMARK    4  A    between atoms: C1_5  and  C3_7 
REMARK    5  A    between atoms: C3_7  and  C6_10 
REMARK    6  A    between atoms: C15_19  and  C16_20 
ROOT
HETATM    1  O1  UNK     1      16.064   6.404  32.582  1.00  0.00    -0.274 OA
HETATM    2  O3  UNK     1      14.494   7.619  33.680  1.00  0.00    -0.259 OA
HETATM    3  C2  UNK     1      16.754   8.323  33.953  1.00  0.00     0.024 A 
HETATM    4  C4  UNK     1      18.055   8.094  33.676  1.00  0.00    -0.037 A 
HETATM    5  C5  UNK     1      18.420   6.984  32.772  1.00  0.00     0.005 A 
HETATM    6  C7  UNK     1      17.411   6.175  32.258  1.00  0.00     0.093 A 
HETATM    7  C8  UNK     1      15.678   7.444  33.409  1.00  0.00     0.295 A 
HETATM    8  C9  UNK     1      19.189   8.905  34.252  1.00  0.00     0.050 C 
HETATM    9  C10 UNK     1      19.736   6.689  32.382  1.00  0.00     0.017 A 
HETATM   10  C11 UNK     1      17.669   5.104  31.397  1.00  0.00     0.075 A 
HETATM   11  C13 UNK     1      18.981   4.828  31.029  1.00  0.00     0.082 A 
HETATM   12  C14 UNK     1      20.013   5.621  31.520  1.00  0.00     0.038 A 
ENDROOT
BRANCH  11  13
HETATM   13  O2  UNK     1      19.252   3.791  30.192  1.00  0.00    -0.279 OA
BRANCH  13  14
HETATM   14  C15 UNK     1      18.506   2.626  30.452  1.00  0.00     0.263 C 
HETATM   15  O4  UNK     1      18.362   2.110  31.552  1.00  0.00    -0.265 OA
BRANCH  14  16
HETATM   16  C16 UNK     1      17.909   2.113  29.161  1.00  0.00     0.107 C 
HETATM   17  C17 UNK     1      18.622   0.871  28.656  1.00  0.00     0.015 C 
ENDBRANCH  14  16
ENDBRANCH  13  14
ENDBRANCH  11  13
BRANCH   3  18
HETATM   18  C1  UNK     1      16.241   9.457  34.805  1.00  0.00     0.045 C 
BRANCH  18  19
HETATM   19  C3  UNK     1      16.068  10.730  33.986  1.00  0.00     0.004 C 
BRANCH  19  20
HETATM   20  C6  UNK     1      16.723  11.918  34.691  1.00  0.00    -0.004 C 
HETATM   21  C12 UNK     1      17.994  12.356  33.982  1.00  0.00     0.005 C 
ENDBRANCH  19  20
ENDBRANCH  18  19
ENDBRANCH   3  18
TORSDOF 6
ENDMDL
MODEL 8
REMARK VINA RESULT:      -6.9     14.063     18.164
REMARK  6 active torsions:
REMARK  status: ('A' for Active; 'I' for Inactive)
REMARK    1  A    between atoms: C13_17  and  O2_2 
REMARK    2  A    between atoms: C15_19  and  O2_2 
REMARK    3  A    between atoms: C1_5  and  C2_6 
REMARK    4  A    between atoms: C1_5  and  C3_7 
REMARK    5  A    between atoms: C3_7  and  C6_10 
REMARK    6  A    between atoms: C15_19  and  C16_20 
ROOT
HETATM    1  O1  UNK     1      19.316   1.470  15.291  1.00  0.00    -0.274 OA
HETATM    2  O3  UNK     1      19.477   3.545  16.194  1.00  0.00    -0.259 OA
HETATM    3  C2  UNK     1      19.081   1.758  17.720  1.00  0.00     0.024 A 
HETATM    4  C4  UNK     1      18.859   0.437  17.887  1.00  0.00    -0.037 A 
HETATM    5  C5  UNK     1      18.896  -0.460  16.713  1.00  0.00     0.005 A 
HETATM    6  C7  UNK     1      19.122   0.089  15.454  1.00  0.00     0.093 A 
HETATM    7  C8  UNK     1      19.309   2.342  16.366  1.00  0.00     0.295 A 
HETATM    8  C9  UNK     1      18.554  -0.198  19.220  1.00  0.00     0.050 C 
HETATM    9  C10 UNK     1      18.727  -1.851  16.783  1.00  0.00     0.017 A 
HETATM   10  C11 UNK     1      19.172  -0.687  14.292  1.00  0.00     0.075 A 
HETATM   11  C13 UNK     1      18.996  -2.062  14.385  1.00  0.00     0.082 A 
HETATM   12  C14 UNK     1      18.775  -2.644  15.630  1.00  0.00     0.038 A 
ENDROOT
BRANCH  11  13
HETATM   13  O2  UNK     1      19.041  -2.835  13.267  1.00  0.00    -0.279 OA
BRANCH  13  14
HETATM   14  C15 UNK     1      20.338  -3.239  12.894  1.00  0.00     0.263 C 
HETATM   15  O4  UNK     1      21.034  -4.033  13.513  1.00  0.00    -0.265 OA
BRANCH  14  16
HETATM   16  C16 UNK     1      20.734  -2.542  11.613  1.00  0.00     0.107 C 
HETATM   17  C17 UNK     1      19.750  -2.813  10.488  1.00  0.00     0.015 C 
ENDBRANCH  14  16
ENDBRANCH  13  14
ENDBRANCH  11  13
BRANCH   3  18
HETATM   18  C1  UNK     1      19.135   2.771  18.835  1.00  0.00     0.045 C 
BRANCH  18  19
HETATM   19  C3  UNK     1      20.566   3.005  19.302  1.00  0.00     0.004 C 
BRANCH  19  20
HETATM   20  C6  UNK     1      20.822   2.299  20.634  1.00  0.00    -0.004 C 
HETATM   21  C12 UNK     1      19.554   2.200  21.465  1.00  0.00     0.005 C 
ENDBRANCH  19  20
ENDBRANCH  18  19
ENDBRANCH   3  18
TORSDOF 6
ENDMDL
MODEL 9
REMARK VINA RESULT:      -6.9      3.174      7.160
REMARK  6 active torsions:
REMARK  status: ('A' for Active; 'I' for Inactive)
REMARK    1  A    between atoms: C13_17  and  O2_2 
REMARK    2  A    between atoms: C15_19  and  O2_2 
REMARK    3  A    between atoms: C1_5  and  C2_6 
REMARK    4  A    between atoms: C1_5  and  C3_7 
REMARK    5  A    between atoms: C3_7  and  C6_10 
REMARK    6  A    between atoms: C15_19  and  C16_20 
ROOT
HETATM    1  O1  UNK     1      18.663   0.912  31.531  1.00  0.00    -0.274 OA
HETATM    2  O3  UNK     1      18.678   2.153  29.631  1.00  0.00    -0.259 OA
HETATM    3  C2  UNK     1      18.383   3.350  31.671  1.00  0.00     0.024 A 
HETATM    4  C4  UNK     1      18.246   3.289  33.012  1.00  0.00    -0.037 A 
HETATM    5  C5  UNK     1      18.354   1.983  33.695  1.00  0.00     0.005 A 
HETATM    6  C7  UNK     1      18.557   0.839  32.929  1.00  0.00     0.093 A 
HETATM    7  C8  UNK     1      18.587   2.117  30.855  1.00  0.00     0.295 A 
HETATM    8  C9  UNK     1      17.969   4.491  33.880  1.00  0.00     0.050 C 
HETATM    9  C10 UNK     1      18.275   1.815  35.086  1.00  0.00     0.017 A 
HETATM   10  C11 UNK     1      18.671  -0.435  33.494  1.00  0.00     0.075 A 
HETATM   11  C13 UNK     1      18.583  -0.578  34.874  1.00  0.00     0.082 A 
HETATM   12  C14 UNK     1      18.387   0.547  35.669  1.00  0.00     0.038 A 
ENDROOT
BRANCH  11  13
HETATM   13  O2  UNK     1      18.691  -1.808  35.443  1.00  0.00    -0.279 OA
BRANCH  13  14
HETATM   14  C15 UNK     1      19.957  -2.082  35.995  1.00  0.00     0.263 C 
HETATM   15  O4  UNK     1      21.028  -1.760  35.498  1.00  0.00    -0.265 OA
BRANCH  14  16
HETATM   16  C16 UNK     1      19.787  -2.833  37.296  1.00  0.00     0.107 C 
HETATM   17  C17 UNK     1      20.456  -4.196  37.260  1.00  0.00     0.015 C 
ENDBRANCH  14  16
ENDBRANCH  13  14
ENDBRANCH  11  13
BRANCH   3  18
HETATM   18  C1  UNK     1      18.359   4.620  30.858  1.00  0.00     0.045 C 
BRANCH  18  19
HETATM   19  C3  UNK     1      19.739   5.259  30.790  1.00  0.00     0.004 C 
BRANCH  19  20
HETATM   20  C6  UNK     1      19.828   6.457  31.736  1.00  0.00    -0.004 C 
HETATM   21  C12 UNK     1      20.983   6.311  32.713  1.00  0.00     0.005 C 
ENDBRANCH  19  20
ENDBRANCH  18  19
ENDBRANCH   3  18
TORSDOF 6
ENDMDL
MODEL 10
REMARK VINA RESULT:      -6.9     14.679     17.352
REMARK  6 active torsions:
REMARK  status: ('A' for Active; 'I' for Inactive)
REMARK    1  A    between atoms: C13_17  and  O2_2 
REMARK    2  A    between atoms: C15_19  and  O2_2 
REMARK    3  A    between atoms: C1_5  and  C2_6 
REMARK    4  A    between atoms: C1_5  and  C3_7 
REMARK    5  A    between atoms: C3_7  and  C6_10 
REMARK    6  A    between atoms: C15_19  and  C16_20 
ROOT
HETATM    1  O1  UNK     1      32.228  -7.108  37.759  1.00  0.00    -0.274 OA
HETATM    2  O3  UNK     1      34.247  -7.705  36.911  1.00  0.00    -0.259 OA
HETATM    3  C2  UNK     1      33.573  -5.448  36.544  1.00  0.00     0.024 A 
HETATM    4  C4  UNK     1      32.613  -4.512  36.699  1.00  0.00    -0.037 A 
HETATM    5  C5  UNK     1      31.388  -4.845  37.455  1.00  0.00     0.005 A 
HETATM    6  C7  UNK     1      31.237  -6.133  37.957  1.00  0.00     0.093 A 
HETATM    7  C8  UNK     1      33.399  -6.833  37.074  1.00  0.00     0.295 A 
HETATM    8  C9  UNK     1      32.703  -3.120  36.126  1.00  0.00     0.050 C 
HETATM    9  C10 UNK     1      30.354  -3.932  37.714  1.00  0.00     0.017 A 
HETATM   10  C11 UNK     1      30.111  -6.532  38.683  1.00  0.00     0.075 A 
HETATM   11  C13 UNK     1      29.095  -5.613  38.922  1.00  0.00     0.082 A 
HETATM   12  C14 UNK     1      29.218  -4.314  38.439  1.00  0.00     0.038 A 
ENDROOT
BRANCH  11  13
HETATM   13  O2  UNK     1      27.992  -5.980  39.625  1.00  0.00    -0.279 OA
BRANCH  13  14
HETATM   14  C15 UNK     1      26.810  -6.040  38.861  1.00  0.00     0.263 C 
HETATM   15  O4  UNK     1      26.023  -5.115  38.707  1.00  0.00    -0.265 OA
BRANCH  14  16
HETATM   16  C16 UNK     1      26.668  -7.420  38.261  1.00  0.00     0.107 C 
HETATM   17  C17 UNK     1      26.905  -8.515  39.286  1.00  0.00     0.015 C 
ENDBRANCH  14  16
ENDBRANCH  13  14
ENDBRANCH  11  13
BRANCH   3  18
HETATM   18  C1  UNK     1      34.894  -5.224  35.854  1.00  0.00     0.045 C 
BRANCH  18  19
HETATM   19  C3  UNK     1      34.757  -5.349  34.342  1.00  0.00     0.004 C 
BRANCH  19  20
HETATM   20  C6  UNK     1      35.488  -6.591  33.833  1.00  0.00    -0.004 C 
HETATM   21  C12 UNK     1      36.677  -6.938  34.715  1.00  0.00     0.005 C 
ENDBRANCH  19  20
ENDBRANCH  18  19
ENDBRANCH   3  18
TORSDOF 6
ENDMDL
