MODEL 1
REMARK VINA RESULT:      -8.8      0.000      0.000
REMARK  3 active torsions:
REMARK  status: ('A' for Active; 'I' for Inactive)
REMARK    1  A    between atoms: C7_13  and  O2_2 
REMARK    2  A    between atoms: C5_11  and  N1_5 
REMARK       I    between atoms: C6_12  and  N2_6 
REMARK    3  A    between atoms: C6_12  and  C8_14 
ROOT
HETATM    1  O1  UNK     1       9.574   5.462   7.053  1.00  0.00    -0.267 OA
HETATM    2  N1  UNK     1      13.234   8.134   8.795  1.00  0.00    -0.376 N 
HETATM    3  N2  UNK     1      10.650   7.224   8.121  1.00  0.00    -0.345 N 
HETATM    4  C1  UNK     1      13.055   7.251   7.629  1.00  0.00     0.143 C 
HETATM    5  C2  UNK     1      12.203   8.045   9.840  1.00  0.00     0.143 C 
HETATM    6  C3  UNK     1      11.642   7.391   7.063  1.00  0.00     0.146 C 
HETATM    7  C4  UNK     1      10.812   8.179   9.221  1.00  0.00     0.146 C 
HETATM    8  C6  UNK     1       9.670   6.244   8.001  1.00  0.00     0.260 C 
ENDROOT
BRANCH   8   9
HETATM    9  C8  UNK     1       8.677   6.126   9.087  1.00  0.00     0.108 A 
HETATM   10  C10 UNK     1       7.798   7.130   9.195  1.00  0.00     0.037 A 
HETATM   11  C14 UNK     1       6.780   7.105  10.234  1.00  0.00    -0.001 A 
HETATM   12  C16 UNK     1       6.738   6.023  11.108  1.00  0.00     0.089 A 
HETATM   13  C17 UNK     1       5.844   8.130  10.385  1.00  0.00     0.014 A 
HETATM   14  O3  UNK     1       7.665   4.969  10.988  1.00  0.00    -0.274 OA
HETATM   15  C18 UNK     1       5.789   5.938  12.125  1.00  0.00     0.038 A 
HETATM   16  C13 UNK     1       8.650   4.966  10.004  1.00  0.00     0.304 A 
HETATM   17  O4  UNK     1       9.453   4.044   9.908  1.00  0.00    -0.259 OA
HETATM   18  C21 UNK     1       4.859   6.964  12.268  1.00  0.00     0.003 A 
HETATM   19  C20 UNK     1       4.886   8.058  11.400  1.00  0.00     0.001 A 
ENDBRANCH   8   9
BRANCH   2  20
HETATM   20  C5  UNK     1      14.542   8.490   9.146  1.00  0.00     0.064 A 
HETATM   21  C7  UNK     1      15.342   7.675   9.983  1.00  0.00     0.094 A 
HETATM   22  C11 UNK     1      16.645   8.041  10.325  1.00  0.00     0.039 A 
HETATM   23  C15 UNK     1      17.184   9.232   9.839  1.00  0.00     0.003 A 
HETATM   24  C12 UNK     1      16.422  10.057   9.011  1.00  0.00     0.002 A 
HETATM   25  C9  UNK     1      15.121   9.691   8.670  1.00  0.00     0.032 A 
BRANCH  21  26
HETATM   26  O2  UNK     1      14.833   6.507  10.468  1.00  0.00    -0.354 OA
HETATM   27  C19 UNK     1      15.341   5.298   9.908  1.00  0.00     0.210 C 
ENDBRANCH  21  26
ENDBRANCH   2  20
TORSDOF 3
ENDMDL
MODEL 2
REMARK VINA RESULT:      -8.8     26.755     28.915
REMARK  3 active torsions:
REMARK  status: ('A' for Active; 'I' for Inactive)
REMARK    1  A    between atoms: C7_13  and  O2_2 
REMARK    2  A    between atoms: C5_11  and  N1_5 
REMARK       I    between atoms: C6_12  and  N2_6 
REMARK    3  A    between atoms: C6_12  and  C8_14 
ROOT
HETATM    1  O1  UNK     1      17.917  -2.968  36.868  1.00  0.00    -0.267 OA
HETATM    2  N1  UNK     1      19.675  -1.278  32.671  1.00  0.00    -0.376 N 
HETATM    3  N2  UNK     1      19.489  -2.267  35.307  1.00  0.00    -0.345 N 
HETATM    4  C1  UNK     1      18.441  -1.056  33.445  1.00  0.00     0.143 C 
HETATM    5  C2  UNK     1      20.492  -2.434  33.070  1.00  0.00     0.143 C 
HETATM    6  C3  UNK     1      18.740  -1.066  34.944  1.00  0.00     0.146 C 
HETATM    7  C4  UNK     1      20.752  -2.403  34.575  1.00  0.00     0.146 C 
HETATM    8  C6  UNK     1      18.987  -3.126  36.278  1.00  0.00     0.260 C 
ENDROOT
BRANCH   8   9
HETATM    9  C8  UNK     1      19.790  -4.316  36.626  1.00  0.00     0.108 A 
HETATM   10  C10 UNK     1      19.441  -5.460  36.026  1.00  0.00     0.037 A 
HETATM   11  C14 UNK     1      20.173  -6.687  36.304  1.00  0.00    -0.001 A 
HETATM   12  C16 UNK     1      21.236  -6.647  37.201  1.00  0.00     0.089 A 
HETATM   13  C17 UNK     1      19.844  -7.903  35.701  1.00  0.00     0.014 A 
HETATM   14  O3  UNK     1      21.598  -5.440  37.828  1.00  0.00    -0.274 OA
HETATM   15  C18 UNK     1      21.976  -7.786  37.511  1.00  0.00     0.038 A 
HETATM   16  C13 UNK     1      20.917  -4.250  37.582  1.00  0.00     0.304 A 
HETATM   17  O4  UNK     1      21.240  -3.204  38.134  1.00  0.00    -0.259 OA
HETATM   18  C21 UNK     1      21.642  -8.995  36.906  1.00  0.00     0.003 A 
HETATM   19  C20 UNK     1      20.578  -9.054  36.003  1.00  0.00     0.001 A 
ENDBRANCH   8   9
BRANCH   2  20
HETATM   20  C5  UNK     1      19.692  -0.848  31.338  1.00  0.00     0.064 A 
HETATM   21  C7  UNK     1      19.238   0.438  30.958  1.00  0.00     0.094 A 
HETATM   22  C11 UNK     1      19.261   0.853  29.627  1.00  0.00     0.039 A 
HETATM   23  C15 UNK     1      19.738  -0.005  28.637  1.00  0.00     0.003 A 
HETATM   24  C12 UNK     1      20.193  -1.279  28.978  1.00  0.00     0.002 A 
HETATM   25  C9  UNK     1      20.170  -1.694  30.308  1.00  0.00     0.032 A 
BRANCH  21  26
HETATM   26  O2  UNK     1      18.768   1.292  31.912  1.00  0.00    -0.354 OA
HETATM   27  C19 UNK     1      18.342   2.581  31.472  1.00  0.00     0.210 C 
ENDBRANCH  21  26
ENDBRANCH   2  20
TORSDOF 3
ENDMDL
MODEL 3
REMARK VINA RESULT:      -8.7     33.593     35.396
REMARK  3 active torsions:
REMARK  status: ('A' for Active; 'I' for Inactive)
REMARK    1  A    between atoms: C7_13  and  O2_2 
REMARK    2  A    between atoms: C5_11  and  N1_5 
REMARK       I    between atoms: C6_12  and  N2_6 
REMARK    3  A    between atoms: C6_12  and  C8_14 
ROOT
HETATM    1  O1  UNK     1      27.584 -10.268  38.936  1.00  0.00    -0.267 OA
HETATM    2  N1  UNK     1      30.151  -6.907  36.553  1.00  0.00    -0.376 N 
HETATM    3  N2  UNK     1      28.325  -8.972  37.155  1.00  0.00    -0.345 N 
HETATM    4  C1  UNK     1      30.417  -7.803  37.692  1.00  0.00     0.143 C 
HETATM    5  C2  UNK     1      28.743  -6.768  36.152  1.00  0.00     0.143 C 
HETATM    6  C3  UNK     1      29.738  -9.156  37.479  1.00  0.00     0.146 C 
HETATM    7  C4  UNK     1      28.109  -8.146  35.964  1.00  0.00     0.146 C 
HETATM    8  C6  UNK     1      27.352  -9.579  37.941  1.00  0.00     0.260 C 
ENDROOT
BRANCH   8   9
HETATM    9  C8  UNK     1      25.939  -9.382  37.562  1.00  0.00     0.108 A 
HETATM   10  C10 UNK     1      25.376 -10.363  36.847  1.00  0.00     0.037 A 
HETATM   11  C14 UNK     1      23.988 -10.260  36.425  1.00  0.00    -0.001 A 
HETATM   12  C16 UNK     1      23.259  -9.128  36.779  1.00  0.00     0.089 A 
HETATM   13  C17 UNK     1      23.360 -11.259  35.678  1.00  0.00     0.014 A 
HETATM   14  O3  UNK     1      23.857  -8.100  37.532  1.00  0.00    -0.274 OA
HETATM   15  C18 UNK     1      21.927  -8.967  36.407  1.00  0.00     0.038 A 
HETATM   16  C13 UNK     1      25.184  -8.170  37.949  1.00  0.00     0.304 A 
HETATM   17  O4  UNK     1      25.696  -7.269  38.605  1.00  0.00    -0.259 OA
HETATM   18  C21 UNK     1      21.308  -9.968  35.661  1.00  0.00     0.003 A 
HETATM   19  C20 UNK     1      22.022 -11.112  35.298  1.00  0.00     0.001 A 
ENDBRANCH   8   9
BRANCH   2  20
HETATM   20  C5  UNK     1      31.036  -5.842  36.344  1.00  0.00     0.064 A 
HETATM   21  C7  UNK     1      30.815  -4.562  36.906  1.00  0.00     0.094 A 
HETATM   22  C11 UNK     1      31.705  -3.509  36.690  1.00  0.00     0.039 A 
HETATM   23  C15 UNK     1      32.841  -3.706  35.906  1.00  0.00     0.003 A 
HETATM   24  C12 UNK     1      33.088  -4.956  35.338  1.00  0.00     0.002 A 
HETATM   25  C9  UNK     1      32.198  -6.008  35.553  1.00  0.00     0.032 A 
BRANCH  21  26
HETATM   26  O2  UNK     1      29.710  -4.348  37.676  1.00  0.00    -0.354 OA
HETATM   27  C19 UNK     1      29.905  -4.296  39.088  1.00  0.00     0.210 C 
ENDBRANCH  21  26
ENDBRANCH   2  20
TORSDOF 3
ENDMDL
MODEL 4
REMARK VINA RESULT:      -8.7     28.532     30.763
REMARK  3 active torsions:
REMARK  status: ('A' for Active; 'I' for Inactive)
REMARK    1  A    between atoms: C7_13  and  O2_2 
REMARK    2  A    between atoms: C5_11  and  N1_5 
REMARK       I    between atoms: C6_12  and  N2_6 
REMARK    3  A    between atoms: C6_12  and  C8_14 
ROOT
HETATM    1  O1  UNK     1      20.857  -2.651  37.652  1.00  0.00    -0.267 OA
HETATM    2  N1  UNK     1      20.416  -7.338  36.465  1.00  0.00    -0.376 N 
HETATM    3  N2  UNK     1      19.884  -4.590  36.817  1.00  0.00    -0.345 N 
HETATM    4  C1  UNK     1      21.093  -6.599  37.545  1.00  0.00     0.143 C 
HETATM    5  C2  UNK     1      19.957  -6.537  35.320  1.00  0.00     0.143 C 
HETATM    6  C3  UNK     1      20.256  -5.396  37.977  1.00  0.00     0.146 C 
HETATM    7  C4  UNK     1      19.137  -5.343  35.806  1.00  0.00     0.146 C 
HETATM    8  C6  UNK     1      20.227  -3.242  36.773  1.00  0.00     0.260 C 
ENDROOT
BRANCH   8   9
HETATM    9  C8  UNK     1      19.812  -2.464  35.589  1.00  0.00     0.108 A 
HETATM   10  C10 UNK     1      20.487  -2.702  34.459  1.00  0.00     0.037 A 
HETATM   11  C14 UNK     1      20.151  -1.985  33.239  1.00  0.00    -0.001 A 
HETATM   12  C16 UNK     1      19.120  -1.051  33.270  1.00  0.00     0.089 A 
HETATM   13  C17 UNK     1      20.829  -2.201  32.037  1.00  0.00     0.014 A 
HETATM   14  O3  UNK     1      18.413  -0.806  34.462  1.00  0.00    -0.274 OA
HETATM   15  C18 UNK     1      18.749  -0.330  32.137  1.00  0.00     0.038 A 
HETATM   16  C13 UNK     1      18.711  -1.477  35.645  1.00  0.00     0.304 A 
HETATM   17  O4  UNK     1      18.090  -1.256  36.679  1.00  0.00    -0.259 OA
HETATM   18  C21 UNK     1      19.430  -0.552  30.942  1.00  0.00     0.003 A 
HETATM   19  C20 UNK     1      20.467  -1.485  30.892  1.00  0.00     0.001 A 
ENDBRANCH   8   9
BRANCH   2  20
HETATM   20  C5  UNK     1      20.776  -8.677  36.270  1.00  0.00     0.064 A 
HETATM   21  C7  UNK     1      20.329  -9.707  37.131  1.00  0.00     0.094 A 
HETATM   22  C11 UNK     1      20.694 -11.038  36.926  1.00  0.00     0.039 A 
HETATM   23  C15 UNK     1      21.517 -11.377  35.852  1.00  0.00     0.003 A 
HETATM   24  C12 UNK     1      21.975 -10.385  34.984  1.00  0.00     0.002 A 
HETATM   25  C9  UNK     1      21.610  -9.055  35.190  1.00  0.00     0.032 A 
BRANCH  21  26
HETATM   26  O2  UNK     1      19.522  -9.397  38.187  1.00  0.00    -0.354 OA
HETATM   27  C19 UNK     1      20.072  -9.566  39.492  1.00  0.00     0.210 C 
ENDBRANCH  21  26
ENDBRANCH   2  20
TORSDOF 3
ENDMDL
MODEL 5
REMARK VINA RESULT:      -8.6     33.684     35.462
REMARK  3 active torsions:
REMARK  status: ('A' for Active; 'I' for Inactive)
REMARK    1  A    between atoms: C7_13  and  O2_2 
REMARK    2  A    between atoms: C5_11  and  N1_5 
REMARK       I    between atoms: C6_12  and  N2_6 
REMARK    3  A    between atoms: C6_12  and  C8_14 
ROOT
HETATM    1  O1  UNK     1      27.738 -10.285  38.938  1.00  0.00    -0.267 OA
HETATM    2  N1  UNK     1      30.290  -6.950  36.503  1.00  0.00    -0.376 N 
HETATM    3  N2  UNK     1      28.467  -9.006  37.139  1.00  0.00    -0.345 N 
HETATM    4  C1  UNK     1      30.564  -7.835  37.648  1.00  0.00     0.143 C 
HETATM    5  C2  UNK     1      28.879  -6.812  36.112  1.00  0.00     0.143 C 
HETATM    6  C3  UNK     1      29.881  -9.189  37.454  1.00  0.00     0.146 C 
HETATM    7  C4  UNK     1      28.241  -8.191  35.943  1.00  0.00     0.146 C 
HETATM    8  C6  UNK     1      27.499  -9.604  37.939  1.00  0.00     0.260 C 
ENDROOT
BRANCH   8   9
HETATM    9  C8  UNK     1      26.083  -9.408  37.569  1.00  0.00     0.108 A 
HETATM   10  C10 UNK     1      25.514 -10.394  36.866  1.00  0.00     0.037 A 
HETATM   11  C14 UNK     1      24.122 -10.293  36.455  1.00  0.00    -0.001 A 
HETATM   12  C16 UNK     1      23.398  -9.158  36.805  1.00  0.00     0.089 A 
HETATM   13  C17 UNK     1      23.487 -11.297  35.720  1.00  0.00     0.014 A 
HETATM   14  O3  UNK     1      24.003  -8.124  37.546  1.00  0.00    -0.274 OA
HETATM   15  C18 UNK     1      22.062  -8.999  36.443  1.00  0.00     0.038 A 
HETATM   16  C13 UNK     1      25.332  -8.193  37.954  1.00  0.00     0.304 A 
HETATM   17  O4  UNK     1      25.850  -7.287  38.598  1.00  0.00    -0.259 OA
HETATM   18  C21 UNK     1      21.437 -10.004  35.710  1.00  0.00     0.003 A 
HETATM   19  C20 UNK     1      22.147 -11.151  35.349  1.00  0.00     0.001 A 
ENDBRANCH   8   9
BRANCH   2  20
HETATM   20  C5  UNK     1      31.175  -5.887  36.277  1.00  0.00     0.064 A 
HETATM   21  C7  UNK     1      32.297  -6.015  35.424  1.00  0.00     0.094 A 
HETATM   22  C11 UNK     1      33.171  -4.949  35.206  1.00  0.00     0.039 A 
HETATM   23  C15 UNK     1      32.947  -3.725  35.836  1.00  0.00     0.003 A 
HETATM   24  C12 UNK     1      31.849  -3.566  36.682  1.00  0.00     0.002 A 
HETATM   25  C9  UNK     1      30.977  -4.632  36.899  1.00  0.00     0.032 A 
BRANCH  21  26
HETATM   26  O2  UNK     1      32.534  -7.204  34.799  1.00  0.00    -0.354 OA
HETATM   27  C19 UNK     1      33.669  -7.950  35.235  1.00  0.00     0.210 C 
ENDBRANCH  21  26
ENDBRANCH   2  20
TORSDOF 3
ENDMDL
MODEL 6
REMARK VINA RESULT:      -8.6     34.254     36.654
REMARK  3 active torsions:
REMARK  status: ('A' for Active; 'I' for Inactive)
REMARK    1  A    between atoms: C7_13  and  O2_2 
REMARK    2  A    between atoms: C5_11  and  N1_5 
REMARK       I    between atoms: C6_12  and  N2_6 
REMARK    3  A    between atoms: C6_12  and  C8_14 
ROOT
HETATM    1  O1  UNK     1      28.768  -5.970  39.823  1.00  0.00    -0.267 OA
HETATM    2  N1  UNK     1      26.046  -8.837  37.006  1.00  0.00    -0.376 N 
HETATM    3  N2  UNK     1      27.790  -6.802  37.885  1.00  0.00    -0.345 N 
HETATM    4  C1  UNK     1      25.943  -8.338  38.389  1.00  0.00     0.143 C 
HETATM    5  C2  UNK     1      27.353  -8.672  36.353  1.00  0.00     0.143 C 
HETATM    6  C3  UNK     1      26.460  -6.903  38.481  1.00  0.00     0.146 C 
HETATM    7  C4  UNK     1      27.830  -7.226  36.483  1.00  0.00     0.146 C 
HETATM    8  C6  UNK     1      28.851  -6.316  38.643  1.00  0.00     0.260 C 
ENDROOT
BRANCH   8   9
HETATM    9  C8  UNK     1      30.172  -6.213  37.992  1.00  0.00     0.108 A 
HETATM   10  C10 UNK     1      30.499  -5.010  37.507  1.00  0.00     0.037 A 
HETATM   11  C14 UNK     1      31.780  -4.808  36.848  1.00  0.00    -0.001 A 
HETATM   12  C16 UNK     1      32.654  -5.885  36.732  1.00  0.00     0.089 A 
HETATM   13  C17 UNK     1      32.163  -3.570  36.326  1.00  0.00     0.014 A 
HETATM   14  O3  UNK     1      32.304  -7.148  37.246  1.00  0.00    -0.274 OA
HETATM   15  C18 UNK     1      33.895  -5.759  36.112  1.00  0.00     0.038 A 
HETATM   16  C13 UNK     1      31.086  -7.372  37.882  1.00  0.00     0.304 A 
HETATM   17  O4  UNK     1      30.790  -8.476  38.325  1.00  0.00    -0.259 OA
HETATM   18  C21 UNK     1      34.269  -4.521  35.594  1.00  0.00     0.003 A 
HETATM   19  C20 UNK     1      33.406  -3.429  35.701  1.00  0.00     0.001 A 
ENDBRANCH   8   9
BRANCH   2  20
HETATM   20  C5  UNK     1      25.221  -9.908  36.639  1.00  0.00     0.064 A 
HETATM   21  C7  UNK     1      23.827  -9.750  36.448  1.00  0.00     0.094 A 
HETATM   22  C11 UNK     1      23.017 -10.824  36.081  1.00  0.00     0.039 A 
HETATM   23  C15 UNK     1      23.577 -12.088  35.894  1.00  0.00     0.003 A 
HETATM   24  C12 UNK     1      24.948 -12.277  36.074  1.00  0.00     0.002 A 
HETATM   25  C9  UNK     1      25.757 -11.203  36.441  1.00  0.00     0.032 A 
BRANCH  21  26
HETATM   26  O2  UNK     1      23.260  -8.522  36.625  1.00  0.00    -0.354 OA
HETATM   27  C19 UNK     1      22.244  -8.417  37.621  1.00  0.00     0.210 C 
ENDBRANCH  21  26
ENDBRANCH   2  20
TORSDOF 3
ENDMDL
MODEL 7
REMARK VINA RESULT:      -8.6     29.267     31.226
REMARK  3 active torsions:
REMARK  status: ('A' for Active; 'I' for Inactive)
REMARK    1  A    between atoms: C7_13  and  O2_2 
REMARK    2  A    between atoms: C5_11  and  N1_5 
REMARK       I    between atoms: C6_12  and  N2_6 
REMARK    3  A    between atoms: C6_12  and  C8_14 
ROOT
HETATM    1  O1  UNK     1      21.470  -2.814  37.976  1.00  0.00    -0.267 OA
HETATM    2  N1  UNK     1      20.524  -7.414  36.748  1.00  0.00    -0.376 N 
HETATM    3  N2  UNK     1      20.216  -4.708  37.483  1.00  0.00    -0.345 N 
HETATM    4  C1  UNK     1      21.595  -6.739  37.501  1.00  0.00     0.143 C 
HETATM    5  C2  UNK     1      19.641  -6.545  35.955  1.00  0.00     0.143 C 
HETATM    6  C3  UNK     1      21.025  -5.585  38.325  1.00  0.00     0.146 C 
HETATM    7  C4  UNK     1      19.109  -5.403  36.820  1.00  0.00     0.146 C 
HETATM    8  C6  UNK     1      20.526  -3.354  37.397  1.00  0.00     0.260 C 
ENDROOT
BRANCH   8   9
HETATM    9  C8  UNK     1      19.667  -2.504  36.550  1.00  0.00     0.108 A 
HETATM   10  C10 UNK     1      18.675  -1.857  37.173  1.00  0.00     0.037 A 
HETATM   11  C14 UNK     1      17.776  -0.995  36.424  1.00  0.00    -0.001 A 
HETATM   12  C16 UNK     1      17.965  -0.856  35.052  1.00  0.00     0.089 A 
HETATM   13  C17 UNK     1      16.727  -0.302  37.033  1.00  0.00     0.014 A 
HETATM   14  O3  UNK     1      19.011  -1.539  34.401  1.00  0.00    -0.274 OA
HETATM   15  C18 UNK     1      17.138  -0.047  34.276  1.00  0.00     0.038 A 
HETATM   16  C13 UNK     1      19.887  -2.371  35.092  1.00  0.00     0.304 A 
HETATM   17  O4  UNK     1      20.795  -2.961  34.517  1.00  0.00    -0.259 OA
HETATM   18  C21 UNK     1      16.095   0.642  34.891  1.00  0.00     0.003 A 
HETATM   19  C20 UNK     1      15.890   0.515  36.267  1.00  0.00     0.001 A 
ENDBRANCH   8   9
BRANCH   2  20
HETATM   20  C5  UNK     1      20.755  -8.730  36.327  1.00  0.00     0.064 A 
HETATM   21  C7  UNK     1      20.187  -9.842  36.994  1.00  0.00     0.094 A 
HETATM   22  C11 UNK     1      20.425 -11.147  36.564  1.00  0.00     0.039 A 
HETATM   23  C15 UNK     1      21.237 -11.379  35.454  1.00  0.00     0.003 A 
HETATM   24  C12 UNK     1      21.812 -10.305  34.774  1.00  0.00     0.002 A 
HETATM   25  C9  UNK     1      21.575  -9.000  35.205  1.00  0.00     0.032 A 
BRANCH  21  26
HETATM   26  O2  UNK     1      19.389  -9.637  38.081  1.00  0.00    -0.354 OA
HETATM   27  C19 UNK     1      20.012  -9.700  39.362  1.00  0.00     0.210 C 
ENDBRANCH  21  26
ENDBRANCH   2  20
TORSDOF 3
ENDMDL
MODEL 8
REMARK VINA RESULT:      -8.4     34.322     37.619
REMARK  3 active torsions:
REMARK  status: ('A' for Active; 'I' for Inactive)
REMARK    1  A    between atoms: C7_13  and  O2_2 
REMARK    2  A    between atoms: C5_11  and  N1_5 
REMARK       I    between atoms: C6_12  and  N2_6 
REMARK    3  A    between atoms: C6_12  and  C8_14 
ROOT
HETATM    1  O1  UNK     1      30.768 -10.596  39.373  1.00  0.00    -0.267 OA
HETATM    2  N1  UNK     1      26.424  -9.838  37.344  1.00  0.00    -0.376 N 
HETATM    3  N2  UNK     1      29.045  -9.452  38.313  1.00  0.00    -0.345 N 
HETATM    4  C1  UNK     1      26.924 -10.682  38.442  1.00  0.00     0.143 C 
HETATM    5  C2  UNK     1      27.443  -9.252  36.460  1.00  0.00     0.143 C 
HETATM    6  C3  UNK     1      28.018  -9.954  39.223  1.00  0.00     0.146 C 
HETATM    7  C4  UNK     1      28.517  -8.547  37.289  1.00  0.00     0.146 C 
HETATM    8  C6  UNK     1      30.371  -9.831  38.493  1.00  0.00     0.260 C 
ENDROOT
BRANCH   8   9
HETATM    9  C8  UNK     1      31.376  -9.282  37.561  1.00  0.00     0.108 A 
HETATM   10  C10 UNK     1      32.115  -8.265  38.021  1.00  0.00     0.037 A 
HETATM   11  C14 UNK     1      33.132  -7.656  37.177  1.00  0.00    -0.001 A 
HETATM   12  C16 UNK     1      33.320  -8.150  35.889  1.00  0.00     0.089 A 
HETATM   13  C17 UNK     1      33.925  -6.593  37.614  1.00  0.00     0.014 A 
HETATM   14  O3  UNK     1      32.540  -9.221  35.412  1.00  0.00    -0.274 OA
HETATM   15  C18 UNK     1      34.276  -7.612  35.031  1.00  0.00     0.038 A 
HETATM   16  C13 UNK     1      31.560  -9.823  36.196  1.00  0.00     0.304 A 
HETATM   17  O4  UNK     1      30.885 -10.754  35.772  1.00  0.00    -0.259 OA
HETATM   18  C21 UNK     1      35.063  -6.552  35.475  1.00  0.00     0.003 A 
HETATM   19  C20 UNK     1      34.889  -6.044  36.764  1.00  0.00     0.001 A 
ENDBRANCH   8   9
BRANCH   2  20
HETATM   20  C5  UNK     1      25.150 -10.122  36.834  1.00  0.00     0.064 A 
HETATM   21  C7  UNK     1      24.068  -9.220  36.974  1.00  0.00     0.094 A 
HETATM   22  C11 UNK     1      22.805  -9.515  36.461  1.00  0.00     0.039 A 
HETATM   23  C15 UNK     1      22.587 -10.719  35.793  1.00  0.00     0.003 A 
HETATM   24  C12 UNK     1      23.633 -11.630  35.638  1.00  0.00     0.002 A 
HETATM   25  C9  UNK     1      24.895 -11.335  36.151  1.00  0.00     0.032 A 
BRANCH  21  26
HETATM   26  O2  UNK     1      24.260  -8.037  37.624  1.00  0.00    -0.354 OA
HETATM   27  C19 UNK     1      23.722  -7.927  38.941  1.00  0.00     0.210 C 
ENDBRANCH  21  26
ENDBRANCH   2  20
TORSDOF 3
ENDMDL
MODEL 9
REMARK VINA RESULT:      -8.3     31.724     35.189
REMARK  3 active torsions:
REMARK  status: ('A' for Active; 'I' for Inactive)
REMARK    1  A    between atoms: C7_13  and  O2_2 
REMARK    2  A    between atoms: C5_11  and  N1_5 
REMARK       I    between atoms: C6_12  and  N2_6 
REMARK    3  A    between atoms: C6_12  and  C8_14 
ROOT
HETATM    1  O1  UNK     1      32.273  -5.261  34.196  1.00  0.00    -0.267 OA
HETATM    2  N1  UNK     1      28.950  -7.528  36.913  1.00  0.00    -0.376 N 
HETATM    3  N2  UNK     1      30.191  -6.064  34.845  1.00  0.00    -0.345 N 
HETATM    4  C1  UNK     1      30.185  -6.776  37.195  1.00  0.00     0.143 C 
HETATM    5  C2  UNK     1      28.741  -7.932  35.514  1.00  0.00     0.143 C 
HETATM    6  C3  UNK     1      30.333  -5.605  36.224  1.00  0.00     0.146 C 
HETATM    7  C4  UNK     1      28.912  -6.730  34.586  1.00  0.00     0.146 C 
HETATM    8  C6  UNK     1      31.212  -5.828  33.930  1.00  0.00     0.260 C 
ENDROOT
BRANCH   8   9
HETATM    9  C8  UNK     1      31.015  -6.293  32.543  1.00  0.00     0.108 A 
HETATM   10  C10 UNK     1      31.565  -7.473  32.231  1.00  0.00     0.037 A 
HETATM   11  C14 UNK     1      31.425  -8.015  30.889  1.00  0.00    -0.001 A 
HETATM   12  C16 UNK     1      30.712  -7.288  29.940  1.00  0.00     0.089 A 
HETATM   13  C17 UNK     1      31.982  -9.241  30.518  1.00  0.00     0.014 A 
HETATM   14  O3  UNK     1      30.135  -6.048  30.275  1.00  0.00    -0.274 OA
HETATM   15  C18 UNK     1      30.541  -7.751  28.637  1.00  0.00     0.038 A 
HETATM   16  C13 UNK     1      30.252  -5.503  31.551  1.00  0.00     0.304 A 
HETATM   17  O4  UNK     1      29.747  -4.422  31.833  1.00  0.00    -0.259 OA
HETATM   18  C21 UNK     1      31.100  -8.974  28.276  1.00  0.00     0.003 A 
HETATM   19  C20 UNK     1      31.818  -9.718  29.214  1.00  0.00     0.001 A 
ENDBRANCH   8   9
BRANCH   2  20
HETATM   20  C5  UNK     1      28.416  -8.311  37.944  1.00  0.00     0.064 A 
HETATM   21  C7  UNK     1      27.136  -8.058  38.493  1.00  0.00     0.094 A 
HETATM   22  C11 UNK     1      26.616  -8.846  39.520  1.00  0.00     0.039 A 
HETATM   23  C15 UNK     1      27.361  -9.911  40.026  1.00  0.00     0.003 A 
HETATM   24  C12 UNK     1      28.626 -10.188  39.507  1.00  0.00     0.002 A 
HETATM   25  C9  UNK     1      29.146  -9.399  38.481  1.00  0.00     0.032 A 
BRANCH  21  26
HETATM   26  O2  UNK     1      26.392  -7.022  38.011  1.00  0.00    -0.354 OA
HETATM   27  C19 UNK     1      26.526  -5.766  38.674  1.00  0.00     0.210 C 
ENDBRANCH  21  26
ENDBRANCH   2  20
TORSDOF 3
ENDMDL
MODEL 10
REMARK VINA RESULT:      -8.2     34.030     35.573
REMARK  3 active torsions:
REMARK  status: ('A' for Active; 'I' for Inactive)
REMARK    1  A    between atoms: C7_13  and  O2_2 
REMARK    2  A    between atoms: C5_11  and  N1_5 
REMARK       I    between atoms: C6_12  and  N2_6 
REMARK    3  A    between atoms: C6_12  and  C8_14 
ROOT
HETATM    1  O1  UNK     1      27.615 -10.008  39.357  1.00  0.00    -0.267 OA
HETATM    2  N1  UNK     1      30.215  -6.889  36.698  1.00  0.00    -0.376 N 
HETATM    3  N2  UNK     1      28.328  -8.833  37.483  1.00  0.00    -0.345 N 
HETATM    4  C1  UNK     1      30.495  -7.743  37.865  1.00  0.00     0.143 C 
HETATM    5  C2  UNK     1      28.797  -6.700  36.356  1.00  0.00     0.143 C 
HETATM    6  C3  UNK     1      29.744  -9.069  37.750  1.00  0.00     0.146 C 
HETATM    7  C4  UNK     1      28.091  -8.052  36.266  1.00  0.00     0.146 C 
HETATM    8  C6  UNK     1      27.367  -9.355  38.343  1.00  0.00     0.260 C 
ENDROOT
BRANCH   8   9
HETATM    9  C8  UNK     1      25.947  -9.106  38.021  1.00  0.00     0.108 A 
HETATM   10  C10 UNK     1      25.325  -8.184  38.764  1.00  0.00     0.037 A 
HETATM   11  C14 UNK     1      23.926  -7.868  38.522  1.00  0.00    -0.001 A 
HETATM   12  C16 UNK     1      23.250  -8.542  37.509  1.00  0.00     0.089 A 
HETATM   13  C17 UNK     1      23.237  -6.913  39.273  1.00  0.00     0.014 A 
HETATM   14  O3  UNK     1      23.911  -9.511  36.730  1.00  0.00    -0.274 OA
HETATM   15  C18 UNK     1      21.910  -8.288  37.227  1.00  0.00     0.038 A 
HETATM   16  C13 UNK     1      25.249  -9.834  36.938  1.00  0.00     0.304 A 
HETATM   17  O4  UNK     1      25.815 -10.680  36.255  1.00  0.00    -0.259 OA
HETATM   18  C21 UNK     1      21.230  -7.333  37.981  1.00  0.00     0.003 A 
HETATM   19  C20 UNK     1      21.891  -6.648  39.001  1.00  0.00     0.001 A 
ENDBRANCH   8   9
BRANCH   2  20
HETATM   20  C5  UNK     1      31.137  -5.878  36.396  1.00  0.00     0.064 A 
HETATM   21  C7  UNK     1      32.209  -6.085  35.494  1.00  0.00     0.094 A 
HETATM   22  C11 UNK     1      33.120  -5.071  35.202  1.00  0.00     0.039 A 
HETATM   23  C15 UNK     1      32.986  -3.819  35.803  1.00  0.00     0.003 A 
HETATM   24  C12 UNK     1      31.941  -3.582  36.696  1.00  0.00     0.002 A 
HETATM   25  C9  UNK     1      31.030  -4.597  36.988  1.00  0.00     0.032 A 
BRANCH  21  26
HETATM   26  O2  UNK     1      32.357  -7.302  34.896  1.00  0.00    -0.354 OA
HETATM   27  C19 UNK     1      33.380  -8.154  35.408  1.00  0.00     0.210 C 
ENDBRANCH  21  26
ENDBRANCH   2  20
TORSDOF 3
ENDMDL
