MODEL 1
REMARK VINA RESULT:      -9.3      0.000      0.000
REMARK  3 active torsions:
REMARK  status: ('A' for Active; 'I' for Inactive)
REMARK    1  A    between atoms: C12_15  and  O2_2 
REMARK    2  A    between atoms: C14_17  and  O2_2 
REMARK    3  A    between atoms: C14_17  and  C15_18 
ROOT
HETATM    1  O1  UNK     1      18.313   1.699  33.050  1.00  0.00    -0.274 OA
HETATM    2  O3  UNK     1      18.562  -0.410  33.867  1.00  0.00    -0.259 OA
HETATM    3  C1  UNK     1      19.829   0.341  29.220  1.00  0.00     0.040 C 
HETATM    4  C2  UNK     1      19.907  -1.179  29.055  1.00  0.00     0.005 C 
HETATM    5  C3  UNK     1      19.331   0.793  30.575  1.00  0.00    -0.033 A 
HETATM    6  C4  UNK     1      20.489  -1.831  30.297  1.00  0.00     0.005 C 
HETATM    7  C5  UNK     1      19.631  -1.513  31.521  1.00  0.00     0.045 C 
HETATM    8  C6  UNK     1      19.219  -0.063  31.610  1.00  0.00     0.025 A 
HETATM    9  C7  UNK     1      18.961   2.206  30.757  1.00  0.00     0.005 A 
HETATM   10  C8  UNK     1      18.459   2.612  31.992  1.00  0.00     0.092 A 
HETATM   11  C9  UNK     1      18.683   0.369  32.927  1.00  0.00     0.295 A 
HETATM   12  C10 UNK     1      19.092   3.186  29.762  1.00  0.00     0.017 A 
HETATM   13  C11 UNK     1      18.082   3.932  32.250  1.00  0.00     0.075 A 
HETATM   14  C12 UNK     1      18.212   4.885  31.248  1.00  0.00     0.072 A 
HETATM   15  C13 UNK     1      18.719   4.513  30.005  1.00  0.00     0.038 A 
ENDROOT
BRANCH  14  16
HETATM   16  O2  UNK     1      17.853   6.177  31.479  1.00  0.00    -0.342 OA
BRANCH  16  17
HETATM   17  C14 UNK     1      17.335   6.485  32.773  1.00  0.00     0.158 C 
HETATM   18  C16 UNK     1      15.853   6.808  32.644  1.00  0.00     0.045 C 
BRANCH  17  19
HETATM   19  C15 UNK     1      18.128   7.638  33.340  1.00  0.00    -0.029 A 
HETATM   20  C17 UNK     1      17.549   8.894  33.404  1.00  0.00     0.010 A 
HETATM   21  C19 UNK     1      18.283   9.960  33.927  1.00  0.00     0.001 A 
HETATM   22  C21 UNK     1      19.586   9.753  34.379  1.00  0.00     0.000 A 
HETATM   23  C20 UNK     1      20.155   8.482  34.309  1.00  0.00     0.001 A 
HETATM   24  C18 UNK     1      19.422   7.417  33.786  1.00  0.00     0.010 A 
ENDBRANCH  17  19
ENDBRANCH  16  17
ENDBRANCH  14  16
TORSDOF 3
ENDMDL
MODEL 2
REMARK VINA RESULT:      -9.3      1.059      1.790
REMARK  3 active torsions:
REMARK  status: ('A' for Active; 'I' for Inactive)
REMARK    1  A    between atoms: C12_15  and  O2_2 
REMARK    2  A    between atoms: C14_17  and  O2_2 
REMARK    3  A    between atoms: C14_17  and  C15_18 
ROOT
HETATM    1  O1  UNK     1      18.645   0.907  33.327  1.00  0.00    -0.274 OA
HETATM    2  O3  UNK     1      19.137  -1.303  33.554  1.00  0.00    -0.259 OA
HETATM    3  C1  UNK     1      19.618   0.639  29.109  1.00  0.00     0.040 C 
HETATM    4  C2  UNK     1      19.755  -0.785  28.564  1.00  0.00     0.005 C 
HETATM    5  C3  UNK     1      19.314   0.710  30.590  1.00  0.00    -0.033 A 
HETATM    6  C4  UNK     1      20.559  -1.655  29.514  1.00  0.00     0.005 C 
HETATM    7  C5  UNK     1      19.886  -1.717  30.884  1.00  0.00     0.045 C 
HETATM    8  C6  UNK     1      19.413  -0.373  31.385  1.00  0.00     0.025 A 
HETATM    9  C7  UNK     1      18.898   2.000  31.165  1.00  0.00     0.005 A 
HETATM   10  C8  UNK     1      18.573   2.054  32.519  1.00  0.00     0.092 A 
HETATM   11  C9  UNK     1      19.066  -0.317  32.829  1.00  0.00     0.295 A 
HETATM   12  C10 UNK     1      18.817   3.195  30.435  1.00  0.00     0.017 A 
HETATM   13  C11 UNK     1      18.167   3.234  33.146  1.00  0.00     0.075 A 
HETATM   14  C12 UNK     1      18.086   4.406  32.403  1.00  0.00     0.072 A 
HETATM   15  C13 UNK     1      18.413   4.386  31.048  1.00  0.00     0.038 A 
ENDROOT
BRANCH  14  16
HETATM   16  O2  UNK     1      17.696   5.567  32.994  1.00  0.00    -0.342 OA
BRANCH  16  17
HETATM   17  C14 UNK     1      18.327   6.767  32.549  1.00  0.00     0.158 C 
HETATM   18  C16 UNK     1      19.689   6.882  33.218  1.00  0.00     0.045 C 
BRANCH  17  19
HETATM   19  C15 UNK     1      17.423   7.930  32.881  1.00  0.00    -0.029 A 
HETATM   20  C17 UNK     1      16.195   8.038  32.248  1.00  0.00     0.010 A 
HETATM   21  C19 UNK     1      15.360   9.114  32.555  1.00  0.00     0.001 A 
HETATM   22  C21 UNK     1      15.765  10.066  33.490  1.00  0.00     0.000 A 
HETATM   23  C20 UNK     1      17.004   9.944  34.118  1.00  0.00     0.001 A 
HETATM   24  C18 UNK     1      17.839   8.869  33.812  1.00  0.00     0.010 A 
ENDBRANCH  17  19
ENDBRANCH  16  17
ENDBRANCH  14  16
TORSDOF 3
ENDMDL
MODEL 3
REMARK VINA RESULT:      -8.7      1.393      8.171
REMARK  3 active torsions:
REMARK  status: ('A' for Active; 'I' for Inactive)
REMARK    1  A    between atoms: C12_15  and  O2_2 
REMARK    2  A    between atoms: C14_17  and  O2_2 
REMARK    3  A    between atoms: C14_17  and  C15_18 
ROOT
HETATM    1  O1  UNK     1      16.204   6.811  32.685  1.00  0.00    -0.274 OA
HETATM    2  O3  UNK     1      15.313   8.785  33.383  1.00  0.00    -0.259 OA
HETATM    3  C1  UNK     1      20.152   8.287  33.708  1.00  0.00     0.040 C 
HETATM    4  C2  UNK     1      20.169   9.558  34.560  1.00  0.00     0.005 C 
HETATM    5  C3  UNK     1      18.766   7.809  33.333  1.00  0.00    -0.033 A 
HETATM    6  C4  UNK     1      19.166  10.574  34.040  1.00  0.00     0.005 C 
HETATM    7  C5  UNK     1      17.754   9.990  34.057  1.00  0.00     0.045 C 
HETATM    8  C6  UNK     1      17.677   8.580  33.520  1.00  0.00     0.025 A 
HETATM    9  C7  UNK     1      18.615   6.465  32.751  1.00  0.00     0.005 A 
HETATM   10  C8  UNK     1      17.333   6.008  32.450  1.00  0.00     0.092 A 
HETATM   11  C9  UNK     1      16.310   8.094  33.199  1.00  0.00     0.295 A 
HETATM   12  C10 UNK     1      19.688   5.608  32.467  1.00  0.00     0.017 A 
HETATM   13  C11 UNK     1      17.098   4.747  31.898  1.00  0.00     0.075 A 
HETATM   14  C12 UNK     1      18.175   3.910  31.631  1.00  0.00     0.072 A 
HETATM   15  C13 UNK     1      19.469   4.341  31.914  1.00  0.00     0.038 A 
ENDROOT
BRANCH  14  16
HETATM   16  O2  UNK     1      17.968   2.678  31.092  1.00  0.00    -0.342 OA
BRANCH  16  17
HETATM   17  C14 UNK     1      18.778   2.314  29.974  1.00  0.00     0.158 C 
HETATM   18  C16 UNK     1      17.940   2.414  28.708  1.00  0.00     0.045 C 
BRANCH  17  19
HETATM   19  C15 UNK     1      19.307   0.918  30.206  1.00  0.00    -0.029 A 
HETATM   20  C17 UNK     1      19.930   0.247  29.167  1.00  0.00     0.010 A 
HETATM   21  C19 UNK     1      20.418  -1.043  29.381  1.00  0.00     0.001 A 
HETATM   22  C21 UNK     1      20.275  -1.643  30.632  1.00  0.00     0.000 A 
HETATM   23  C20 UNK     1      19.645  -0.954  31.669  1.00  0.00     0.001 A 
HETATM   24  C18 UNK     1      19.158   0.335  31.454  1.00  0.00     0.010 A 
ENDBRANCH  17  19
ENDBRANCH  16  17
ENDBRANCH  14  16
TORSDOF 3
ENDMDL
MODEL 4
REMARK VINA RESULT:      -8.4      6.172      9.206
REMARK  3 active torsions:
REMARK  status: ('A' for Active; 'I' for Inactive)
REMARK    1  A    between atoms: C12_15  and  O2_2 
REMARK    2  A    between atoms: C14_17  and  O2_2 
REMARK    3  A    between atoms: C14_17  and  C15_18 
ROOT
HETATM    1  O1  UNK     1      20.443  -5.988  34.648  1.00  0.00    -0.274 OA
HETATM    2  O3  UNK     1      20.687  -8.241  34.451  1.00  0.00    -0.259 OA
HETATM    3  C1  UNK     1      20.268  -6.433  38.958  1.00  0.00     0.040 C 
HETATM    4  C2  UNK     1      20.698  -7.803  39.487  1.00  0.00     0.005 C 
HETATM    5  C3  UNK     1      20.302  -6.311  37.450  1.00  0.00    -0.033 A 
HETATM    6  C4  UNK     1      20.095  -8.921  38.653  1.00  0.00     0.005 C 
HETATM    7  C5  UNK     1      20.534  -8.797  37.195  1.00  0.00     0.045 C 
HETATM    8  C6  UNK     1      20.450  -7.389  36.656  1.00  0.00     0.025 A 
HETATM    9  C7  UNK     1      20.172  -4.975  36.846  1.00  0.00     0.005 A 
HETATM   10  C8  UNK     1      20.251  -4.857  35.460  1.00  0.00     0.092 A 
HETATM   11  C9  UNK     1      20.535  -7.265  35.177  1.00  0.00     0.295 A 
HETATM   12  C10 UNK     1      19.960  -3.798  37.581  1.00  0.00     0.017 A 
HETATM   13  C11 UNK     1      20.140  -3.629  34.804  1.00  0.00     0.075 A 
HETATM   14  C12 UNK     1      19.937  -2.475  35.551  1.00  0.00     0.072 A 
HETATM   15  C13 UNK     1      19.846  -2.560  36.939  1.00  0.00     0.038 A 
ENDROOT
BRANCH  14  16
HETATM   16  O2  UNK     1      19.824  -1.269  34.932  1.00  0.00    -0.342 OA
BRANCH  16  17
HETATM   17  C14 UNK     1      18.541  -0.925  34.410  1.00  0.00     0.158 C 
HETATM   18  C16 UNK     1      18.727  -0.245  33.061  1.00  0.00     0.045 C 
BRANCH  17  19
HETATM   19  C15 UNK     1      17.844  -0.035  35.412  1.00  0.00    -0.029 A 
HETATM   20  C17 UNK     1      18.580   0.906  36.112  1.00  0.00     0.010 A 
HETATM   21  C19 UNK     1      17.935   1.727  37.038  1.00  0.00     0.001 A 
HETATM   22  C21 UNK     1      16.564   1.595  37.250  1.00  0.00     0.000 A 
HETATM   23  C20 UNK     1      15.836   0.643  36.537  1.00  0.00     0.001 A 
HETATM   24  C18 UNK     1      16.480  -0.178  35.612  1.00  0.00     0.010 A 
ENDBRANCH  17  19
ENDBRANCH  16  17
ENDBRANCH  14  16
TORSDOF 3
ENDMDL
MODEL 5
REMARK VINA RESULT:      -8.3     12.623     15.939
REMARK  3 active torsions:
REMARK  status: ('A' for Active; 'I' for Inactive)
REMARK    1  A    between atoms: C12_15  and  O2_2 
REMARK    2  A    between atoms: C14_17  and  O2_2 
REMARK    3  A    between atoms: C14_17  and  C15_18 
ROOT
HETATM    1  O1  UNK     1      27.580  -5.539  39.088  1.00  0.00    -0.274 OA
HETATM    2  O3  UNK     1      29.139  -3.918  39.435  1.00  0.00    -0.259 OA
HETATM    3  C1  UNK     1      30.750  -8.277  37.961  1.00  0.00     0.040 C 
HETATM    4  C2  UNK     1      32.166  -7.805  38.301  1.00  0.00     0.005 C 
HETATM    5  C3  UNK     1      29.662  -7.291  38.331  1.00  0.00    -0.033 A 
HETATM    6  C4  UNK     1      32.354  -6.343  37.933  1.00  0.00     0.005 C 
HETATM    7  C5  UNK     1      31.352  -5.469  38.685  1.00  0.00     0.045 C 
HETATM    8  C6  UNK     1      29.947  -6.023  38.684  1.00  0.00     0.025 A 
HETATM    9  C7  UNK     1      28.261  -7.741  38.301  1.00  0.00     0.005 A 
HETATM   10  C8  UNK     1      27.264  -6.848  38.686  1.00  0.00     0.092 A 
HETATM   11  C9  UNK     1      28.884  -5.069  39.095  1.00  0.00     0.295 A 
HETATM   12  C10 UNK     1      27.856  -9.022  37.896  1.00  0.00     0.017 A 
HETATM   13  C11 UNK     1      25.910  -7.191  38.690  1.00  0.00     0.075 A 
HETATM   14  C12 UNK     1      25.531  -8.468  38.292  1.00  0.00     0.072 A 
HETATM   15  C13 UNK     1      26.504  -9.382  37.894  1.00  0.00     0.038 A 
ENDROOT
BRANCH  14  16
HETATM   16  O2  UNK     1      24.218  -8.822  38.287  1.00  0.00    -0.342 OA
BRANCH  16  17
HETATM   17  C14 UNK     1      23.266  -7.794  38.561  1.00  0.00     0.158 C 
HETATM   18  C16 UNK     1      22.612  -8.078  39.906  1.00  0.00     0.045 C 
BRANCH  17  19
HETATM   19  C15 UNK     1      22.266  -7.759  37.430  1.00  0.00    -0.029 A 
HETATM   20  C17 UNK     1      21.356  -6.718  37.361  1.00  0.00     0.010 A 
HETATM   21  C19 UNK     1      20.431  -6.687  36.316  1.00  0.00     0.001 A 
HETATM   22  C21 UNK     1      20.430  -7.698  35.355  1.00  0.00     0.000 A 
HETATM   23  C20 UNK     1      21.353  -8.740  35.439  1.00  0.00     0.001 A 
HETATM   24  C18 UNK     1      22.277  -8.771  36.483  1.00  0.00     0.010 A 
ENDBRANCH  17  19
ENDBRANCH  16  17
ENDBRANCH  14  16
TORSDOF 3
ENDMDL
MODEL 6
REMARK VINA RESULT:      -8.2      1.838      8.513
REMARK  3 active torsions:
REMARK  status: ('A' for Active; 'I' for Inactive)
REMARK    1  A    between atoms: C12_15  and  O2_2 
REMARK    2  A    between atoms: C14_17  and  O2_2 
REMARK    3  A    between atoms: C14_17  and  C15_18 
ROOT
HETATM    1  O1  UNK     1      15.419   6.974  32.440  1.00  0.00    -0.274 OA
HETATM    2  O3  UNK     1      13.632   8.348  32.751  1.00  0.00    -0.259 OA
HETATM    3  C1  UNK     1      18.021  10.097  33.952  1.00  0.00     0.040 C 
HETATM    4  C2  UNK     1      17.305  11.258  34.648  1.00  0.00     0.005 C 
HETATM    5  C3  UNK     1      17.093   9.036  33.401  1.00  0.00    -0.033 A 
HETATM    6  C4  UNK     1      16.087  11.699  33.854  1.00  0.00     0.005 C 
HETATM    7  C5  UNK     1      15.104  10.540  33.694  1.00  0.00     0.045 C 
HETATM    8  C6  UNK     1      15.764   9.236  33.312  1.00  0.00     0.025 A 
HETATM    9  C7  UNK     1      17.667   7.756  32.956  1.00  0.00     0.005 A 
HETATM   10  C8  UNK     1      16.807   6.763  32.492  1.00  0.00     0.092 A 
HETATM   11  C9  UNK     1      14.845   8.178  32.817  1.00  0.00     0.295 A 
HETATM   12  C10 UNK     1      19.041   7.470  32.957  1.00  0.00     0.017 A 
HETATM   13  C11 UNK     1      17.267   5.519  32.053  1.00  0.00     0.075 A 
HETATM   14  C12 UNK     1      18.630   5.253  32.069  1.00  0.00     0.072 A 
HETATM   15  C13 UNK     1      19.517   6.229  32.519  1.00  0.00     0.038 A 
ENDROOT
BRANCH  14  16
HETATM   16  O2  UNK     1      19.099   4.049  31.643  1.00  0.00    -0.342 OA
BRANCH  16  17
HETATM   17  C14 UNK     1      18.198   2.943  31.704  1.00  0.00     0.158 C 
HETATM   18  C16 UNK     1      18.294   2.310  33.085  1.00  0.00     0.045 C 
BRANCH  17  19
HETATM   19  C15 UNK     1      18.557   1.977  30.601  1.00  0.00    -0.029 A 
HETATM   20  C17 UNK     1      19.530   1.018  30.828  1.00  0.00     0.010 A 
HETATM   21  C19 UNK     1      19.863   0.125  29.807  1.00  0.00     0.001 A 
HETATM   22  C21 UNK     1      19.217   0.206  28.574  1.00  0.00     0.000 A 
HETATM   23  C20 UNK     1      18.239   1.177  28.361  1.00  0.00     0.001 A 
HETATM   24  C18 UNK     1      17.907   2.069  29.380  1.00  0.00     0.010 A 
ENDBRANCH  17  19
ENDBRANCH  16  17
ENDBRANCH  14  16
TORSDOF 3
ENDMDL
MODEL 7
REMARK VINA RESULT:      -8.2     22.384     24.542
REMARK  3 active torsions:
REMARK  status: ('A' for Active; 'I' for Inactive)
REMARK    1  A    between atoms: C12_15  and  O2_2 
REMARK    2  A    between atoms: C14_17  and  O2_2 
REMARK    3  A    between atoms: C14_17  and  C15_18 
ROOT
HETATM    1  O1  UNK     1      13.614   5.331   9.318  1.00  0.00    -0.274 OA
HETATM    2  O3  UNK     1      15.626   4.323   9.658  1.00  0.00    -0.259 OA
HETATM    3  C1  UNK     1      15.541   9.197   9.701  1.00  0.00     0.040 C 
HETATM    4  C2  UNK     1      17.071   9.168   9.651  1.00  0.00     0.005 C 
HETATM    5  C3  UNK     1      14.891   7.835   9.601  1.00  0.00    -0.033 A 
HETATM    6  C4  UNK     1      17.620   8.036  10.503  1.00  0.00     0.005 C 
HETATM    7  C5  UNK     1      17.087   6.690  10.014  1.00  0.00     0.045 C 
HETATM    8  C6  UNK     1      15.605   6.699   9.718  1.00  0.00     0.025 A 
HETATM    9  C7  UNK     1      13.439   7.760   9.368  1.00  0.00     0.005 A 
HETATM   10  C8  UNK     1      12.848   6.506   9.230  1.00  0.00     0.092 A 
HETATM   11  C9  UNK     1      14.976   5.360   9.571  1.00  0.00     0.295 A 
HETATM   12  C10 UNK     1      12.598   8.880   9.286  1.00  0.00     0.017 A 
HETATM   13  C11 UNK     1      11.479   6.343   9.005  1.00  0.00     0.075 A 
HETATM   14  C12 UNK     1      10.665   7.466   8.920  1.00  0.00     0.072 A 
HETATM   15  C13 UNK     1      11.225   8.734   9.062  1.00  0.00     0.038 A 
ENDROOT
BRANCH  14  16
HETATM   16  O2  UNK     1       9.330   7.329   8.703  1.00  0.00    -0.342 OA
BRANCH  16  17
HETATM   17  C14 UNK     1       8.855   6.025   8.370  1.00  0.00     0.158 C 
HETATM   18  C16 UNK     1       8.472   6.004   6.897  1.00  0.00     0.045 C 
BRANCH  17  19
HETATM   19  C15 UNK     1       7.690   5.698   9.273  1.00  0.00    -0.029 A 
HETATM   20  C17 UNK     1       7.322   4.375   9.455  1.00  0.00     0.010 A 
HETATM   21  C19 UNK     1       6.244   4.074  10.289  1.00  0.00     0.001 A 
HETATM   22  C21 UNK     1       5.550   5.100  10.929  1.00  0.00     0.000 A 
HETATM   23  C20 UNK     1       5.932   6.428  10.735  1.00  0.00     0.001 A 
HETATM   24  C18 UNK     1       7.009   6.728   9.902  1.00  0.00     0.010 A 
ENDBRANCH  17  19
ENDBRANCH  16  17
ENDBRANCH  14  16
TORSDOF 3
ENDMDL
MODEL 8
REMARK VINA RESULT:      -8.1     14.869     16.757
REMARK  3 active torsions:
REMARK  status: ('A' for Active; 'I' for Inactive)
REMARK    1  A    between atoms: C12_15  and  O2_2 
REMARK    2  A    between atoms: C14_17  and  O2_2 
REMARK    3  A    between atoms: C14_17  and  C15_18 
ROOT
HETATM    1  O1  UNK     1      25.764 -11.359  36.355  1.00  0.00    -0.274 OA
HETATM    2  O3  UNK     1      24.359 -12.618  35.084  1.00  0.00    -0.259 OA
HETATM    3  C1  UNK     1      22.525  -8.568  37.085  1.00  0.00     0.040 C 
HETATM    4  C2  UNK     1      21.134  -9.071  36.690  1.00  0.00     0.005 C 
HETATM    5  C3  UNK     1      23.644  -9.543  36.789  1.00  0.00    -0.033 A 
HETATM    6  C4  UNK     1      21.167  -9.750  35.331  1.00  0.00     0.005 C 
HETATM    7  C5  UNK     1      22.131 -10.935  35.348  1.00  0.00     0.045 C 
HETATM    8  C6  UNK     1      23.450 -10.631  36.019  1.00  0.00     0.025 A 
HETATM    9  C7  UNK     1      24.975  -9.287  37.364  1.00  0.00     0.005 A 
HETATM   10  C8  UNK     1      25.993 -10.209  37.130  1.00  0.00     0.092 A 
HETATM   11  C9  UNK     1      24.535 -11.616  35.769  1.00  0.00     0.295 A 
HETATM   12  C10 UNK     1      25.294  -8.157  38.132  1.00  0.00     0.017 A 
HETATM   13  C11 UNK     1      27.283 -10.046  37.638  1.00  0.00     0.075 A 
HETATM   14  C12 UNK     1      27.576  -8.923  38.403  1.00  0.00     0.072 A 
HETATM   15  C13 UNK     1      26.582  -7.978  38.648  1.00  0.00     0.038 A 
ENDROOT
BRANCH  14  16
HETATM   16  O2  UNK     1      28.827  -8.744  38.906  1.00  0.00    -0.342 OA
BRANCH  16  17
HETATM   17  C14 UNK     1      29.902  -8.681  37.968  1.00  0.00     0.158 C 
HETATM   18  C16 UNK     1      30.839  -9.854  38.216  1.00  0.00     0.045 C 
BRANCH  17  19
HETATM   19  C15 UNK     1      30.593  -7.348  38.127  1.00  0.00    -0.029 A 
HETATM   20  C17 UNK     1      31.977  -7.293  38.098  1.00  0.00     0.010 A 
HETATM   21  C19 UNK     1      32.616  -6.061  38.247  1.00  0.00     0.001 A 
HETATM   22  C21 UNK     1      31.861  -4.901  38.422  1.00  0.00     0.000 A 
HETATM   23  C20 UNK     1      30.469  -4.973  38.449  1.00  0.00     0.001 A 
HETATM   24  C18 UNK     1      29.830  -6.204  38.301  1.00  0.00     0.010 A 
ENDBRANCH  17  19
ENDBRANCH  16  17
ENDBRANCH  14  16
TORSDOF 3
ENDMDL
MODEL 9
REMARK VINA RESULT:      -8.1     16.068     18.979
REMARK  3 active torsions:
REMARK  status: ('A' for Active; 'I' for Inactive)
REMARK    1  A    between atoms: C12_15  and  O2_2 
REMARK    2  A    between atoms: C14_17  and  O2_2 
REMARK    3  A    between atoms: C14_17  and  C15_18 
ROOT
HETATM    1  O1  UNK     1      30.759  -4.815  38.498  1.00  0.00    -0.274 OA
HETATM    2  O3  UNK     1      28.725  -4.348  39.407  1.00  0.00    -0.259 OA
HETATM    3  C1  UNK     1      29.610  -8.987  38.194  1.00  0.00     0.040 C 
HETATM    4  C2  UNK     1      28.119  -9.266  38.403  1.00  0.00     0.005 C 
HETATM    5  C3  UNK     1      29.995  -7.530  38.339  1.00  0.00    -0.033 A 
HETATM    6  C4  UNK     1      27.583  -8.488  39.592  1.00  0.00     0.005 C 
HETATM    7  C5  UNK     1      27.776  -6.987  39.381  1.00  0.00     0.045 C 
HETATM    8  C6  UNK     1      29.144  -6.622  38.856  1.00  0.00     0.025 A 
HETATM    9  C7  UNK     1      31.334  -7.105  37.900  1.00  0.00     0.005 A 
HETATM   10  C8  UNK     1      31.670  -5.756  37.991  1.00  0.00     0.092 A 
HETATM   11  C9  UNK     1      29.502  -5.182  38.954  1.00  0.00     0.295 A 
HETATM   12  C10 UNK     1      32.310  -7.980  37.400  1.00  0.00     0.017 A 
HETATM   13  C11 UNK     1      32.917  -5.267  37.595  1.00  0.00     0.075 A 
HETATM   14  C12 UNK     1      33.867  -6.149  37.096  1.00  0.00     0.072 A 
HETATM   15  C13 UNK     1      33.564  -7.506  37.000  1.00  0.00     0.038 A 
ENDROOT
BRANCH  14  16
HETATM   16  O2  UNK     1      35.088  -5.693  36.707  1.00  0.00    -0.342 OA
BRANCH  16  17
HETATM   17  C14 UNK     1      35.205  -5.210  35.368  1.00  0.00     0.158 C 
HETATM   18  C16 UNK     1      33.875  -4.602  34.949  1.00  0.00     0.045 C 
BRANCH  17  19
HETATM   19  C15 UNK     1      35.617  -6.362  34.482  1.00  0.00    -0.029 A 
HETATM   20  C17 UNK     1      36.774  -7.064  34.775  1.00  0.00     0.010 A 
HETATM   21  C19 UNK     1      37.154  -8.128  33.955  1.00  0.00     0.001 A 
HETATM   22  C21 UNK     1      36.371  -8.474  32.855  1.00  0.00     0.000 A 
HETATM   23  C20 UNK     1      35.208  -7.758  32.573  1.00  0.00     0.001 A 
HETATM   24  C18 UNK     1      34.828  -6.695  33.392  1.00  0.00     0.010 A 
ENDBRANCH  17  19
ENDBRANCH  16  17
ENDBRANCH  14  16
TORSDOF 3
ENDMDL
MODEL 10
REMARK VINA RESULT:      -8.1      7.260     10.254
REMARK  3 active torsions:
REMARK  status: ('A' for Active; 'I' for Inactive)
REMARK    1  A    between atoms: C12_15  and  O2_2 
REMARK    2  A    between atoms: C14_17  and  O2_2 
REMARK    3  A    between atoms: C14_17  and  C15_18 
ROOT
HETATM    1  O1  UNK     1      22.275  -6.339  37.839  1.00  0.00    -0.274 OA
HETATM    2  O3  UNK     1      23.603  -8.151  38.199  1.00  0.00    -0.259 OA
HETATM    3  C1  UNK     1      18.996  -9.001  36.850  1.00  0.00     0.040 C 
HETATM    4  C2  UNK     1      19.219 -10.470  37.220  1.00  0.00     0.005 C 
HETATM    5  C3  UNK     1      20.166  -8.096  37.172  1.00  0.00    -0.033 A 
HETATM    6  C4  UNK     1      20.616 -10.922  36.831  1.00  0.00     0.005 C 
HETATM    7  C5  UNK     1      21.670 -10.072  37.538  1.00  0.00     0.045 C 
HETATM    8  C6  UNK     1      21.372  -8.592  37.509  1.00  0.00     0.025 A 
HETATM    9  C7  UNK     1      19.969  -6.638  37.112  1.00  0.00     0.005 A 
HETATM   10  C8  UNK     1      21.033  -5.806  37.453  1.00  0.00     0.092 A 
HETATM   11  C9  UNK     1      22.508  -7.705  37.874  1.00  0.00     0.295 A 
HETATM   12  C10 UNK     1      18.771  -6.024  36.719  1.00  0.00     0.017 A 
HETATM   13  C11 UNK     1      20.934  -4.413  37.426  1.00  0.00     0.075 A 
HETATM   14  C12 UNK     1      19.735  -3.824  37.041  1.00  0.00     0.072 A 
HETATM   15  C13 UNK     1      18.655  -4.629  36.686  1.00  0.00     0.038 A 
ENDROOT
BRANCH  14  16
HETATM   16  O2  UNK     1      19.617  -2.470  37.006  1.00  0.00    -0.342 OA
BRANCH  16  17
HETATM   17  C14 UNK     1      18.936  -1.906  35.885  1.00  0.00     0.158 C 
HETATM   18  C16 UNK     1      19.892  -1.864  34.701  1.00  0.00     0.045 C 
BRANCH  17  19
HETATM   19  C15 UNK     1      18.440  -0.533  36.273  1.00  0.00    -0.029 A 
HETATM   20  C17 UNK     1      18.593   0.520  35.386  1.00  0.00     0.010 A 
HETATM   21  C19 UNK     1      18.135   1.789  35.746  1.00  0.00     0.001 A 
HETATM   22  C21 UNK     1      17.530   1.985  36.987  1.00  0.00     0.000 A 
HETATM   23  C20 UNK     1      17.383   0.915  37.869  1.00  0.00     0.001 A 
HETATM   24  C18 UNK     1      17.841  -0.352  37.510  1.00  0.00     0.010 A 
ENDBRANCH  17  19
ENDBRANCH  16  17
ENDBRANCH  14  16
TORSDOF 3
ENDMDL
