MODEL 1
REMARK VINA RESULT:     -10.0      0.000      0.000
REMARK  6 active torsions:
REMARK  status: ('A' for Active; 'I' for Inactive)
REMARK    1  A    between atoms: C11_20  and  O2_3 
REMARK    2  A    between atoms: C3_12  and  N1_8 
REMARK       I    between atoms: C9_18  and  N1_8 
REMARK    3  A    between atoms: C15_24  and  N2_9 
REMARK       I    between atoms: C7_16  and  N2_9 
REMARK    4  A    between atoms: C11_20  and  C2_11 
REMARK    5  A    between atoms: C4_13  and  C7_16 
REMARK    6  A    between atoms: C6_15  and  C9_18 
ROOT
HETATM    1  S1  UNK     1      19.743  -2.042  34.734  1.00  0.00    -0.065 SA
HETATM    2  C1  UNK     1      18.862  -1.758  37.131  1.00  0.00    -0.020 A 
HETATM    3  C2  UNK     1      18.623  -0.518  36.472  1.00  0.00     0.080 A 
HETATM    4  C3  UNK     1      19.055  -0.555  35.185  1.00  0.00     0.094 A 
HETATM    5  C4  UNK     1      19.467  -2.677  36.300  1.00  0.00     0.082 A 
HETATM    6  C5  UNK     1      18.503  -2.029  38.546  1.00  0.00     0.051 C 
ENDROOT
BRANCH   4   7
HETATM    7  N1  UNK     1      19.020   0.424  34.188  1.00  0.00    -0.316 N 
HETATM    8  C9  UNK     1      17.881   1.033  33.679  1.00  0.00     0.262 C 
HETATM    9  O4  UNK     1      16.706   0.844  33.988  1.00  0.00    -0.267 OA
HETATM   10  H1  UNK     1      19.931   0.674  33.814  1.00  0.00     0.169 HD
BRANCH   8  11
HETATM   11  C6  UNK     1      18.205   2.017  32.639  1.00  0.00     0.108 A 
HETATM   12  C10 UNK     1      18.014   3.302  32.960  1.00  0.00     0.037 A 
HETATM   13  C8  UNK     1      18.307   4.351  31.995  1.00  0.00    -0.001 A 
HETATM   14  C12 UNK     1      18.785   3.994  30.739  1.00  0.00     0.089 A 
HETATM   15  C14 UNK     1      18.123   5.704  32.287  1.00  0.00     0.014 A 
HETATM   16  O1  UNK     1      18.985   2.640  30.406  1.00  0.00    -0.274 OA
HETATM   17  C16 UNK     1      19.084   4.949  29.769  1.00  0.00     0.038 A 
HETATM   18  C13 UNK     1      18.714   1.615  31.308  1.00  0.00     0.304 A 
HETATM   19  O6  UNK     1      18.890   0.438  31.009  1.00  0.00    -0.259 OA
HETATM   20  C18 UNK     1      18.897   6.297  30.069  1.00  0.00     0.003 A 
HETATM   21  C17 UNK     1      18.417   6.674  31.325  1.00  0.00     0.001 A 
ENDBRANCH   8  11
ENDBRANCH   4   7
BRANCH   3  22
HETATM   22  C11 UNK     1      18.006   0.642  37.069  1.00  0.00     0.296 C 
HETATM   23  O5  UNK     1      18.570   1.738  37.195  1.00  0.00    -0.259 OA
BRANCH  22  24
HETATM   24  O2  UNK     1      16.713   0.428  37.495  1.00  0.00    -0.322 OA
HETATM   25  C24 UNK     1      15.747   1.428  37.154  1.00  0.00     0.213 C 
ENDBRANCH  22  24
ENDBRANCH   3  22
BRANCH   5  26
HETATM   26  C7  UNK     1      19.868  -4.019  36.577  1.00  0.00     0.263 C 
HETATM   27  O3  UNK     1      21.066  -4.349  36.740  1.00  0.00    -0.267 OA
HETATM   28  N2  UNK     1      18.825  -4.966  36.700  1.00  0.00    -0.323 N 
HETATM   29  H6  UNK     1      17.880  -4.614  36.557  1.00  0.00     0.169 HD
BRANCH  28  30
HETATM   30  C15 UNK     1      18.896  -6.350  37.002  1.00  0.00     0.035 A 
HETATM   31  C19 UNK     1      19.337  -6.746  38.251  1.00  0.00     0.029 A 
HETATM   32  C21 UNK     1      19.407  -8.107  38.548  1.00  0.00     0.002 A 
HETATM   33  C23 UNK     1      19.034  -9.049  37.590  1.00  0.00     0.000 A 
HETATM   34  C22 UNK     1      18.591  -8.631  36.335  1.00  0.00     0.002 A 
HETATM   35  C20 UNK     1      18.522  -7.270  36.038  1.00  0.00     0.029 A 
ENDBRANCH  28  30
ENDBRANCH   5  26
TORSDOF 6
ENDMDL
MODEL 2
REMARK VINA RESULT:      -9.2     18.373     22.216
REMARK  6 active torsions:
REMARK  status: ('A' for Active; 'I' for Inactive)
REMARK    1  A    between atoms: C11_20  and  O2_3 
REMARK    2  A    between atoms: C3_12  and  N1_8 
REMARK       I    between atoms: C9_18  and  N1_8 
REMARK    3  A    between atoms: C15_24  and  N2_9 
REMARK       I    between atoms: C7_16  and  N2_9 
REMARK    4  A    between atoms: C11_20  and  C2_11 
REMARK    5  A    between atoms: C4_13  and  C7_16 
REMARK    6  A    between atoms: C6_15  and  C9_18 
ROOT
HETATM    1  S1  UNK     1      19.104  -2.161  12.470  1.00  0.00    -0.065 SA
HETATM    2  C1  UNK     1      20.030  -4.545  12.707  1.00  0.00    -0.020 A 
HETATM    3  C2  UNK     1      20.192  -3.930  13.981  1.00  0.00     0.080 A 
HETATM    4  C3  UNK     1      19.732  -2.653  13.971  1.00  0.00     0.094 A 
HETATM    5  C4  UNK     1      19.450  -3.694  11.791  1.00  0.00     0.082 A 
HETATM    6  C5  UNK     1      20.439  -5.940  12.400  1.00  0.00     0.051 C 
ENDROOT
BRANCH   4   7
HETATM    7  N1  UNK     1      19.693  -1.694  14.988  1.00  0.00    -0.316 N 
HETATM    8  C9  UNK     1      18.673  -1.525  15.913  1.00  0.00     0.262 C 
HETATM    9  O4  UNK     1      17.626  -2.161  16.028  1.00  0.00    -0.267 OA
HETATM   10  H1  UNK     1      20.495  -1.072  15.008  1.00  0.00     0.169 HD
BRANCH   8  11
HETATM   11  C6  UNK     1      18.953  -0.423  16.841  1.00  0.00     0.108 A 
HETATM   12  C10 UNK     1      18.959  -0.731  18.143  1.00  0.00     0.037 A 
HETATM   13  C8  UNK     1      19.227   0.293  19.140  1.00  0.00    -0.001 A 
HETATM   14  C12 UNK     1      19.475   1.595  18.716  1.00  0.00     0.089 A 
HETATM   15  C14 UNK     1      19.242   0.016  20.508  1.00  0.00     0.014 A 
HETATM   16  O1  UNK     1      19.468   1.915  17.344  1.00  0.00    -0.274 OA
HETATM   17  C16 UNK     1      19.737   2.623  19.619  1.00  0.00     0.038 A 
HETATM   18  C13 UNK     1      19.215   0.956  16.368  1.00  0.00     0.304 A 
HETATM   19  O6  UNK     1      19.210   1.244  15.175  1.00  0.00    -0.259 OA
HETATM   20  C18 UNK     1      19.751   2.337  20.983  1.00  0.00     0.003 A 
HETATM   21  C17 UNK     1      19.504   1.037  21.427  1.00  0.00     0.001 A 
ENDBRANCH   8  11
ENDBRANCH   4   7
BRANCH   3  22
HETATM   22  C11 UNK     1      20.767  -4.557  15.146  1.00  0.00     0.296 C 
HETATM   23  O5  UNK     1      20.204  -5.445  15.802  1.00  0.00    -0.259 OA
BRANCH  22  24
HETATM   24  O2  UNK     1      22.017  -4.081  15.478  1.00  0.00    -0.322 OA
HETATM   25  C24 UNK     1      22.209  -3.657  16.832  1.00  0.00     0.213 C 
ENDBRANCH  22  24
ENDBRANCH   3  22
BRANCH   5  26
HETATM   26  C7  UNK     1      19.122  -3.928  10.421  1.00  0.00     0.263 C 
HETATM   27  O3  UNK     1      17.943  -4.071  10.021  1.00  0.00    -0.267 OA
HETATM   28  N2  UNK     1      20.210  -3.949   9.518  1.00  0.00    -0.323 N 
HETATM   29  H6  UNK     1      21.134  -3.821   9.925  1.00  0.00     0.169 HD
BRANCH  28  30
HETATM   30  C15 UNK     1      20.208  -4.120   8.110  1.00  0.00     0.035 A 
HETATM   31  C19 UNK     1      20.249  -3.004   7.294  1.00  0.00     0.029 A 
HETATM   32  C21 UNK     1      20.247  -3.172   5.910  1.00  0.00     0.002 A 
HETATM   33  C23 UNK     1      20.204  -4.454   5.364  1.00  0.00     0.000 A 
HETATM   34  C22 UNK     1      20.163  -5.569   6.201  1.00  0.00     0.002 A 
HETATM   35  C20 UNK     1      20.164  -5.401   7.586  1.00  0.00     0.029 A 
ENDBRANCH  28  30
ENDBRANCH   5  26
TORSDOF 6
ENDMDL
MODEL 3
REMARK VINA RESULT:      -9.1      5.925     11.468
REMARK  6 active torsions:
REMARK  status: ('A' for Active; 'I' for Inactive)
REMARK    1  A    between atoms: C11_20  and  O2_3 
REMARK    2  A    between atoms: C3_12  and  N1_8 
REMARK       I    between atoms: C9_18  and  N1_8 
REMARK    3  A    between atoms: C15_24  and  N2_9 
REMARK       I    between atoms: C7_16  and  N2_9 
REMARK    4  A    between atoms: C11_20  and  C2_11 
REMARK    5  A    between atoms: C4_13  and  C7_16 
REMARK    6  A    between atoms: C6_15  and  C9_18 
ROOT
HETATM    1  S1  UNK     1      16.910   6.653  31.604  1.00  0.00    -0.065 SA
HETATM    2  C1  UNK     1      18.440   7.818  33.308  1.00  0.00    -0.020 A 
HETATM    3  C2  UNK     1      19.096   6.605  32.951  1.00  0.00     0.080 A 
HETATM    4  C3  UNK     1      18.369   5.901  32.046  1.00  0.00     0.094 A 
HETATM    5  C4  UNK     1      17.239   7.969  32.648  1.00  0.00     0.082 A 
HETATM    6  C5  UNK     1      18.984   8.802  34.277  1.00  0.00     0.051 C 
ENDROOT
BRANCH   4   7
HETATM    7  N1  UNK     1      18.629   4.674  31.429  1.00  0.00    -0.316 N 
HETATM    8  C9  UNK     1      18.252   3.425  31.902  1.00  0.00     0.262 C 
HETATM    9  O4  UNK     1      17.631   3.147  32.926  1.00  0.00    -0.267 OA
HETATM   10  H1  UNK     1      19.162   4.743  30.567  1.00  0.00     0.169 HD
BRANCH   8  11
HETATM   11  C6  UNK     1      18.689   2.347  31.008  1.00  0.00     0.108 A 
HETATM   12  C10 UNK     1      19.119   1.225  31.597  1.00  0.00     0.037 A 
HETATM   13  C8  UNK     1      19.573   0.101  30.795  1.00  0.00    -0.001 A 
HETATM   14  C12 UNK     1      19.552   0.213  29.408  1.00  0.00     0.089 A 
HETATM   15  C14 UNK     1      20.029  -1.088  31.368  1.00  0.00     0.014 A 
HETATM   16  O1  UNK     1      19.098   1.395  28.792  1.00  0.00    -0.274 OA
HETATM   17  C16 UNK     1      19.974  -0.827  28.581  1.00  0.00     0.038 A 
HETATM   18  C13 UNK     1      18.659   2.488  29.533  1.00  0.00     0.304 A 
HETATM   19  O6  UNK     1      18.266   3.514  28.988  1.00  0.00    -0.259 OA
HETATM   20  C18 UNK     1      20.428  -2.010  29.162  1.00  0.00     0.003 A 
HETATM   21  C17 UNK     1      20.456  -2.140  30.552  1.00  0.00     0.001 A 
ENDBRANCH   8  11
ENDBRANCH   4   7
BRANCH   3  22
HETATM   22  C11 UNK     1      20.368   6.159  33.466  1.00  0.00     0.296 C 
HETATM   23  O5  UNK     1      20.492   5.386  34.427  1.00  0.00    -0.259 OA
BRANCH  22  24
HETATM   24  O2  UNK     1      21.455   6.671  32.791  1.00  0.00    -0.322 OA
HETATM   25  C24 UNK     1      22.001   5.865  31.741  1.00  0.00     0.213 C 
ENDBRANCH  22  24
ENDBRANCH   3  22
BRANCH   5  26
HETATM   26  C7  UNK     1      16.291   9.035  32.730  1.00  0.00     0.263 C 
HETATM   27  O3  UNK     1      15.481   9.292  31.809  1.00  0.00    -0.267 OA
HETATM   28  N2  UNK     1      16.287   9.771  33.937  1.00  0.00    -0.323 N 
HETATM   29  H6  UNK     1      16.975   9.493  34.634  1.00  0.00     0.169 HD
BRANCH  28  30
HETATM   30  C15 UNK     1      15.453  10.848  34.331  1.00  0.00     0.035 A 
HETATM   31  C19 UNK     1      14.156  10.586  34.733  1.00  0.00     0.029 A 
HETATM   32  C21 UNK     1      13.337  11.646  35.120  1.00  0.00     0.002 A 
HETATM   33  C23 UNK     1      13.828  12.950  35.100  1.00  0.00     0.000 A 
HETATM   34  C22 UNK     1      15.139  13.196  34.693  1.00  0.00     0.002 A 
HETATM   35  C20 UNK     1      15.959  12.136  34.304  1.00  0.00     0.029 A 
ENDBRANCH  28  30
ENDBRANCH   5  26
TORSDOF 6
ENDMDL
MODEL 4
REMARK VINA RESULT:      -9.1      4.285      7.222
REMARK  6 active torsions:
REMARK  status: ('A' for Active; 'I' for Inactive)
REMARK    1  A    between atoms: C11_20  and  O2_3 
REMARK    2  A    between atoms: C3_12  and  N1_8 
REMARK       I    between atoms: C9_18  and  N1_8 
REMARK    3  A    between atoms: C15_24  and  N2_9 
REMARK       I    between atoms: C7_16  and  N2_9 
REMARK    4  A    between atoms: C11_20  and  C2_11 
REMARK    5  A    between atoms: C4_13  and  C7_16 
REMARK    6  A    between atoms: C6_15  and  C9_18 
ROOT
HETATM    1  S1  UNK     1      22.390  -5.592  38.367  1.00  0.00    -0.065 SA
HETATM    2  C1  UNK     1      21.083  -7.803  38.305  1.00  0.00    -0.020 A 
HETATM    3  C2  UNK     1      20.217  -6.816  37.752  1.00  0.00     0.080 A 
HETATM    4  C3  UNK     1      20.812  -5.596  37.736  1.00  0.00     0.094 A 
HETATM    5  C4  UNK     1      22.298  -7.273  38.681  1.00  0.00     0.082 A 
HETATM    6  C5  UNK     1      20.719  -9.235  38.458  1.00  0.00     0.051 C 
ENDROOT
BRANCH   4   7
HETATM    7  N1  UNK     1      20.336  -4.361  37.287  1.00  0.00    -0.316 N 
HETATM    8  C9  UNK     1      20.064  -4.019  35.969  1.00  0.00     0.262 C 
HETATM    9  O4  UNK     1      20.181  -4.708  34.957  1.00  0.00    -0.267 OA
HETATM   10  H1  UNK     1      20.207  -3.670  38.020  1.00  0.00     0.169 HD
BRANCH   8  11
HETATM   11  C6  UNK     1      19.579  -2.639  35.851  1.00  0.00     0.108 A 
HETATM   12  C10 UNK     1      18.926  -2.147  36.910  1.00  0.00     0.037 A 
HETATM   13  C8  UNK     1      18.407  -0.789  36.888  1.00  0.00    -0.001 A 
HETATM   14  C12 UNK     1      18.600  -0.014  35.748  1.00  0.00     0.089 A 
HETATM   15  C14 UNK     1      17.720  -0.235  37.970  1.00  0.00     0.014 A 
HETATM   16  O1  UNK     1      19.288  -0.536  34.636  1.00  0.00    -0.274 OA
HETATM   17  C16 UNK     1      18.128   1.294  35.661  1.00  0.00     0.038 A 
HETATM   18  C13 UNK     1      19.796  -1.832  34.628  1.00  0.00     0.304 A 
HETATM   19  O6  UNK     1      20.393  -2.279  33.654  1.00  0.00    -0.259 OA
HETATM   20  C18 UNK     1      17.443   1.838  36.747  1.00  0.00     0.003 A 
HETATM   21  C17 UNK     1      17.239   1.076  37.898  1.00  0.00     0.001 A 
ENDBRANCH   8  11
ENDBRANCH   4   7
BRANCH   3  22
HETATM   22  C11 UNK     1      18.880  -7.054  37.264  1.00  0.00     0.296 C 
HETATM   23  O5  UNK     1      17.855  -6.669  37.844  1.00  0.00    -0.259 OA
BRANCH  22  24
HETATM   24  O2  UNK     1      18.835  -7.757  36.079  1.00  0.00    -0.322 OA
HETATM   25  C24 UNK     1      17.714  -7.508  35.224  1.00  0.00     0.213 C 
ENDBRANCH  22  24
ENDBRANCH   3  22
BRANCH   5  26
HETATM   26  C7  UNK     1      23.425  -7.924  39.270  1.00  0.00     0.263 C 
HETATM   27  O3  UNK     1      23.346  -8.589  40.329  1.00  0.00    -0.267 OA
HETATM   28  N2  UNK     1      24.645  -7.810  38.565  1.00  0.00    -0.323 N 
HETATM   29  H6  UNK     1      24.621  -7.255  37.711  1.00  0.00     0.169 HD
BRANCH  28  30
HETATM   30  C15 UNK     1      25.915  -8.365  38.868  1.00  0.00     0.035 A 
HETATM   31  C19 UNK     1      26.025  -9.730  39.067  1.00  0.00     0.029 A 
HETATM   32  C21 UNK     1      27.273 -10.275  39.364  1.00  0.00     0.002 A 
HETATM   33  C23 UNK     1      28.391  -9.448  39.458  1.00  0.00     0.000 A 
HETATM   34  C22 UNK     1      28.262  -8.074  39.253  1.00  0.00     0.002 A 
HETATM   35  C20 UNK     1      27.013  -7.528  38.956  1.00  0.00     0.029 A 
ENDBRANCH  28  30
ENDBRANCH   5  26
TORSDOF 6
ENDMDL
MODEL 5
REMARK VINA RESULT:      -9.0     19.510     23.161
REMARK  6 active torsions:
REMARK  status: ('A' for Active; 'I' for Inactive)
REMARK    1  A    between atoms: C11_20  and  O2_3 
REMARK    2  A    between atoms: C3_12  and  N1_8 
REMARK       I    between atoms: C9_18  and  N1_8 
REMARK    3  A    between atoms: C15_24  and  N2_9 
REMARK       I    between atoms: C7_16  and  N2_9 
REMARK    4  A    between atoms: C11_20  and  C2_11 
REMARK    5  A    between atoms: C4_13  and  C7_16 
REMARK    6  A    between atoms: C6_15  and  C9_18 
ROOT
HETATM    1  S1  UNK     1      19.416  -1.834  14.037  1.00  0.00    -0.065 SA
HETATM    2  C1  UNK     1      18.192  -3.838  15.079  1.00  0.00    -0.020 A 
HETATM    3  C2  UNK     1      18.735  -4.303  13.847  1.00  0.00     0.080 A 
HETATM    4  C3  UNK     1      19.410  -3.316  13.204  1.00  0.00     0.094 A 
HETATM    5  C4  UNK     1      18.487  -2.511  15.306  1.00  0.00     0.082 A 
HETATM    6  C5  UNK     1      17.401  -4.683  16.009  1.00  0.00     0.051 C 
ENDROOT
BRANCH   4   7
HETATM    7  N1  UNK     1      20.091  -3.328  11.984  1.00  0.00    -0.316 N 
HETATM    8  C9  UNK     1      19.515  -3.451  10.727  1.00  0.00     0.262 C 
HETATM    9  O4  UNK     1      18.326  -3.570  10.435  1.00  0.00    -0.267 OA
HETATM   10  H1  UNK     1      21.101  -3.257  12.067  1.00  0.00     0.169 HD
BRANCH   8  11
HETATM   11  C6  UNK     1      20.522  -3.428   9.659  1.00  0.00     0.108 A 
HETATM   12  C10 UNK     1      20.533  -4.480   8.832  1.00  0.00     0.037 A 
HETATM   13  C8  UNK     1      21.494  -4.548   7.743  1.00  0.00    -0.001 A 
HETATM   14  C12 UNK     1      22.399  -3.504   7.578  1.00  0.00     0.089 A 
HETATM   15  C14 UNK     1      21.541  -5.627   6.857  1.00  0.00     0.014 A 
HETATM   16  O1  UNK     1      22.383  -2.399   8.451  1.00  0.00    -0.274 OA
HETATM   17  C16 UNK     1      23.345  -3.508   6.556  1.00  0.00     0.038 A 
HETATM   18  C13 UNK     1      21.475  -2.306   9.502  1.00  0.00     0.304 A 
HETATM   19  O6  UNK     1      21.469  -1.340  10.258  1.00  0.00    -0.259 OA
HETATM   20  C18 UNK     1      23.385  -4.588   5.676  1.00  0.00     0.003 A 
HETATM   21  C17 UNK     1      22.486  -5.645   5.826  1.00  0.00     0.001 A 
ENDBRANCH   8  11
ENDBRANCH   4   7
BRANCH   3  22
HETATM   22  C11 UNK     1      18.601  -5.642  13.326  1.00  0.00     0.296 C 
HETATM   23  O5  UNK     1      17.513  -6.188  13.093  1.00  0.00    -0.259 OA
BRANCH  22  24
HETATM   24  O2  UNK     1      19.804  -6.277  13.103  1.00  0.00    -0.322 OA
HETATM   25  C24 UNK     1      20.605  -6.564  14.254  1.00  0.00     0.213 C 
ENDBRANCH  22  24
ENDBRANCH   3  22
BRANCH   5  26
HETATM   26  C7  UNK     1      18.130  -1.682  16.413  1.00  0.00     0.263 C 
HETATM   27  O3  UNK     1      17.022  -1.766  16.992  1.00  0.00    -0.267 OA
HETATM   28  N2  UNK     1      19.121  -0.775  16.853  1.00  0.00    -0.323 N 
HETATM   29  H6  UNK     1      19.994  -0.774  16.329  1.00  0.00     0.169 HD
BRANCH  28  30
HETATM   30  C15 UNK     1      19.083   0.143  17.934  1.00  0.00     0.035 A 
HETATM   31  C19 UNK     1      18.998   1.498  17.667  1.00  0.00     0.029 A 
HETATM   32  C21 UNK     1      18.961   2.400  18.730  1.00  0.00     0.002 A 
HETATM   33  C23 UNK     1      19.009   1.933  20.042  1.00  0.00     0.000 A 
HETATM   34  C22 UNK     1      19.094   0.563  20.293  1.00  0.00     0.002 A 
HETATM   35  C20 UNK     1      19.132  -0.339  19.230  1.00  0.00     0.029 A 
ENDBRANCH  28  30
ENDBRANCH   5  26
TORSDOF 6
ENDMDL
MODEL 6
REMARK VINA RESULT:      -8.8     19.365     23.013
REMARK  6 active torsions:
REMARK  status: ('A' for Active; 'I' for Inactive)
REMARK    1  A    between atoms: C11_20  and  O2_3 
REMARK    2  A    between atoms: C3_12  and  N1_8 
REMARK       I    between atoms: C9_18  and  N1_8 
REMARK    3  A    between atoms: C15_24  and  N2_9 
REMARK       I    between atoms: C7_16  and  N2_9 
REMARK    4  A    between atoms: C11_20  and  C2_11 
REMARK    5  A    between atoms: C4_13  and  C7_16 
REMARK    6  A    between atoms: C6_15  and  C9_18 
ROOT
HETATM    1  S1  UNK     1      19.127  -1.987  13.936  1.00  0.00    -0.065 SA
HETATM    2  C1  UNK     1      18.037  -3.967  15.157  1.00  0.00    -0.020 A 
HETATM    3  C2  UNK     1      18.495  -4.477  13.909  1.00  0.00     0.080 A 
HETATM    4  C3  UNK     1      19.094  -3.505  13.173  1.00  0.00     0.094 A 
HETATM    5  C4  UNK     1      18.316  -2.625  15.302  1.00  0.00     0.082 A 
HETATM    6  C5  UNK     1      17.341  -4.785  16.183  1.00  0.00     0.051 C 
ENDROOT
BRANCH   4   7
HETATM    7  N1  UNK     1      19.680  -3.559  11.905  1.00  0.00    -0.316 N 
HETATM    8  C9  UNK     1      19.569  -2.596  10.911  1.00  0.00     0.262 C 
HETATM    9  O4  UNK     1      18.954  -1.532  10.938  1.00  0.00    -0.267 OA
HETATM   10  H1  UNK     1      20.213  -4.405  11.725  1.00  0.00     0.169 HD
BRANCH   8  11
HETATM   11  C6  UNK     1      20.310  -2.971   9.701  1.00  0.00     0.108 A 
HETATM   12  C10 UNK     1      21.543  -2.466   9.580  1.00  0.00     0.037 A 
HETATM   13  C8  UNK     1      22.355  -2.780   8.415  1.00  0.00    -0.001 A 
HETATM   14  C12 UNK     1      21.827  -3.612   7.432  1.00  0.00     0.089 A 
HETATM   15  C14 UNK     1      23.646  -2.275   8.248  1.00  0.00     0.014 A 
HETATM   16  O1  UNK     1      20.528  -4.142   7.564  1.00  0.00    -0.274 OA
HETATM   17  C16 UNK     1      22.551  -3.951   6.291  1.00  0.00     0.038 A 
HETATM   18  C13 UNK     1      19.728  -3.859   8.667  1.00  0.00     0.304 A 
HETATM   19  O6  UNK     1      18.599  -4.324   8.773  1.00  0.00    -0.259 OA
HETATM   20  C18 UNK     1      23.839  -3.442   6.133  1.00  0.00     0.003 A 
HETATM   21  C17 UNK     1      24.385  -2.606   7.108  1.00  0.00     0.001 A 
ENDBRANCH   8  11
ENDBRANCH   4   7
BRANCH   3  22
HETATM   22  C11 UNK     1      18.356  -5.840  13.459  1.00  0.00     0.296 C 
HETATM   23  O5  UNK     1      17.614  -6.190  12.530  1.00  0.00    -0.259 OA
BRANCH  22  24
HETATM   24  O2  UNK     1      19.129  -6.741  14.160  1.00  0.00    -0.322 OA
HETATM   25  C24 UNK     1      20.548  -6.628  14.008  1.00  0.00     0.213 C 
ENDBRANCH  22  24
ENDBRANCH   3  22
BRANCH   5  26
HETATM   26  C7  UNK     1      18.024  -1.754  16.396  1.00  0.00     0.263 C 
HETATM   27  O3  UNK     1      16.937  -1.789  17.018  1.00  0.00    -0.267 OA
HETATM   28  N2  UNK     1      19.055  -0.863  16.772  1.00  0.00    -0.323 N 
HETATM   29  H6  UNK     1      19.908  -0.903  16.216  1.00  0.00     0.169 HD
BRANCH  28  30
HETATM   30  C15 UNK     1      19.084   0.087  17.825  1.00  0.00     0.035 A 
HETATM   31  C19 UNK     1      19.012   1.434  17.521  1.00  0.00     0.029 A 
HETATM   32  C21 UNK     1      19.040   2.368  18.557  1.00  0.00     0.002 A 
HETATM   33  C23 UNK     1      19.140   1.939  19.879  1.00  0.00     0.000 A 
HETATM   34  C22 UNK     1      19.211   0.576  20.167  1.00  0.00     0.002 A 
HETATM   35  C20 UNK     1      19.184  -0.359  19.132  1.00  0.00     0.029 A 
ENDBRANCH  28  30
ENDBRANCH   5  26
TORSDOF 6
ENDMDL
MODEL 7
REMARK VINA RESULT:      -8.8      3.391      6.348
REMARK  6 active torsions:
REMARK  status: ('A' for Active; 'I' for Inactive)
REMARK    1  A    between atoms: C11_20  and  O2_3 
REMARK    2  A    between atoms: C3_12  and  N1_8 
REMARK       I    between atoms: C9_18  and  N1_8 
REMARK    3  A    between atoms: C15_24  and  N2_9 
REMARK       I    between atoms: C7_16  and  N2_9 
REMARK    4  A    between atoms: C11_20  and  C2_11 
REMARK    5  A    between atoms: C4_13  and  C7_16 
REMARK    6  A    between atoms: C6_15  and  C9_18 
ROOT
HETATM    1  S1  UNK     1      18.020   2.397  33.803  1.00  0.00    -0.065 SA
HETATM    2  C1  UNK     1      18.780   1.543  31.502  1.00  0.00    -0.020 A 
HETATM    3  C2  UNK     1      18.614   2.951  31.366  1.00  0.00     0.080 A 
HETATM    4  C3  UNK     1      18.210   3.512  32.535  1.00  0.00     0.094 A 
HETATM    5  C4  UNK     1      18.489   1.108  32.777  1.00  0.00     0.082 A 
HETATM    6  C5  UNK     1      19.213   0.647  30.400  1.00  0.00     0.051 C 
ENDROOT
BRANCH   4   7
HETATM    7  N1  UNK     1      17.931   4.845  32.852  1.00  0.00    -0.316 N 
HETATM    8  C9  UNK     1      18.683   5.662  33.684  1.00  0.00     0.262 C 
HETATM    9  O4  UNK     1      19.716   5.393  34.295  1.00  0.00    -0.267 OA
HETATM   10  H1  UNK     1      17.082   5.207  32.429  1.00  0.00     0.169 HD
BRANCH   8  11
HETATM   11  C6  UNK     1      18.105   7.006  33.800  1.00  0.00     0.108 A 
HETATM   12  C10 UNK     1      16.769   7.075  33.830  1.00  0.00     0.037 A 
HETATM   13  C8  UNK     1      16.103   8.363  33.944  1.00  0.00    -0.001 A 
HETATM   14  C12 UNK     1      16.877   9.516  34.018  1.00  0.00     0.089 A 
HETATM   15  C14 UNK     1      14.712   8.482  33.979  1.00  0.00     0.014 A 
HETATM   16  O1  UNK     1      18.283   9.438  33.987  1.00  0.00    -0.274 OA
HETATM   17  C16 UNK     1      16.302  10.781  34.127  1.00  0.00     0.038 A 
HETATM   18  C13 UNK     1      18.949   8.220  33.879  1.00  0.00     0.304 A 
HETATM   19  O6  UNK     1      20.173   8.162  33.851  1.00  0.00    -0.259 OA
HETATM   20  C18 UNK     1      14.913  10.890  34.161  1.00  0.00     0.003 A 
HETATM   21  C17 UNK     1      14.119   9.744  34.087  1.00  0.00     0.001 A 
ENDBRANCH   8  11
ENDBRANCH   4   7
BRANCH   3  22
HETATM   22  C11 UNK     1      18.841   3.707  30.158  1.00  0.00     0.296 C 
HETATM   23  O5  UNK     1      18.355   3.413  29.057  1.00  0.00    -0.259 OA
BRANCH  22  24
HETATM   24  O2  UNK     1      19.655   4.806  30.332  1.00  0.00    -0.322 OA
HETATM   25  C24 UNK     1      19.133   6.070  29.908  1.00  0.00     0.213 C 
ENDBRANCH  22  24
ENDBRANCH   3  22
BRANCH   5  26
HETATM   26  C7  UNK     1      18.530  -0.215  33.313  1.00  0.00     0.263 C 
HETATM   27  O3  UNK     1      18.097  -1.212  32.690  1.00  0.00    -0.267 OA
HETATM   28  N2  UNK     1      19.131  -0.350  34.586  1.00  0.00    -0.323 N 
HETATM   29  H6  UNK     1      19.460   0.510  35.021  1.00  0.00     0.169 HD
BRANCH  28  30
HETATM   30  C15 UNK     1      19.352  -1.520  35.357  1.00  0.00     0.035 A 
HETATM   31  C19 UNK     1      20.175  -2.513  34.858  1.00  0.00     0.029 A 
HETATM   32  C21 UNK     1      20.392  -3.662  35.616  1.00  0.00     0.002 A 
HETATM   33  C23 UNK     1      19.783  -3.801  36.862  1.00  0.00     0.000 A 
HETATM   34  C22 UNK     1      18.956  -2.790  37.351  1.00  0.00     0.002 A 
HETATM   35  C20 UNK     1      18.738  -1.639  36.592  1.00  0.00     0.029 A 
ENDBRANCH  28  30
ENDBRANCH   5  26
TORSDOF 6
ENDMDL
MODEL 8
REMARK VINA RESULT:      -8.8      2.547      4.552
REMARK  6 active torsions:
REMARK  status: ('A' for Active; 'I' for Inactive)
REMARK    1  A    between atoms: C11_20  and  O2_3 
REMARK    2  A    between atoms: C3_12  and  N1_8 
REMARK       I    between atoms: C9_18  and  N1_8 
REMARK    3  A    between atoms: C15_24  and  N2_9 
REMARK       I    between atoms: C7_16  and  N2_9 
REMARK    4  A    between atoms: C11_20  and  C2_11 
REMARK    5  A    between atoms: C4_13  and  C7_16 
REMARK    6  A    between atoms: C6_15  and  C9_18 
ROOT
HETATM    1  S1  UNK     1      17.986   0.964  34.761  1.00  0.00    -0.065 SA
HETATM    2  C1  UNK     1      18.997  -0.603  32.994  1.00  0.00    -0.020 A 
HETATM    3  C2  UNK     1      18.776   0.642  32.339  1.00  0.00     0.080 A 
HETATM    4  C3  UNK     1      18.238   1.555  33.188  1.00  0.00     0.094 A 
HETATM    5  C4  UNK     1      18.611  -0.567  34.317  1.00  0.00     0.082 A 
HETATM    6  C5  UNK     1      19.574  -1.800  32.331  1.00  0.00     0.051 C 
ENDROOT
BRANCH   4   7
HETATM    7  N1  UNK     1      17.866   2.885  32.972  1.00  0.00    -0.316 N 
HETATM    8  C9  UNK     1      18.401   3.997  33.608  1.00  0.00     0.262 C 
HETATM    9  O4  UNK     1      19.283   4.042  34.463  1.00  0.00    -0.267 OA
HETATM   10  H1  UNK     1      17.120   3.006  32.294  1.00  0.00     0.169 HD
BRANCH   8  11
HETATM   11  C6  UNK     1      17.779   5.243  33.145  1.00  0.00     0.108 A 
HETATM   12  C10 UNK     1      17.114   5.951  34.065  1.00  0.00     0.037 A 
HETATM   13  C8  UNK     1      16.465   7.201  33.703  1.00  0.00    -0.001 A 
HETATM   14  C12 UNK     1      16.546   7.643  32.386  1.00  0.00     0.089 A 
HETATM   15  C14 UNK     1      15.761   7.971  34.630  1.00  0.00     0.014 A 
HETATM   16  O1  UNK     1      17.247   6.894  31.421  1.00  0.00    -0.274 OA
HETATM   17  C16 UNK     1      15.945   8.831  31.973  1.00  0.00     0.038 A 
HETATM   18  C13 UNK     1      17.879   5.695  31.738  1.00  0.00     0.304 A 
HETATM   19  O6  UNK     1      18.486   5.050  30.891  1.00  0.00    -0.259 OA
HETATM   20  C18 UNK     1      15.244   9.593  32.905  1.00  0.00     0.003 A 
HETATM   21  C17 UNK     1      15.152   9.165  34.231  1.00  0.00     0.001 A 
ENDBRANCH   8  11
ENDBRANCH   4   7
BRANCH   3  22
HETATM   22  C11 UNK     1      19.076   0.924  30.956  1.00  0.00     0.296 C 
HETATM   23  O5  UNK     1      20.145   0.623  30.404  1.00  0.00    -0.259 OA
BRANCH  22  24
HETATM   24  O2  UNK     1      18.060   1.568  30.284  1.00  0.00    -0.322 OA
HETATM   25  C24 UNK     1      18.202   1.696  28.866  1.00  0.00     0.213 C 
ENDBRANCH  22  24
ENDBRANCH   3  22
BRANCH   5  26
HETATM   26  C7  UNK     1      18.667  -1.598  35.303  1.00  0.00     0.263 C 
HETATM   27  O3  UNK     1      17.802  -1.724  36.201  1.00  0.00    -0.267 OA
HETATM   28  N2  UNK     1      19.744  -2.507  35.190  1.00  0.00    -0.323 N 
HETATM   29  H6  UNK     1      20.399  -2.335  34.430  1.00  0.00     0.169 HD
BRANCH  28  30
HETATM   30  C15 UNK     1      20.050  -3.642  35.984  1.00  0.00     0.035 A 
HETATM   31  C19 UNK     1      20.609  -3.461  37.236  1.00  0.00     0.029 A 
HETATM   32  C21 UNK     1      20.909  -4.577  38.015  1.00  0.00     0.002 A 
HETATM   33  C23 UNK     1      20.646  -5.857  37.530  1.00  0.00     0.000 A 
HETATM   34  C22 UNK     1      20.082  -6.022  36.265  1.00  0.00     0.002 A 
HETATM   35  C20 UNK     1      19.782  -4.905  35.485  1.00  0.00     0.029 A 
ENDBRANCH  28  30
ENDBRANCH   5  26
TORSDOF 6
ENDMDL
MODEL 9
REMARK VINA RESULT:      -8.7      3.610      6.727
REMARK  6 active torsions:
REMARK  status: ('A' for Active; 'I' for Inactive)
REMARK    1  A    between atoms: C11_20  and  O2_3 
REMARK    2  A    between atoms: C3_12  and  N1_8 
REMARK       I    between atoms: C9_18  and  N1_8 
REMARK    3  A    between atoms: C15_24  and  N2_9 
REMARK       I    between atoms: C7_16  and  N2_9 
REMARK    4  A    between atoms: C11_20  and  C2_11 
REMARK    5  A    between atoms: C4_13  and  C7_16 
REMARK    6  A    between atoms: C6_15  and  C9_18 
ROOT
HETATM    1  S1  UNK     1      17.942   2.945  33.777  1.00  0.00    -0.065 SA
HETATM    2  C1  UNK     1      18.713   2.179  31.449  1.00  0.00    -0.020 A 
HETATM    3  C2  UNK     1      18.506   3.585  31.354  1.00  0.00     0.080 A 
HETATM    4  C3  UNK     1      18.092   4.101  32.540  1.00  0.00     0.094 A 
HETATM    5  C4  UNK     1      18.443   1.701  32.713  1.00  0.00     0.082 A 
HETATM    6  C5  UNK     1      19.166   1.328  30.320  1.00  0.00     0.051 C 
ENDROOT
BRANCH   4   7
HETATM    7  N1  UNK     1      17.776   5.415  32.896  1.00  0.00    -0.316 N 
HETATM    8  C9  UNK     1      18.535   6.248  33.707  1.00  0.00     0.262 C 
HETATM    9  O4  UNK     1      19.606   6.011  34.263  1.00  0.00    -0.267 OA
HETATM   10  H1  UNK     1      16.894   5.750  32.521  1.00  0.00     0.169 HD
BRANCH   8  11
HETATM   11  C6  UNK     1      17.910   7.565  33.877  1.00  0.00     0.108 A 
HETATM   12  C10 UNK     1      18.722   8.623  33.781  1.00  0.00     0.037 A 
HETATM   13  C8  UNK     1      18.195   9.970  33.935  1.00  0.00    -0.001 A 
HETATM   14  C12 UNK     1      16.837  10.136  34.185  1.00  0.00     0.089 A 
HETATM   15  C14 UNK     1      19.007  11.103  33.842  1.00  0.00     0.014 A 
HETATM   16  O1  UNK     1      15.985   9.018  34.284  1.00  0.00    -0.274 OA
HETATM   17  C16 UNK     1      16.268  11.398  34.343  1.00  0.00     0.038 A 
HETATM   18  C13 UNK     1      16.460   7.718  34.142  1.00  0.00     0.304 A 
HETATM   19  O6  UNK     1      15.712   6.751  34.232  1.00  0.00    -0.259 OA
HETATM   20  C18 UNK     1      17.086  12.523  34.249  1.00  0.00     0.003 A 
HETATM   21  C17 UNK     1      18.451  12.377  34.000  1.00  0.00     0.001 A 
ENDBRANCH   8  11
ENDBRANCH   4   7
BRANCH   3  22
HETATM   22  C11 UNK     1      18.703   4.381  30.167  1.00  0.00     0.296 C 
HETATM   23  O5  UNK     1      18.487   3.973  29.017  1.00  0.00    -0.259 OA
BRANCH  22  24
HETATM   24  O2  UNK     1      19.160   5.657  30.420  1.00  0.00    -0.322 OA
HETATM   25  C24 UNK     1      20.578   5.828  30.517  1.00  0.00     0.213 C 
ENDBRANCH  22  24
ENDBRANCH   3  22
BRANCH   5  26
HETATM   26  C7  UNK     1      18.525   0.365  33.212  1.00  0.00     0.263 C 
HETATM   27  O3  UNK     1      18.336  -0.641  32.488  1.00  0.00    -0.267 OA
HETATM   28  N2  UNK     1      18.876   0.232  34.575  1.00  0.00    -0.323 N 
HETATM   29  H6  UNK     1      19.016   1.099  35.089  1.00  0.00     0.169 HD
BRANCH  28  30
HETATM   30  C15 UNK     1      19.071  -0.945  35.343  1.00  0.00     0.035 A 
HETATM   31  C19 UNK     1      18.337  -1.125  36.501  1.00  0.00     0.029 A 
HETATM   32  C21 UNK     1      18.528  -2.282  37.255  1.00  0.00     0.002 A 
HETATM   33  C23 UNK     1      19.451  -3.240  36.839  1.00  0.00     0.000 A 
HETATM   34  C22 UNK     1      20.183  -3.043  35.669  1.00  0.00     0.002 A 
HETATM   35  C20 UNK     1      19.992  -1.885  34.914  1.00  0.00     0.029 A 
ENDBRANCH  28  30
ENDBRANCH   5  26
TORSDOF 6
ENDMDL
MODEL 10
REMARK VINA RESULT:      -8.6     26.563     29.524
REMARK  6 active torsions:
REMARK  status: ('A' for Active; 'I' for Inactive)
REMARK    1  A    between atoms: C11_20  and  O2_3 
REMARK    2  A    between atoms: C3_12  and  N1_8 
REMARK       I    between atoms: C9_18  and  N1_8 
REMARK    3  A    between atoms: C15_24  and  N2_9 
REMARK       I    between atoms: C7_16  and  N2_9 
REMARK    4  A    between atoms: C11_20  and  C2_11 
REMARK    5  A    between atoms: C4_13  and  C7_16 
REMARK    6  A    between atoms: C6_15  and  C9_18 
ROOT
HETATM    1  S1  UNK     1      20.535  11.773   9.412  1.00  0.00    -0.065 SA
HETATM    2  C1  UNK     1      20.899  13.357   7.422  1.00  0.00    -0.020 A 
HETATM    3  C2  UNK     1      19.679  12.670   7.163  1.00  0.00     0.080 A 
HETATM    4  C3  UNK     1      19.385  11.797   8.161  1.00  0.00     0.094 A 
HETATM    5  C4  UNK     1      21.471  12.964   8.613  1.00  0.00     0.082 A 
HETATM    6  C5  UNK     1      21.488  14.375   6.516  1.00  0.00     0.051 C 
ENDROOT
BRANCH   4   7
HETATM    7  N1  UNK     1      18.300  10.930   8.318  1.00  0.00    -0.316 N 
HETATM    8  C9  UNK     1      17.515  10.799   9.454  1.00  0.00     0.262 C 
HETATM    9  O4  UNK     1      17.606  11.399  10.524  1.00  0.00    -0.267 OA
HETATM   10  H1  UNK     1      18.112  10.345   7.509  1.00  0.00     0.169 HD
BRANCH   8  11
HETATM   11  C6  UNK     1      16.460   9.794   9.278  1.00  0.00     0.108 A 
HETATM   12  C10 UNK     1      16.667   8.609   9.864  1.00  0.00     0.037 A 
HETATM   13  C8  UNK     1      15.679   7.549   9.746  1.00  0.00    -0.001 A 
HETATM   14  C12 UNK     1      14.519   7.789   9.015  1.00  0.00     0.089 A 
HETATM   15  C14 UNK     1      15.853   6.297  10.340  1.00  0.00     0.014 A 
HETATM   16  O1  UNK     1      14.306   9.038   8.401  1.00  0.00    -0.274 OA
HETATM   17  C16 UNK     1      13.533   6.816   8.863  1.00  0.00     0.038 A 
HETATM   18  C13 UNK     1      15.233  10.072   8.496  1.00  0.00     0.304 A 
HETATM   19  O6  UNK     1      15.039  11.156   7.957  1.00  0.00    -0.259 OA
HETATM   20  C18 UNK     1      13.716   5.570   9.459  1.00  0.00     0.003 A 
HETATM   21  C17 UNK     1      14.873   5.311  10.196  1.00  0.00     0.001 A 
ENDBRANCH   8  11
ENDBRANCH   4   7
BRANCH   3  22
HETATM   22  C11 UNK     1      18.843  12.858   6.002  1.00  0.00     0.296 C 
HETATM   23  O5  UNK     1      19.158  12.498   4.858  1.00  0.00    -0.259 OA
BRANCH  22  24
HETATM   24  O2  UNK     1      17.644  13.481   6.272  1.00  0.00    -0.322 OA
HETATM   25  C24 UNK     1      17.396  14.722   5.602  1.00  0.00     0.213 C 
ENDBRANCH  22  24
ENDBRANCH   3  22
BRANCH   5  26
HETATM   26  C7  UNK     1      22.683  13.409   9.225  1.00  0.00     0.263 C 
HETATM   27  O3  UNK     1      23.165  14.548   9.023  1.00  0.00    -0.267 OA
HETATM   28  N2  UNK     1      23.299  12.498  10.114  1.00  0.00    -0.323 N 
HETATM   29  H6  UNK     1      22.839  11.597  10.223  1.00  0.00     0.169 HD
BRANCH  28  30
HETATM   30  C15 UNK     1      24.475  12.657  10.891  1.00  0.00     0.035 A 
HETATM   31  C19 UNK     1      25.619  11.965  10.535  1.00  0.00     0.029 A 
HETATM   32  C21 UNK     1      26.774  12.122  11.299  1.00  0.00     0.002 A 
HETATM   33  C23 UNK     1      26.768  12.967  12.408  1.00  0.00     0.000 A 
HETATM   34  C22 UNK     1      25.605  13.657  12.752  1.00  0.00     0.002 A 
HETATM   35  C20 UNK     1      24.449  13.501  11.988  1.00  0.00     0.029 A 
ENDBRANCH  28  30
ENDBRANCH   5  26
TORSDOF 6
ENDMDL
