MODEL 1
REMARK VINA RESULT:      -9.9      0.000      0.000
REMARK  5 active torsions:
REMARK  status: ('A' for Active; 'I' for Inactive)
REMARK    1  A    between atoms: C3_10  and  N1_6 
REMARK       I    between atoms: C9_16  and  N1_6 
REMARK       I    between atoms: C14_21  and  N2_7 
REMARK    2  A    between atoms: C1_8  and  C2_9 
REMARK    3  A    between atoms: C1_8  and  C6_13 
REMARK    4  A    between atoms: C14_21  and  C4_11 
REMARK    5  A    between atoms: C7_14  and  C9_16 
ROOT
HETATM    1  S1  UNK     1      19.919  -2.071  35.290  1.00  0.00    -0.076 SA
HETATM    2  C2  UNK     1      19.556  -2.727  36.829  1.00  0.00    -0.010 A 
HETATM    3  C3  UNK     1      19.016  -0.688  35.656  1.00  0.00     0.093 A 
HETATM    4  C4  UNK     1      18.451  -0.684  36.878  1.00  0.00     0.066 A 
HETATM    5  C5  UNK     1      18.765  -1.885  37.578  1.00  0.00     0.035 A 
ENDROOT
BRANCH   3   6
HETATM    6  N1  UNK     1      18.970   0.290  34.632  1.00  0.00    -0.316 N 
HETATM    7  C9  UNK     1      17.849   0.777  33.975  1.00  0.00     0.262 C 
HETATM    8  O2  UNK     1      16.672   0.461  34.148  1.00  0.00    -0.267 OA
HETATM    9  H4  UNK     1      19.884   0.667  34.392  1.00  0.00     0.169 HD
BRANCH   7  10
HETATM   10  C7  UNK     1      18.192   1.788  32.968  1.00  0.00     0.108 A 
HETATM   11  C10 UNK     1      18.008   3.065  33.326  1.00  0.00     0.037 A 
HETATM   12  C8  UNK     1      18.321   4.139  32.396  1.00  0.00    -0.001 A 
HETATM   13  C11 UNK     1      18.810   3.816  31.135  1.00  0.00     0.089 A 
HETATM   14  C16 UNK     1      18.145   5.485  32.727  1.00  0.00     0.014 A 
HETATM   15  O1  UNK     1      19.001   2.471  30.764  1.00  0.00    -0.274 OA
HETATM   16  C17 UNK     1      19.127   4.798  30.198  1.00  0.00     0.038 A 
HETATM   17  C15 UNK     1      18.713   1.421  31.632  1.00  0.00     0.304 A 
HETATM   18  O4  UNK     1      18.881   0.253  31.301  1.00  0.00    -0.259 OA
HETATM   19  C22 UNK     1      18.950   6.137  30.535  1.00  0.00     0.003 A 
HETATM   20  C21 UNK     1      18.460   6.480  31.798  1.00  0.00     0.001 A 
ENDBRANCH   7  10
ENDBRANCH   3   6
BRANCH   4  21
HETATM   21  C14 UNK     1      17.642   0.387  37.400  1.00  0.00     0.252 C 
HETATM   22  O3  UNK     1      18.103   1.315  38.092  1.00  0.00    -0.268 OA
HETATM   23  N2  UNK     1      16.284   0.381  37.083  1.00  0.00    -0.366 N 
HETATM   24  H15 UNK     1      15.836  -0.332  36.520  1.00  0.00     0.159 HD
HETATM   25  H16 UNK     1      15.679   1.121  37.424  1.00  0.00     0.159 HD
ENDBRANCH   4  21
BRANCH   2  26
HETATM   26  C1  UNK     1      20.090  -4.057  37.196  1.00  0.00     0.084 C 
BRANCH  26  27
HETATM   27  C6  UNK     1      19.361  -5.226  36.552  1.00  0.00    -0.053 A 
HETATM   28  C12 UNK     1      20.011  -5.968  35.587  1.00  0.00     0.007 A 
HETATM   29  C18 UNK     1      19.341  -7.041  34.996  1.00  0.00     0.001 A 
HETATM   30  C20 UNK     1      18.036  -7.347  35.382  1.00  0.00     0.000 A 
HETATM   31  C19 UNK     1      17.400  -6.581  36.361  1.00  0.00     0.001 A 
HETATM   32  C13 UNK     1      18.070  -5.509  36.951  1.00  0.00     0.007 A 
ENDBRANCH  26  27
ENDBRANCH   2  26
TORSDOF 5
ENDMDL
MODEL 2
REMARK VINA RESULT:      -9.4      4.460      9.772
REMARK  5 active torsions:
REMARK  status: ('A' for Active; 'I' for Inactive)
REMARK    1  A    between atoms: C3_10  and  N1_6 
REMARK       I    between atoms: C9_16  and  N1_6 
REMARK       I    between atoms: C14_21  and  N2_7 
REMARK    2  A    between atoms: C1_8  and  C2_9 
REMARK    3  A    between atoms: C1_8  and  C6_13 
REMARK    4  A    between atoms: C14_21  and  C4_11 
REMARK    5  A    between atoms: C7_14  and  C9_16 
ROOT
HETATM    1  S1  UNK     1      18.257   4.845  33.680  1.00  0.00    -0.076 SA
HETATM    2  C2  UNK     1      18.118   6.548  33.553  1.00  0.00    -0.010 A 
HETATM    3  C3  UNK     1      18.757   4.756  32.066  1.00  0.00     0.093 A 
HETATM    4  C4  UNK     1      18.828   5.938  31.426  1.00  0.00     0.066 A 
HETATM    5  C5  UNK     1      18.453   7.002  32.297  1.00  0.00     0.035 A 
ENDROOT
BRANCH   3   6
HETATM    6  N1  UNK     1      19.036   3.450  31.594  1.00  0.00    -0.316 N 
HETATM    7  C9  UNK     1      18.169   2.577  30.954  1.00  0.00     0.262 C 
HETATM    8  O2  UNK     1      16.985   2.758  30.666  1.00  0.00    -0.267 OA
HETATM    9  H4  UNK     1      20.000   3.164  31.745  1.00  0.00     0.169 HD
BRANCH   7  10
HETATM   10  C7  UNK     1      18.815   1.305  30.609  1.00  0.00     0.108 A 
HETATM   11  C10 UNK     1      19.179   0.529  31.638  1.00  0.00     0.037 A 
HETATM   12  C8  UNK     1      19.826  -0.751  31.398  1.00  0.00    -0.001 A 
HETATM   13  C11 UNK     1      20.060  -1.151  30.086  1.00  0.00     0.089 A 
HETATM   14  C16 UNK     1      20.221  -1.593  32.440  1.00  0.00     0.014 A 
HETATM   15  O1  UNK     1      19.677  -0.330  29.009  1.00  0.00    -0.274 OA
HETATM   16  C17 UNK     1      20.677  -2.364  29.788  1.00  0.00     0.038 A 
HETATM   17  C15 UNK     1      19.053   0.900  29.206  1.00  0.00     0.304 A 
HETATM   18  O4  UNK     1      18.723   1.608  28.262  1.00  0.00    -0.259 OA
HETATM   19  C22 UNK     1      21.068  -3.198  30.833  1.00  0.00     0.003 A 
HETATM   20  C21 UNK     1      20.840  -2.813  32.156  1.00  0.00     0.001 A 
ENDBRANCH   7  10
ENDBRANCH   3   6
BRANCH   4  21
HETATM   21  C14 UNK     1      19.230   6.099  30.052  1.00  0.00     0.252 C 
HETATM   22  O3  UNK     1      20.421   6.151  29.691  1.00  0.00    -0.268 OA
HETATM   23  N2  UNK     1      18.221   6.176  29.093  1.00  0.00    -0.366 N 
HETATM   24  H15 UNK     1      17.231   6.134  29.305  1.00  0.00     0.159 HD
HETATM   25  H16 UNK     1      18.459   6.283  28.112  1.00  0.00     0.159 HD
ENDBRANCH   4  21
BRANCH   2  26
HETATM   26  C1  UNK     1      17.678   7.331  34.728  1.00  0.00     0.084 C 
BRANCH  26  27
HETATM   27  C6  UNK     1      16.488   8.242  34.465  1.00  0.00    -0.053 A 
HETATM   28  C12 UNK     1      15.267   7.675  34.161  1.00  0.00     0.007 A 
HETATM   29  C18 UNK     1      14.176   8.511  33.920  1.00  0.00     0.001 A 
HETATM   30  C20 UNK     1      14.330   9.896  33.988  1.00  0.00     0.000 A 
HETATM   31  C19 UNK     1      15.575  10.445  34.297  1.00  0.00     0.001 A 
HETATM   32  C13 UNK     1      16.665   9.609  34.538  1.00  0.00     0.007 A 
ENDBRANCH  26  27
ENDBRANCH   2  26
TORSDOF 5
ENDMDL
MODEL 3
REMARK VINA RESULT:      -9.3     25.688     27.958
REMARK  5 active torsions:
REMARK  status: ('A' for Active; 'I' for Inactive)
REMARK    1  A    between atoms: C3_10  and  N1_6 
REMARK       I    between atoms: C9_16  and  N1_6 
REMARK       I    between atoms: C14_21  and  N2_7 
REMARK    2  A    between atoms: C1_8  and  C2_9 
REMARK    3  A    between atoms: C1_8  and  C6_13 
REMARK    4  A    between atoms: C14_21  and  C4_11 
REMARK    5  A    between atoms: C7_14  and  C9_16 
ROOT
HETATM    1  S1  UNK     1      12.179   5.285   9.666  1.00  0.00    -0.076 SA
HETATM    2  C2  UNK     1      13.211   5.821   8.408  1.00  0.00    -0.010 A 
HETATM    3  C3  UNK     1      10.838   5.446   8.647  1.00  0.00     0.093 A 
HETATM    4  C4  UNK     1      11.115   5.883   7.405  1.00  0.00     0.066 A 
HETATM    5  C5  UNK     1      12.515   6.106   7.254  1.00  0.00     0.035 A 
ENDROOT
BRANCH   3   6
HETATM    6  N1  UNK     1       9.594   5.102   9.231  1.00  0.00    -0.316 N 
HETATM    7  C9  UNK     1       8.618   5.962   9.716  1.00  0.00     0.262 C 
HETATM    8  O2  UNK     1       8.634   7.192   9.737  1.00  0.00    -0.267 OA
HETATM    9  H4  UNK     1       9.427   4.100   9.265  1.00  0.00     0.169 HD
BRANCH   7  10
HETATM   10  C7  UNK     1       7.459   5.239  10.251  1.00  0.00     0.108 A 
HETATM   11  C10 UNK     1       7.011   5.642  11.447  1.00  0.00     0.037 A 
HETATM   12  C8  UNK     1       5.865   4.988  12.060  1.00  0.00    -0.001 A 
HETATM   13  C11 UNK     1       5.248   3.941  11.384  1.00  0.00     0.089 A 
HETATM   14  C16 UNK     1       5.365   5.376  13.305  1.00  0.00     0.014 A 
HETATM   15  O1  UNK     1       5.724   3.521  10.127  1.00  0.00    -0.274 OA
HETATM   16  C17 UNK     1       4.147   3.272  11.916  1.00  0.00     0.038 A 
HETATM   17  C15 UNK     1       6.816   4.129   9.514  1.00  0.00     0.304 A 
HETATM   18  O4  UNK     1       7.224   3.756   8.419  1.00  0.00    -0.259 OA
HETATM   19  C22 UNK     1       3.654   3.664  13.158  1.00  0.00     0.003 A 
HETATM   20  C21 UNK     1       4.261   4.714  13.851  1.00  0.00     0.001 A 
ENDBRANCH   7  10
ENDBRANCH   3   6
BRANCH   4  21
HETATM   21  C14 UNK     1      10.131   6.093   6.374  1.00  0.00     0.252 C 
HETATM   22  O3  UNK     1       8.980   5.620   6.424  1.00  0.00    -0.268 OA
HETATM   23  N2  UNK     1      10.497   6.888   5.289  1.00  0.00    -0.366 N 
HETATM   24  H15 UNK     1      11.409   7.315   5.180  1.00  0.00     0.159 HD
HETATM   25  H16 UNK     1       9.832   7.068   4.543  1.00  0.00     0.159 HD
ENDBRANCH   4  21
BRANCH   2  26
HETATM   26  C1  UNK     1      14.665   5.924   8.655  1.00  0.00     0.084 C 
BRANCH  26  27
HETATM   27  C6  UNK     1      15.076   7.127   9.489  1.00  0.00    -0.053 A 
HETATM   28  C12 UNK     1      15.854   6.928  10.612  1.00  0.00     0.007 A 
HETATM   29  C18 UNK     1      16.230   8.033  11.377  1.00  0.00     0.001 A 
HETATM   30  C20 UNK     1      15.821   9.313  11.003  1.00  0.00     0.000 A 
HETATM   31  C19 UNK     1      15.035   9.489   9.864  1.00  0.00     0.001 A 
HETATM   32  C13 UNK     1      14.659   8.384   9.099  1.00  0.00     0.007 A 
ENDBRANCH  26  27
ENDBRANCH   2  26
TORSDOF 5
ENDMDL
MODEL 4
REMARK VINA RESULT:      -9.1      4.692      7.204
REMARK  5 active torsions:
REMARK  status: ('A' for Active; 'I' for Inactive)
REMARK    1  A    between atoms: C3_10  and  N1_6 
REMARK       I    between atoms: C9_16  and  N1_6 
REMARK       I    between atoms: C14_21  and  N2_7 
REMARK    2  A    between atoms: C1_8  and  C2_9 
REMARK    3  A    between atoms: C1_8  and  C6_13 
REMARK    4  A    between atoms: C14_21  and  C4_11 
REMARK    5  A    between atoms: C7_14  and  C9_16 
ROOT
HETATM    1  S1  UNK     1      21.011  -7.821  34.850  1.00  0.00    -0.076 SA
HETATM    2  C2  UNK     1      21.016  -9.321  35.677  1.00  0.00    -0.010 A 
HETATM    3  C3  UNK     1      20.162  -7.108  36.129  1.00  0.00     0.093 A 
HETATM    4  C4  UNK     1      19.877  -7.934  37.153  1.00  0.00     0.066 A 
HETATM    5  C5  UNK     1      20.378  -9.243  36.895  1.00  0.00     0.035 A 
ENDROOT
BRANCH   3   6
HETATM    6  N1  UNK     1      19.860  -5.735  35.959  1.00  0.00    -0.316 N 
HETATM    7  C9  UNK     1      20.515  -4.647  36.519  1.00  0.00     0.262 C 
HETATM    8  O2  UNK     1      21.487  -4.654  37.274  1.00  0.00    -0.267 OA
HETATM    9  H4  UNK     1      19.077  -5.568  35.332  1.00  0.00     0.169 HD
BRANCH   7  10
HETATM   10  C7  UNK     1      19.917  -3.370  36.114  1.00  0.00     0.108 A 
HETATM   11  C10 UNK     1      19.226  -2.716  37.056  1.00  0.00     0.037 A 
HETATM   12  C8  UNK     1      18.597  -1.440  36.751  1.00  0.00    -0.001 A 
HETATM   13  C11 UNK     1      18.724  -0.918  35.468  1.00  0.00     0.089 A 
HETATM   14  C16 UNK     1      17.868  -0.722  37.703  1.00  0.00     0.014 A 
HETATM   15  O1  UNK     1      19.450  -1.611  34.481  1.00  0.00    -0.274 OA
HETATM   16  C17 UNK     1      18.144   0.298  35.111  1.00  0.00     0.038 A 
HETATM   17  C15 UNK     1      20.066  -2.833  34.743  1.00  0.00     0.304 A 
HETATM   18  O4  UNK     1      20.696  -3.430  33.878  1.00  0.00    -0.259 OA
HETATM   19  C22 UNK     1      17.419   1.008  36.065  1.00  0.00     0.003 A 
HETATM   20  C21 UNK     1      17.282   0.498  37.359  1.00  0.00     0.001 A 
ENDBRANCH   7  10
ENDBRANCH   3   6
BRANCH   4  21
HETATM   21  C14 UNK     1      19.165  -7.543  38.342  1.00  0.00     0.252 C 
HETATM   22  O3  UNK     1      18.012  -7.071  38.322  1.00  0.00    -0.268 OA
HETATM   23  N2  UNK     1      19.805  -7.734  39.566  1.00  0.00    -0.366 N 
HETATM   24  H15 UNK     1      20.736  -8.120  39.665  1.00  0.00     0.159 HD
HETATM   25  H16 UNK     1      19.336  -7.480  40.430  1.00  0.00     0.159 HD
ENDBRANCH   4  21
BRANCH   2  26
HETATM   26  C1  UNK     1      21.663 -10.494  35.050  1.00  0.00     0.084 C 
BRANCH  26  27
HETATM   27  C6  UNK     1      23.034 -10.830  35.615  1.00  0.00    -0.053 A 
HETATM   28  C12 UNK     1      23.749  -9.845  36.266  1.00  0.00     0.007 A 
HETATM   29  C18 UNK     1      25.007 -10.154  36.784  1.00  0.00     0.001 A 
HETATM   30  C20 UNK     1      25.524 -11.441  36.640  1.00  0.00     0.000 A 
HETATM   31  C19 UNK     1      24.783 -12.421  35.978  1.00  0.00     0.001 A 
HETATM   32  C13 UNK     1      23.524 -12.111  35.460  1.00  0.00     0.007 A 
ENDBRANCH  26  27
ENDBRANCH   2  26
TORSDOF 5
ENDMDL
MODEL 5
REMARK VINA RESULT:      -9.1     11.887     15.122
REMARK  5 active torsions:
REMARK  status: ('A' for Active; 'I' for Inactive)
REMARK    1  A    between atoms: C3_10  and  N1_6 
REMARK       I    between atoms: C9_16  and  N1_6 
REMARK       I    between atoms: C14_21  and  N2_7 
REMARK    2  A    between atoms: C1_8  and  C2_9 
REMARK    3  A    between atoms: C1_8  and  C6_13 
REMARK    4  A    between atoms: C14_21  and  C4_11 
REMARK    5  A    between atoms: C7_14  and  C9_16 
ROOT
HETATM    1  S1  UNK     1      31.325  -7.575  37.371  1.00  0.00    -0.076 SA
HETATM    2  C2  UNK     1      32.363  -6.323  37.908  1.00  0.00    -0.010 A 
HETATM    3  C3  UNK     1      29.978  -6.699  37.903  1.00  0.00     0.093 A 
HETATM    4  C4  UNK     1      30.259  -5.509  38.466  1.00  0.00     0.066 A 
HETATM    5  C5  UNK     1      31.665  -5.278  38.472  1.00  0.00     0.035 A 
ENDROOT
BRANCH   3   6
HETATM    6  N1  UNK     1      28.728  -7.329  37.688  1.00  0.00    -0.316 N 
HETATM    7  C9  UNK     1      28.257  -8.498  38.268  1.00  0.00     0.262 C 
HETATM    8  O2  UNK     1      28.826  -9.223  39.084  1.00  0.00    -0.267 OA
HETATM    9  H4  UNK     1      28.127  -6.824  37.040  1.00  0.00     0.169 HD
BRANCH   7  10
HETATM   10  C7  UNK     1      26.910  -8.845  37.802  1.00  0.00     0.108 A 
HETATM   11  C10 UNK     1      26.778 -10.039  37.211  1.00  0.00     0.037 A 
HETATM   12  C8  UNK     1      25.480 -10.473  36.716  1.00  0.00    -0.001 A 
HETATM   13  C11 UNK     1      24.386  -9.628  36.866  1.00  0.00     0.089 A 
HETATM   14  C16 UNK     1      25.296 -11.711  36.094  1.00  0.00     0.014 A 
HETATM   15  O1  UNK     1      24.531  -8.373  37.488  1.00  0.00    -0.274 OA
HETATM   16  C17 UNK     1      23.117  -9.984  36.413  1.00  0.00     0.038 A 
HETATM   17  C15 UNK     1      25.759  -7.930  37.973  1.00  0.00     0.304 A 
HETATM   18  O4  UNK     1      25.876  -6.836  38.513  1.00  0.00    -0.259 OA
HETATM   19  C22 UNK     1      22.942 -11.219  35.794  1.00  0.00     0.003 A 
HETATM   20  C21 UNK     1      24.030 -12.081  35.636  1.00  0.00     0.001 A 
ENDBRANCH   7  10
ENDBRANCH   3   6
BRANCH   4  21
HETATM   21  C14 UNK     1      29.272  -4.599  38.986  1.00  0.00     0.252 C 
HETATM   22  O3  UNK     1      29.481  -3.850  39.959  1.00  0.00    -0.268 OA
HETATM   23  N2  UNK     1      28.037  -4.553  38.341  1.00  0.00    -0.366 N 
HETATM   24  H15 UNK     1      27.793  -5.123  37.540  1.00  0.00     0.159 HD
HETATM   25  H16 UNK     1      27.314  -3.920  38.670  1.00  0.00     0.159 HD
ENDBRANCH   4  21
BRANCH   2  26
HETATM   26  C1  UNK     1      33.824  -6.465  37.730  1.00  0.00     0.084 C 
BRANCH  26  27
HETATM   27  C6  UNK     1      34.314  -6.190  36.316  1.00  0.00    -0.053 A 
HETATM   28  C12 UNK     1      34.787  -7.241  35.557  1.00  0.00     0.007 A 
HETATM   29  C18 UNK     1      35.236  -6.988  34.260  1.00  0.00     0.001 A 
HETATM   30  C20 UNK     1      35.202  -5.690  33.750  1.00  0.00     0.000 A 
HETATM   31  C19 UNK     1      34.718  -4.644  34.537  1.00  0.00     0.001 A 
HETATM   32  C13 UNK     1      34.270  -4.897  35.834  1.00  0.00     0.007 A 
ENDBRANCH  26  27
ENDBRANCH   2  26
TORSDOF 5
ENDMDL
MODEL 6
REMARK VINA RESULT:      -9.0      4.886     10.597
REMARK  5 active torsions:
REMARK  status: ('A' for Active; 'I' for Inactive)
REMARK    1  A    between atoms: C3_10  and  N1_6 
REMARK       I    between atoms: C9_16  and  N1_6 
REMARK       I    between atoms: C14_21  and  N2_7 
REMARK    2  A    between atoms: C1_8  and  C2_9 
REMARK    3  A    between atoms: C1_8  and  C6_13 
REMARK    4  A    between atoms: C14_21  and  C4_11 
REMARK    5  A    between atoms: C7_14  and  C9_16 
ROOT
HETATM    1  S1  UNK     1      15.760   6.631  32.258  1.00  0.00    -0.076 SA
HETATM    2  C2  UNK     1      15.932   8.214  32.890  1.00  0.00    -0.010 A 
HETATM    3  C3  UNK     1      17.297   6.223  32.838  1.00  0.00     0.093 A 
HETATM    4  C4  UNK     1      17.941   7.211  33.485  1.00  0.00     0.066 A 
HETATM    5  C5  UNK     1      17.142   8.391  33.522  1.00  0.00     0.035 A 
ENDROOT
BRANCH   3   6
HETATM    6  N1  UNK     1      17.708   4.895  32.569  1.00  0.00    -0.316 N 
HETATM    7  C9  UNK     1      18.318   4.413  31.419  1.00  0.00     0.262 C 
HETATM    8  O2  UNK     1      18.624   5.039  30.404  1.00  0.00    -0.267 OA
HETATM    9  H4  UNK     1      17.536   4.254  33.340  1.00  0.00     0.169 HD
BRANCH   7  10
HETATM   10  C7  UNK     1      18.600   2.976  31.501  1.00  0.00     0.108 A 
HETATM   11  C10 UNK     1      19.084   2.404  30.392  1.00  0.00     0.037 A 
HETATM   12  C8  UNK     1      19.395   0.983  30.376  1.00  0.00    -0.001 A 
HETATM   13  C11 UNK     1      19.181   0.234  31.528  1.00  0.00     0.089 A 
HETATM   14  C16 UNK     1      19.902   0.344  29.241  1.00  0.00     0.014 A 
HETATM   15  O1  UNK     1      18.672   0.841  32.692  1.00  0.00    -0.274 OA
HETATM   16  C17 UNK     1      19.458  -1.131  31.578  1.00  0.00     0.038 A 
HETATM   17  C15 UNK     1      18.366   2.199  32.739  1.00  0.00     0.304 A 
HETATM   18  O4  UNK     1      17.922   2.719  33.757  1.00  0.00    -0.259 OA
HETATM   19  C22 UNK     1      19.963  -1.760  30.443  1.00  0.00     0.003 A 
HETATM   20  C21 UNK     1      20.185  -1.024  29.277  1.00  0.00     0.001 A 
ENDBRANCH   7  10
ENDBRANCH   3   6
BRANCH   4  21
HETATM   21  C14 UNK     1      19.256   7.088  34.061  1.00  0.00     0.252 C 
HETATM   22  O3  UNK     1      20.253   6.721  33.411  1.00  0.00    -0.268 OA
HETATM   23  N2  UNK     1      19.402   7.425  35.406  1.00  0.00    -0.366 N 
HETATM   24  H15 UNK     1      18.644   7.739  35.999  1.00  0.00     0.159 HD
HETATM   25  H16 UNK     1      20.313   7.360  35.850  1.00  0.00     0.159 HD
ENDBRANCH   4  21
BRANCH   2  26
HETATM   26  C1  UNK     1      14.834   9.190  32.712  1.00  0.00     0.084 C 
BRANCH  26  27
HETATM   27  C6  UNK     1      14.795  10.288  33.764  1.00  0.00    -0.053 A 
HETATM   28  C12 UNK     1      14.303   9.992  35.020  1.00  0.00     0.007 A 
HETATM   29  C18 UNK     1      14.267  11.000  35.985  1.00  0.00     0.001 A 
HETATM   30  C20 UNK     1      14.723  12.281  35.674  1.00  0.00     0.000 A 
HETATM   31  C19 UNK     1      15.216  12.555  34.397  1.00  0.00     0.001 A 
HETATM   32  C13 UNK     1      15.252  11.547  33.433  1.00  0.00     0.007 A 
ENDBRANCH  26  27
ENDBRANCH   2  26
TORSDOF 5
ENDMDL
MODEL 7
REMARK VINA RESULT:      -8.8      4.016      6.403
REMARK  5 active torsions:
REMARK  status: ('A' for Active; 'I' for Inactive)
REMARK    1  A    between atoms: C3_10  and  N1_6 
REMARK       I    between atoms: C9_16  and  N1_6 
REMARK       I    between atoms: C14_21  and  N2_7 
REMARK    2  A    between atoms: C1_8  and  C2_9 
REMARK    3  A    between atoms: C1_8  and  C6_13 
REMARK    4  A    between atoms: C14_21  and  C4_11 
REMARK    5  A    between atoms: C7_14  and  C9_16 
ROOT
HETATM    1  S1  UNK     1      21.043  -6.883  36.495  1.00  0.00    -0.076 SA
HETATM    2  C2  UNK     1      20.505  -8.508  36.546  1.00  0.00    -0.010 A 
HETATM    3  C3  UNK     1      19.465  -6.362  36.172  1.00  0.00     0.093 A 
HETATM    4  C4  UNK     1      18.546  -7.342  36.098  1.00  0.00     0.066 A 
HETATM    5  C5  UNK     1      19.151  -8.613  36.319  1.00  0.00     0.035 A 
ENDROOT
BRANCH   3   6
HETATM    6  N1  UNK     1      19.314  -4.962  36.020  1.00  0.00    -0.316 N 
HETATM    7  C9  UNK     1      19.815  -3.960  36.839  1.00  0.00     0.262 C 
HETATM    8  O2  UNK     1      20.491  -4.084  37.860  1.00  0.00    -0.267 OA
HETATM    9  H4  UNK     1      18.785  -4.700  35.191  1.00  0.00     0.169 HD
BRANCH   7  10
HETATM   10  C7  UNK     1      19.453  -2.621  36.363  1.00  0.00     0.108 A 
HETATM   11  C10 UNK     1      18.707  -1.880  37.192  1.00  0.00     0.037 A 
HETATM   12  C8  UNK     1      18.298  -0.538  36.809  1.00  0.00    -0.001 A 
HETATM   13  C11 UNK     1      18.694  -0.041  35.572  1.00  0.00     0.089 A 
HETATM   14  C16 UNK     1      17.520   0.270  37.642  1.00  0.00     0.014 A 
HETATM   15  O1  UNK     1      19.479  -0.825  34.704  1.00  0.00    -0.274 OA
HETATM   16  C17 UNK     1      18.336   1.236  35.145  1.00  0.00     0.038 A 
HETATM   17  C15 UNK     1      19.888  -2.112  35.043  1.00  0.00     0.304 A 
HETATM   18  O4  UNK     1      20.570  -2.788  34.281  1.00  0.00    -0.259 OA
HETATM   19  C22 UNK     1      17.560   2.035  35.981  1.00  0.00     0.003 A 
HETATM   20  C21 UNK     1      17.154   1.553  37.228  1.00  0.00     0.001 A 
ENDBRANCH   7  10
ENDBRANCH   3   6
BRANCH   4  21
HETATM   21  C14 UNK     1      17.146  -7.130  35.835  1.00  0.00     0.252 C 
HETATM   22  O3  UNK     1      16.479  -6.228  36.377  1.00  0.00    -0.268 OA
HETATM   23  N2  UNK     1      16.533  -7.970  34.907  1.00  0.00    -0.366 N 
HETATM   24  H15 UNK     1      17.008  -8.720  34.419  1.00  0.00     0.159 HD
HETATM   25  H16 UNK     1      15.549  -7.851  34.685  1.00  0.00     0.159 HD
ENDBRANCH   4  21
BRANCH   2  26
HETATM   26  C1  UNK     1      21.481  -9.588  36.813  1.00  0.00     0.084 C 
BRANCH  26  27
HETATM   27  C6  UNK     1      22.799  -9.110  37.403  1.00  0.00    -0.053 A 
HETATM   28  C12 UNK     1      23.976  -9.437  36.761  1.00  0.00     0.007 A 
HETATM   29  C18 UNK     1      25.185  -8.999  37.304  1.00  0.00     0.001 A 
HETATM   30  C20 UNK     1      25.190  -8.244  38.477  1.00  0.00     0.000 A 
HETATM   31  C19 UNK     1      23.987  -7.926  39.107  1.00  0.00     0.001 A 
HETATM   32  C13 UNK     1      22.779  -8.364  38.565  1.00  0.00     0.007 A 
ENDBRANCH  26  27
ENDBRANCH   2  26
TORSDOF 5
ENDMDL
MODEL 8
REMARK VINA RESULT:      -8.8     17.801     20.878
REMARK  5 active torsions:
REMARK  status: ('A' for Active; 'I' for Inactive)
REMARK    1  A    between atoms: C3_10  and  N1_6 
REMARK       I    between atoms: C9_16  and  N1_6 
REMARK       I    between atoms: C14_21  and  N2_7 
REMARK    2  A    between atoms: C1_8  and  C2_9 
REMARK    3  A    between atoms: C1_8  and  C6_13 
REMARK    4  A    between atoms: C14_21  and  C4_11 
REMARK    5  A    between atoms: C7_14  and  C9_16 
ROOT
HETATM    1  S1  UNK     1      19.463  -2.292  12.550  1.00  0.00    -0.076 SA
HETATM    2  C2  UNK     1      19.810  -3.856  11.943  1.00  0.00    -0.010 A 
HETATM    3  C3  UNK     1      19.885  -2.795  14.110  1.00  0.00     0.093 A 
HETATM    4  C4  UNK     1      20.275  -4.079  14.209  1.00  0.00     0.066 A 
HETATM    5  C5  UNK     1      20.235  -4.713  12.933  1.00  0.00     0.035 A 
ENDROOT
BRANCH   3   6
HETATM    6  N1  UNK     1      19.773  -1.800  15.113  1.00  0.00    -0.316 N 
HETATM    7  C9  UNK     1      18.749  -1.639  16.036  1.00  0.00     0.262 C 
HETATM    8  O2  UNK     1      17.735  -2.323  16.171  1.00  0.00    -0.267 OA
HETATM    9  H4  UNK     1      20.563  -1.161  15.138  1.00  0.00     0.169 HD
BRANCH   7  10
HETATM   10  C7  UNK     1      18.978  -0.493  16.923  1.00  0.00     0.108 A 
HETATM   11  C10 UNK     1      18.988  -0.754  18.236  1.00  0.00     0.037 A 
HETATM   12  C8  UNK     1      19.208   0.318  19.195  1.00  0.00    -0.001 A 
HETATM   13  C11 UNK     1      19.405   1.612  18.724  1.00  0.00     0.089 A 
HETATM   14  C16 UNK     1      19.228   0.092  20.573  1.00  0.00     0.014 A 
HETATM   15  O1  UNK     1      19.391   1.881  17.342  1.00  0.00    -0.274 OA
HETATM   16  C17 UNK     1      19.619   2.683  19.590  1.00  0.00     0.038 A 
HETATM   17  C15 UNK     1      19.186   0.876  16.399  1.00  0.00     0.304 A 
HETATM   18  O4  UNK     1      19.175   1.119  15.198  1.00  0.00    -0.259 OA
HETATM   19  C22 UNK     1      19.638   2.449  20.962  1.00  0.00     0.003 A 
HETATM   20  C21 UNK     1      19.443   1.156  21.453  1.00  0.00     0.001 A 
ENDBRANCH   7  10
ENDBRANCH   3   6
BRANCH   4  21
HETATM   21  C14 UNK     1      20.678  -4.718  15.435  1.00  0.00     0.252 C 
HETATM   22  O3  UNK     1      21.619  -4.307  16.141  1.00  0.00    -0.268 OA
HETATM   23  N2  UNK     1      19.952  -5.834  15.847  1.00  0.00    -0.366 N 
HETATM   24  H15 UNK     1      19.170  -6.223  15.334  1.00  0.00     0.159 HD
HETATM   25  H16 UNK     1      20.197  -6.310  16.709  1.00  0.00     0.159 HD
ENDBRANCH   4  21
BRANCH   2  26
HETATM   26  C1  UNK     1      19.634  -4.130  10.501  1.00  0.00     0.084 C 
BRANCH  26  27
HETATM   27  C6  UNK     1      20.909  -4.014   9.679  1.00  0.00    -0.053 A 
HETATM   28  C12 UNK     1      21.378  -2.759   9.347  1.00  0.00     0.007 A 
HETATM   29  C18 UNK     1      22.547  -2.653   8.593  1.00  0.00     0.001 A 
HETATM   30  C20 UNK     1      23.223  -3.804   8.189  1.00  0.00     0.000 A 
HETATM   31  C19 UNK     1      22.730  -5.062   8.537  1.00  0.00     0.001 A 
HETATM   32  C13 UNK     1      21.560  -5.168   9.291  1.00  0.00     0.007 A 
ENDBRANCH  26  27
ENDBRANCH   2  26
TORSDOF 5
ENDMDL
MODEL 9
REMARK VINA RESULT:      -8.8     10.634     14.111
REMARK  5 active torsions:
REMARK  status: ('A' for Active; 'I' for Inactive)
REMARK    1  A    between atoms: C3_10  and  N1_6 
REMARK       I    between atoms: C9_16  and  N1_6 
REMARK       I    between atoms: C14_21  and  N2_7 
REMARK    2  A    between atoms: C1_8  and  C2_9 
REMARK    3  A    between atoms: C1_8  and  C6_13 
REMARK    4  A    between atoms: C14_21  and  C4_11 
REMARK    5  A    between atoms: C7_14  and  C9_16 
ROOT
HETATM    1  S1  UNK     1      29.940  -8.535  37.619  1.00  0.00    -0.076 SA
HETATM    2  C2  UNK     1      31.298  -7.553  37.974  1.00  0.00    -0.010 A 
HETATM    3  C3  UNK     1      28.902  -7.274  38.060  1.00  0.00     0.093 A 
HETATM    4  C4  UNK     1      29.515  -6.146  38.462  1.00  0.00     0.066 A 
HETATM    5  C5  UNK     1      30.931  -6.301  38.414  1.00  0.00     0.035 A 
ENDROOT
BRANCH   3   6
HETATM    6  N1  UNK     1      27.520  -7.566  37.949  1.00  0.00    -0.316 N 
HETATM    7  C9  UNK     1      26.739  -8.313  38.820  1.00  0.00     0.262 C 
HETATM    8  O2  UNK     1      27.086  -8.870  39.861  1.00  0.00    -0.267 OA
HETATM    9  H4  UNK     1      27.082  -7.147  37.132  1.00  0.00     0.169 HD
BRANCH   7  10
HETATM   10  C7  UNK     1      25.343  -8.401  38.376  1.00  0.00     0.108 A 
HETATM   11  C10 UNK     1      24.448  -7.720  39.102  1.00  0.00     0.037 A 
HETATM   12  C8  UNK     1      23.039  -7.744  38.740  1.00  0.00    -0.001 A 
HETATM   13  C11 UNK     1      22.642  -8.487  37.633  1.00  0.00     0.089 A 
HETATM   14  C16 UNK     1      22.071  -7.048  39.468  1.00  0.00     0.014 A 
HETATM   15  O1  UNK     1      23.588  -9.203  36.874  1.00  0.00    -0.274 OA
HETATM   16  C17 UNK     1      21.308  -8.553  37.235  1.00  0.00     0.038 A 
HETATM   17  C15 UNK     1      24.944  -9.197  37.194  1.00  0.00     0.304 A 
HETATM   18  O4  UNK     1      25.760  -9.823  36.528  1.00  0.00    -0.259 OA
HETATM   19  C22 UNK     1      20.349  -7.857  37.965  1.00  0.00     0.003 A 
HETATM   20  C21 UNK     1      20.730  -7.105  39.079  1.00  0.00     0.001 A 
ENDBRANCH   7  10
ENDBRANCH   3   6
BRANCH   4  21
HETATM   21  C14 UNK     1      28.830  -4.950  38.882  1.00  0.00     0.252 C 
HETATM   22  O3  UNK     1      27.591  -4.827  38.852  1.00  0.00    -0.268 OA
HETATM   23  N2  UNK     1      29.610  -3.899  39.363  1.00  0.00    -0.366 N 
HETATM   24  H15 UNK     1      30.620  -3.924  39.426  1.00  0.00     0.159 HD
HETATM   25  H16 UNK     1      29.168  -3.040  39.676  1.00  0.00     0.159 HD
ENDBRANCH   4  21
BRANCH   2  26
HETATM   26  C1  UNK     1      32.659  -8.101  37.788  1.00  0.00     0.084 C 
BRANCH  26  27
HETATM   27  C6  UNK     1      33.529  -7.308  36.825  1.00  0.00    -0.053 A 
HETATM   28  C12 UNK     1      33.365  -7.496  35.467  1.00  0.00     0.007 A 
HETATM   29  C18 UNK     1      34.163  -6.768  34.584  1.00  0.00     0.001 A 
HETATM   30  C20 UNK     1      35.108  -5.869  35.077  1.00  0.00     0.000 A 
HETATM   31  C19 UNK     1      35.255  -5.695  36.453  1.00  0.00     0.001 A 
HETATM   32  C13 UNK     1      34.457  -6.423  37.336  1.00  0.00     0.007 A 
ENDBRANCH  26  27
ENDBRANCH   2  26
TORSDOF 5
ENDMDL
MODEL 10
REMARK VINA RESULT:      -8.7      2.534      9.550
REMARK  5 active torsions:
REMARK  status: ('A' for Active; 'I' for Inactive)
REMARK    1  A    between atoms: C3_10  and  N1_6 
REMARK       I    between atoms: C9_16  and  N1_6 
REMARK       I    between atoms: C14_21  and  N2_7 
REMARK    2  A    between atoms: C1_8  and  C2_9 
REMARK    3  A    between atoms: C1_8  and  C6_13 
REMARK    4  A    between atoms: C14_21  and  C4_11 
REMARK    5  A    between atoms: C7_14  and  C9_16 
ROOT
HETATM    1  S1  UNK     1      18.267   4.512  33.780  1.00  0.00    -0.076 SA
HETATM    2  C2  UNK     1      18.152   5.243  32.235  1.00  0.00    -0.010 A 
HETATM    3  C3  UNK     1      18.377   2.985  33.059  1.00  0.00     0.093 A 
HETATM    4  C4  UNK     1      18.333   2.986  31.714  1.00  0.00     0.066 A 
HETATM    5  C5  UNK     1      18.201   4.316  31.219  1.00  0.00     0.035 A 
ENDROOT
BRANCH   3   6
HETATM    6  N1  UNK     1      18.501   1.901  33.962  1.00  0.00    -0.316 N 
HETATM    7  C9  UNK     1      17.503   1.042  34.398  1.00  0.00     0.262 C 
HETATM    8  O2  UNK     1      16.311   1.046  34.091  1.00  0.00    -0.267 OA
HETATM    9  H4  UNK     1      19.453   1.757  34.293  1.00  0.00     0.169 HD
BRANCH   7  10
HETATM   10  C7  UNK     1      18.009   0.034  35.337  1.00  0.00     0.108 A 
HETATM   11  C10 UNK     1      18.739  -0.955  34.806  1.00  0.00     0.037 A 
HETATM   12  C8  UNK     1      19.285  -2.001  35.657  1.00  0.00    -0.001 A 
HETATM   13  C11 UNK     1      19.035  -1.955  37.024  1.00  0.00     0.089 A 
HETATM   14  C16 UNK     1      20.053  -3.051  35.147  1.00  0.00     0.014 A 
HETATM   15  O1  UNK     1      18.265  -0.913  37.577  1.00  0.00    -0.274 OA
HETATM   16  C17 UNK     1      19.528  -2.927  37.893  1.00  0.00     0.038 A 
HETATM   17  C15 UNK     1      17.731   0.103  36.789  1.00  0.00     0.304 A 
HETATM   18  O4  UNK     1      17.062   1.006  37.278  1.00  0.00    -0.259 OA
HETATM   19  C22 UNK     1      20.292  -3.970  37.377  1.00  0.00     0.003 A 
HETATM   20  C21 UNK     1      20.555  -4.031  36.006  1.00  0.00     0.001 A 
ENDBRANCH   7  10
ENDBRANCH   3   6
BRANCH   4  21
HETATM   21  C14 UNK     1      18.410   1.804  30.894  1.00  0.00     0.252 C 
HETATM   22  O3  UNK     1      18.939   0.743  31.275  1.00  0.00    -0.268 OA
HETATM   23  N2  UNK     1      17.837   1.865  29.624  1.00  0.00    -0.366 N 
HETATM   24  H15 UNK     1      17.382   2.687  29.245  1.00  0.00     0.159 HD
HETATM   25  H16 UNK     1      17.862   1.053  29.015  1.00  0.00     0.159 HD
ENDBRANCH   4  21
BRANCH   2  26
HETATM   26  C1  UNK     1      18.018   6.713  32.136  1.00  0.00     0.084 C 
BRANCH  26  27
HETATM   27  C6  UNK     1      16.738   7.269  32.739  1.00  0.00    -0.053 A 
HETATM   28  C12 UNK     1      16.822   8.087  33.848  1.00  0.00     0.007 A 
HETATM   29  C18 UNK     1      15.647   8.597  34.401  1.00  0.00     0.001 A 
HETATM   30  C20 UNK     1      14.413   8.277  33.835  1.00  0.00     0.000 A 
HETATM   31  C19 UNK     1      14.354   7.449  32.714  1.00  0.00     0.001 A 
HETATM   32  C13 UNK     1      15.529   6.939  32.160  1.00  0.00     0.007 A 
ENDBRANCH  26  27
ENDBRANCH   2  26
TORSDOF 5
ENDMDL
