MODEL 1
REMARK VINA RESULT:      -6.4      0.000      0.000
REMARK  3 active torsions:
REMARK  status: ('A' for Active; 'I' for Inactive)
REMARK    1  A    between atoms: C10_14  and  O2_2 
REMARK    2  A    between atoms: C3_7  and  O2_2 
REMARK    3  A    between atoms: C6_10  and  O3_3 
ROOT
HETATM    1  O1  UNK     1      15.695   6.725  31.953  1.00  0.00    -0.275 OA
HETATM    2  O4  UNK     1      13.420   6.953  32.032  1.00  0.00    -0.260 OA
HETATM    3  C1  UNK     1      17.081   7.852  33.625  1.00  0.00     0.032 A 
HETATM    4  C2  UNK     1      16.959   7.022  32.509  1.00  0.00     0.095 A 
HETATM    5  C3  UNK     1      15.851   8.415  34.193  1.00  0.00     0.087 A 
HETATM    6  C4  UNK     1      18.371   8.075  34.125  1.00  0.00     0.020 A 
HETATM    7  C5  UNK     1      18.062   6.435  31.885  1.00  0.00     0.075 A 
HETATM    8  C6  UNK     1      19.333   6.676  32.393  1.00  0.00     0.070 A 
HETATM    9  C7  UNK     1      19.488   7.492  33.513  1.00  0.00     0.038 A 
HETATM   10  C8  UNK     1      14.662   8.110  33.664  1.00  0.00     0.120 A 
HETATM   11  C9  UNK     1      14.521   7.225  32.498  1.00  0.00     0.290 A 
ENDROOT
BRANCH   5  12
HETATM   12  O2  UNK     1      15.914   9.268  35.277  1.00  0.00    -0.350 OA
BRANCH  12  13
HETATM   13  C10 UNK     1      15.396  10.541  34.943  1.00  0.00     0.171 C 
HETATM   14  C11 UNK     1      16.533  11.430  34.485  1.00  0.00     0.034 C 
ENDBRANCH  12  13
ENDBRANCH   5  12
BRANCH   8  15
HETATM   15  O3  UNK     1      20.423   6.115  31.804  1.00  0.00    -0.356 OA
HETATM   16  C12 UNK     1      20.303   5.748  30.430  1.00  0.00     0.210 C 
ENDBRANCH   8  15
TORSDOF 3
ENDMDL
MODEL 2
REMARK VINA RESULT:      -6.3     16.282     19.223
REMARK  3 active torsions:
REMARK  status: ('A' for Active; 'I' for Inactive)
REMARK    1  A    between atoms: C10_14  and  O2_2 
REMARK    2  A    between atoms: C3_7  and  O2_2 
REMARK    3  A    between atoms: C6_10  and  O3_3 
ROOT
HETATM    1  O1  UNK     1      19.371   1.174  15.072  1.00  0.00    -0.275 OA
HETATM    2  O4  UNK     1      19.527   3.213  16.096  1.00  0.00    -0.260 OA
HETATM    3  C1  UNK     1      18.905  -0.819  16.414  1.00  0.00     0.032 A 
HETATM    4  C2  UNK     1      19.143  -0.217  15.176  1.00  0.00     0.095 A 
HETATM    5  C3  UNK     1      18.912   0.040  17.603  1.00  0.00     0.087 A 
HETATM    6  C4  UNK     1      18.665  -2.200  16.423  1.00  0.00     0.020 A 
HETATM    7  C5  UNK     1      19.162  -0.938  13.981  1.00  0.00     0.075 A 
HETATM    8  C6  UNK     1      18.930  -2.308  14.015  1.00  0.00     0.070 A 
HETATM    9  C7  UNK     1      18.679  -2.938  15.233  1.00  0.00     0.038 A 
HETATM   10  C8  UNK     1      19.114   1.356  17.483  1.00  0.00     0.120 A 
HETATM   11  C9  UNK     1      19.351   2.003  16.184  1.00  0.00     0.290 A 
ENDROOT
BRANCH   5  12
HETATM   12  O2  UNK     1      18.715  -0.507  18.855  1.00  0.00    -0.350 OA
BRANCH  12  13
HETATM   13  C10 UNK     1      18.497   0.508  19.816  1.00  0.00     0.171 C 
HETATM   14  C11 UNK     1      19.507   0.354  20.933  1.00  0.00     0.034 C 
ENDBRANCH  12  13
ENDBRANCH   5  12
BRANCH   8  15
HETATM   15  O3  UNK     1      18.941  -3.032  12.863  1.00  0.00    -0.356 OA
HETATM   16  C12 UNK     1      19.513  -2.412  11.711  1.00  0.00     0.210 C 
ENDBRANCH   8  15
TORSDOF 3
ENDMDL
MODEL 3
REMARK VINA RESULT:      -6.2      8.723     10.258
REMARK  3 active torsions:
REMARK  status: ('A' for Active; 'I' for Inactive)
REMARK    1  A    between atoms: C10_14  and  O2_2 
REMARK    2  A    between atoms: C3_7  and  O2_2 
REMARK    3  A    between atoms: C6_10  and  O3_3 
ROOT
HETATM    1  O1  UNK     1      20.664  -3.174  35.182  1.00  0.00    -0.275 OA
HETATM    2  O4  UNK     1      20.742  -3.757  37.392  1.00  0.00    -0.260 OA
HETATM    3  C1  UNK     1      19.065  -1.478  34.435  1.00  0.00     0.032 A 
HETATM    4  C2  UNK     1      20.097  -2.379  34.161  1.00  0.00     0.095 A 
HETATM    5  C3  UNK     1      18.583  -1.396  35.819  1.00  0.00     0.087 A 
HETATM    6  C4  UNK     1      18.577  -0.713  33.368  1.00  0.00     0.020 A 
HETATM    7  C5  UNK     1      20.631  -2.542  32.881  1.00  0.00     0.075 A 
HETATM    8  C6  UNK     1      20.126  -1.778  31.835  1.00  0.00     0.070 A 
HETATM    9  C7  UNK     1      19.103  -0.863  32.079  1.00  0.00     0.038 A 
HETATM   10  C8  UNK     1      19.142  -2.144  36.774  1.00  0.00     0.120 A 
HETATM   11  C9  UNK     1      20.239  -3.085  36.499  1.00  0.00     0.290 A 
ENDROOT
BRANCH   5  12
HETATM   12  O2  UNK     1      17.543  -0.547  36.141  1.00  0.00    -0.350 OA
BRANCH  12  13
HETATM   13  C10 UNK     1      17.514  -0.298  37.533  1.00  0.00     0.171 C 
HETATM   14  C11 UNK     1      17.551   1.197  37.767  1.00  0.00     0.034 C 
ENDBRANCH  12  13
ENDBRANCH   5  12
BRANCH   8  15
HETATM   15  O3  UNK     1      20.631  -1.917  30.580  1.00  0.00    -0.356 OA
HETATM   16  C12 UNK     1      20.554  -0.782  29.719  1.00  0.00     0.210 C 
ENDBRANCH   8  15
TORSDOF 3
ENDMDL
MODEL 4
REMARK VINA RESULT:      -6.2     22.941     24.790
REMARK  3 active torsions:
REMARK  status: ('A' for Active; 'I' for Inactive)
REMARK    1  A    between atoms: C10_14  and  O2_2 
REMARK    2  A    between atoms: C3_7  and  O2_2 
REMARK    3  A    between atoms: C6_10  and  O3_3 
ROOT
HETATM    1  O1  UNK     1      14.576   5.313   8.352  1.00  0.00    -0.275 OA
HETATM    2  O4  UNK     1      16.403   4.527   9.481  1.00  0.00    -0.260 OA
HETATM    3  C1  UNK     1      13.358   7.249   9.222  1.00  0.00     0.032 A 
HETATM    4  C2  UNK     1      13.532   6.259   8.252  1.00  0.00     0.095 A 
HETATM    5  C3  UNK     1      14.291   7.264  10.355  1.00  0.00     0.087 A 
HETATM    6  C4  UNK     1      12.312   8.162   9.032  1.00  0.00     0.020 A 
HETATM    7  C5  UNK     1      12.703   6.150   7.134  1.00  0.00     0.075 A 
HETATM    8  C6  UNK     1      11.665   7.061   6.970  1.00  0.00     0.070 A 
HETATM    9  C7  UNK     1      11.472   8.067   7.915  1.00  0.00     0.038 A 
HETATM   10  C8  UNK     1      15.282   6.370  10.425  1.00  0.00     0.120 A 
HETATM   11  C9  UNK     1      15.483   5.333   9.401  1.00  0.00     0.290 A 
ENDROOT
BRANCH   5  12
HETATM   12  O2  UNK     1      14.146   8.200  11.360  1.00  0.00    -0.350 OA
BRANCH  12  13
HETATM   13  C10 UNK     1      15.396   8.769  11.696  1.00  0.00     0.171 C 
HETATM   14  C11 UNK     1      15.589  10.040  10.896  1.00  0.00     0.034 C 
ENDBRANCH  12  13
ENDBRANCH   5  12
BRANCH   8  15
HETATM   15  O3  UNK     1      10.845   6.976   5.889  1.00  0.00    -0.356 OA
HETATM   16  C12 UNK     1       9.665   6.184   6.029  1.00  0.00     0.210 C 
ENDBRANCH   8  15
TORSDOF 3
ENDMDL
MODEL 5
REMARK VINA RESULT:      -6.2      7.174      9.336
REMARK  3 active torsions:
REMARK  status: ('A' for Active; 'I' for Inactive)
REMARK    1  A    between atoms: C10_14  and  O2_2 
REMARK    2  A    between atoms: C3_7  and  O2_2 
REMARK    3  A    between atoms: C6_10  and  O3_3 
ROOT
HETATM    1  O1  UNK     1      19.789  -1.870  33.211  1.00  0.00    -0.275 OA
HETATM    2  O4  UNK     1      20.780  -2.698  31.324  1.00  0.00    -0.260 OA
HETATM    3  C1  UNK     1      18.648   0.293  33.127  1.00  0.00     0.032 A 
HETATM    4  C2  UNK     1      19.042  -0.846  33.834  1.00  0.00     0.095 A 
HETATM    5  C3  UNK     1      19.049   0.394  31.720  1.00  0.00     0.087 A 
HETATM    6  C4  UNK     1      17.888   1.249  33.816  1.00  0.00     0.020 A 
HETATM    7  C5  UNK     1      18.718  -1.045  35.178  1.00  0.00     0.075 A 
HETATM    8  C6  UNK     1      17.971  -0.080  35.843  1.00  0.00     0.070 A 
HETATM    9  C7  UNK     1      17.554   1.063  35.164  1.00  0.00     0.038 A 
HETATM   10  C8  UNK     1      19.743  -0.591  31.143  1.00  0.00     0.120 A 
HETATM   11  C9  UNK     1      20.150  -1.802  31.873  1.00  0.00     0.290 A 
ENDROOT
BRANCH   5  12
HETATM   12  O2  UNK     1      18.715   1.513  30.982  1.00  0.00    -0.350 OA
BRANCH  12  13
HETATM   13  C10 UNK     1      19.034   1.325  29.617  1.00  0.00     0.171 C 
HETATM   14  C11 UNK     1      17.907   1.874  28.768  1.00  0.00     0.034 C 
ENDBRANCH  12  13
ENDBRANCH   5  12
BRANCH   8  15
HETATM   15  O3  UNK     1      17.642  -0.252  37.152  1.00  0.00    -0.356 OA
HETATM   16  C12 UNK     1      17.570   0.920  37.963  1.00  0.00     0.210 C 
ENDBRANCH   8  15
TORSDOF 3
ENDMDL
MODEL 6
REMARK VINA RESULT:      -6.2      4.644      6.383
REMARK  3 active torsions:
REMARK  status: ('A' for Active; 'I' for Inactive)
REMARK    1  A    between atoms: C10_14  and  O2_2 
REMARK    2  A    between atoms: C3_7  and  O2_2 
REMARK    3  A    between atoms: C6_10  and  O3_3 
ROOT
HETATM    1  O1  UNK     1      18.799   0.839  33.191  1.00  0.00    -0.275 OA
HETATM    2  O4  UNK     1      18.584   1.037  35.460  1.00  0.00    -0.260 OA
HETATM    3  C1  UNK     1      18.391   2.785  31.764  1.00  0.00     0.032 A 
HETATM    4  C2  UNK     1      18.747   1.443  31.915  1.00  0.00     0.095 A 
HETATM    5  C3  UNK     1      18.061   3.543  32.977  1.00  0.00     0.087 A 
HETATM    6  C4  UNK     1      18.387   3.309  30.465  1.00  0.00     0.020 A 
HETATM    7  C5  UNK     1      19.077   0.627  30.831  1.00  0.00     0.075 A 
HETATM    8  C6  UNK     1      19.059   1.166  29.549  1.00  0.00     0.070 A 
HETATM    9  C7  UNK     1      18.718   2.505  29.367  1.00  0.00     0.038 A 
HETATM   10  C8  UNK     1      18.131   2.960  34.177  1.00  0.00     0.120 A 
HETATM   11  C9  UNK     1      18.520   1.551  34.349  1.00  0.00     0.290 A 
ENDROOT
BRANCH   5  12
HETATM   12  O2  UNK     1      17.671   4.864  32.884  1.00  0.00    -0.350 OA
BRANCH  12  13
HETATM   13  C10 UNK     1      18.554   5.698  33.609  1.00  0.00     0.171 C 
HETATM   14  C11 UNK     1      19.623   6.217  32.670  1.00  0.00     0.034 C 
ENDBRANCH  12  13
ENDBRANCH   5  12
BRANCH   8  15
HETATM   15  O3  UNK     1      19.378   0.392  28.477  1.00  0.00    -0.356 OA
HETATM   16  C12 UNK     1      20.213  -0.740  28.719  1.00  0.00     0.210 C 
ENDBRANCH   8  15
TORSDOF 3
ENDMDL
MODEL 7
REMARK VINA RESULT:      -6.1      4.073      7.275
REMARK  3 active torsions:
REMARK  status: ('A' for Active; 'I' for Inactive)
REMARK    1  A    between atoms: C10_14  and  O2_2 
REMARK    2  A    between atoms: C3_7  and  O2_2 
REMARK    3  A    between atoms: C6_10  and  O3_3 
ROOT
HETATM    1  O1  UNK     1      17.981   2.787  33.167  1.00  0.00    -0.275 OA
HETATM    2  O4  UNK     1      17.929   0.601  33.838  1.00  0.00    -0.260 OA
HETATM    3  C1  UNK     1      18.730   3.337  30.903  1.00  0.00     0.032 A 
HETATM    4  C2  UNK     1      18.243   3.733  32.151  1.00  0.00     0.095 A 
HETATM    5  C3  UNK     1      18.970   1.906  30.688  1.00  0.00     0.087 A 
HETATM    6  C4  UNK     1      18.940   4.339  29.946  1.00  0.00     0.020 A 
HETATM    7  C5  UNK     1      17.982   5.068  32.467  1.00  0.00     0.075 A 
HETATM    8  C6  UNK     1      18.205   6.046  31.505  1.00  0.00     0.070 A 
HETATM    9  C7  UNK     1      18.681   5.683  30.246  1.00  0.00     0.038 A 
HETATM   10  C8  UNK     1      18.701   1.024  31.654  1.00  0.00     0.120 A 
HETATM   11  C9  UNK     1      18.175   1.427  32.967  1.00  0.00     0.290 A 
ENDROOT
BRANCH   5  12
HETATM   12  O2  UNK     1      19.481   1.462  29.484  1.00  0.00    -0.350 OA
BRANCH  12  13
HETATM   13  C10 UNK     1      20.150   0.227  29.650  1.00  0.00     0.171 C 
HETATM   14  C11 UNK     1      19.836  -0.666  28.468  1.00  0.00     0.034 C 
ENDBRANCH  12  13
ENDBRANCH   5  12
BRANCH   8  15
HETATM   15  O3  UNK     1      17.957   7.353  31.788  1.00  0.00    -0.356 OA
HETATM   16  C12 UNK     1      16.628   7.824  31.566  1.00  0.00     0.210 C 
ENDBRANCH   8  15
TORSDOF 3
ENDMDL
MODEL 8
REMARK VINA RESULT:      -6.1     16.199     17.894
REMARK  3 active torsions:
REMARK  status: ('A' for Active; 'I' for Inactive)
REMARK    1  A    between atoms: C10_14  and  O2_2 
REMARK    2  A    between atoms: C3_7  and  O2_2 
REMARK    3  A    between atoms: C6_10  and  O3_3 
ROOT
HETATM    1  O1  UNK     1      23.117  -7.720  37.608  1.00  0.00    -0.275 OA
HETATM    2  O4  UNK     1      22.964  -5.716  38.700  1.00  0.00    -0.260 OA
HETATM    3  C1  UNK     1      21.080  -8.975  37.095  1.00  0.00     0.032 A 
HETATM    4  C2  UNK     1      22.469  -8.840  37.041  1.00  0.00     0.095 A 
HETATM    5  C3  UNK     1      20.318  -7.920  37.772  1.00  0.00     0.087 A 
HETATM    6  C4  UNK     1      20.518 -10.106  36.486  1.00  0.00     0.020 A 
HETATM    7  C5  UNK     1      23.292  -9.785  36.425  1.00  0.00     0.075 A 
HETATM    8  C6  UNK     1      22.714 -10.903  35.834  1.00  0.00     0.070 A 
HETATM    9  C7  UNK     1      21.330 -11.062  35.862  1.00  0.00     0.038 A 
HETATM   10  C8  UNK     1      20.947  -6.860  38.289  1.00  0.00     0.120 A 
HETATM   11  C9  UNK     1      22.408  -6.700  38.225  1.00  0.00     0.290 A 
ENDROOT
BRANCH   5  12
HETATM   12  O2  UNK     1      18.945  -8.018  37.883  1.00  0.00    -0.350 OA
BRANCH  12  13
HETATM   13  C10 UNK     1      18.313  -6.928  37.242  1.00  0.00     0.171 C 
HETATM   14  C11 UNK     1      18.040  -7.297  35.799  1.00  0.00     0.034 C 
ENDBRANCH  12  13
ENDBRANCH   5  12
BRANCH   8  15
HETATM   15  O3  UNK     1      23.495 -11.836  35.227  1.00  0.00    -0.356 OA
HETATM   16  C12 UNK     1      24.636 -12.300  35.949  1.00  0.00     0.210 C 
ENDBRANCH   8  15
TORSDOF 3
ENDMDL
MODEL 9
REMARK VINA RESULT:      -6.0     17.737     20.268
REMARK  3 active torsions:
REMARK  status: ('A' for Active; 'I' for Inactive)
REMARK    1  A    between atoms: C10_14  and  O2_2 
REMARK    2  A    between atoms: C3_7  and  O2_2 
REMARK    3  A    between atoms: C6_10  and  O3_3 
ROOT
HETATM    1  O1  UNK     1      28.346  -5.102  38.636  1.00  0.00    -0.275 OA
HETATM    2  O4  UNK     1      26.067  -4.934  38.748  1.00  0.00    -0.260 OA
HETATM    3  C1  UNK     1      29.381  -7.295  38.312  1.00  0.00     0.032 A 
HETATM    4  C2  UNK     1      29.491  -5.912  38.472  1.00  0.00     0.095 A 
HETATM    5  C3  UNK     1      28.035  -7.879  38.333  1.00  0.00     0.087 A 
HETATM    6  C4  UNK     1      30.567  -8.020  38.132  1.00  0.00     0.020 A 
HETATM    7  C5  UNK     1      30.721  -5.251  38.471  1.00  0.00     0.075 A 
HETATM    8  C6  UNK     1      31.886  -5.991  38.299  1.00  0.00     0.070 A 
HETATM    9  C7  UNK     1      31.809  -7.372  38.127  1.00  0.00     0.038 A 
HETATM   10  C8  UNK     1      26.962  -7.095  38.473  1.00  0.00     0.120 A 
HETATM   11  C9  UNK     1      27.065  -5.636  38.627  1.00  0.00     0.290 A 
ENDROOT
BRANCH   5  12
HETATM   12  O2  UNK     1      27.869  -9.244  38.212  1.00  0.00    -0.350 OA
BRANCH  12  13
HETATM   13  C10 UNK     1      27.045  -9.741  39.248  1.00  0.00     0.171 C 
HETATM   14  C11 UNK     1      27.920 -10.219  40.387  1.00  0.00     0.034 C 
ENDBRANCH  12  13
ENDBRANCH   5  12
BRANCH   8  15
HETATM   15  O3  UNK     1      33.096  -5.370  38.293  1.00  0.00    -0.356 OA
HETATM   16  C12 UNK     1      34.173  -6.051  37.649  1.00  0.00     0.210 C 
ENDBRANCH   8  15
TORSDOF 3
ENDMDL
MODEL 10
REMARK VINA RESULT:      -6.0     18.472     20.901
REMARK  3 active torsions:
REMARK  status: ('A' for Active; 'I' for Inactive)
REMARK    1  A    between atoms: C10_14  and  O2_2 
REMARK    2  A    between atoms: C3_7  and  O2_2 
REMARK    3  A    between atoms: C6_10  and  O3_3 
ROOT
HETATM    1  O1  UNK     1      30.548  -4.603  38.793  1.00  0.00    -0.275 OA
HETATM    2  O4  UNK     1      28.486  -3.830  39.411  1.00  0.00    -0.260 OA
HETATM    3  C1  UNK     1      30.850  -6.981  38.300  1.00  0.00     0.032 A 
HETATM    4  C2  UNK     1      31.364  -5.686  38.396  1.00  0.00     0.095 A 
HETATM    5  C3  UNK     1      29.436  -7.179  38.638  1.00  0.00     0.087 A 
HETATM    6  C4  UNK     1      31.723  -7.992  37.877  1.00  0.00     0.020 A 
HETATM    7  C5  UNK     1      32.695  -5.383  38.101  1.00  0.00     0.075 A 
HETATM    8  C6  UNK     1      33.546  -6.403  37.691  1.00  0.00     0.070 A 
HETATM    9  C7  UNK     1      33.060  -7.704  37.575  1.00  0.00     0.038 A 
HETATM   10  C8  UNK     1      28.676  -6.141  38.997  1.00  0.00     0.120 A 
HETATM   11  C9  UNK     1      29.203  -4.770  39.086  1.00  0.00     0.290 A 
ENDROOT
BRANCH   5  12
HETATM   12  O2  UNK     1      28.883  -8.444  38.593  1.00  0.00    -0.350 OA
BRANCH  12  13
HETATM   13  C10 UNK     1      27.752  -8.526  39.439  1.00  0.00     0.171 C 
HETATM   14  C11 UNK     1      27.671  -9.922  40.020  1.00  0.00     0.034 C 
ENDBRANCH  12  13
ENDBRANCH   5  12
BRANCH   8  15
HETATM   15  O3  UNK     1      34.846  -6.132  37.397  1.00  0.00    -0.356 OA
HETATM   16  C12 UNK     1      35.110  -5.488  36.150  1.00  0.00     0.210 C 
ENDBRANCH   8  15
TORSDOF 3
ENDMDL
