MODEL 1
REMARK VINA RESULT:      -8.3      0.000      0.000
REMARK  6 active torsions:
REMARK  status: ('A' for Active; 'I' for Inactive)
REMARK    1  A    between atoms: C11_17  and  O3_3 
REMARK    2  A    between atoms: C18_24  and  O3_3 
REMARK    3  A    between atoms: C1_7  and  C10_16 
REMARK    4  A    between atoms: C11_17  and  C6_12 
REMARK    5  A    between atoms: C18_24  and  C20_26 
REMARK    6  A    between atoms: C20_26  and  C23_29 
ROOT
HETATM    1  O1  UNK     1      27.082  -5.990  32.866  1.00  0.00    -0.293 OA
HETATM    2  N1  UNK     1      29.116 -10.028  31.451  1.00  0.00    -0.362 N 
HETATM    3  C1  UNK     1      28.758  -8.219  33.607  1.00  0.00     0.104 C 
HETATM    4  C2  UNK     1      28.206  -7.975  32.206  1.00  0.00     0.024 C 
HETATM    5  C3  UNK     1      28.424  -8.858  31.208  1.00  0.00     0.020 C 
HETATM    6  C4  UNK     1      27.944  -8.644  29.795  1.00  0.00     0.058 C 
HETATM    7  C5  UNK     1      27.655  -7.178  29.502  1.00  0.00     0.014 C 
HETATM    8  C6  UNK     1      29.372  -9.611  33.766  1.00  0.00     0.052 C 
HETATM    9  C7  UNK     1      26.763  -6.577  30.573  1.00  0.00     0.084 C 
HETATM   10  C8  UNK     1      27.353  -6.772  31.954  1.00  0.00     0.158 C 
HETATM   11  C9  UNK     1      29.546 -10.432  32.705  1.00  0.00     0.018 C 
HETATM   12  C13 UNK     1      30.182 -11.795  32.748  1.00  0.00     0.069 C 
HETATM   13  H8  UNK     1      29.256 -10.666  30.674  1.00  0.00     0.165 HD
ENDROOT
BRANCH   3  14
HETATM   14  C10 UNK     1      29.771  -7.162  33.957  1.00  0.00     0.029 A 
HETATM   15  C12 UNK     1      29.682  -6.508  35.288  1.00  0.00     0.194 A 
HETATM   16  O5  UNK     1      28.817  -6.803  36.101  1.00  0.00    -0.287 OA
HETATM   17  C15 UNK     1      30.698  -5.480  35.579  1.00  0.00     0.048 A 
HETATM   18  C16 UNK     1      31.661  -5.184  34.614  1.00  0.00     0.089 A 
HETATM   19  C17 UNK     1      30.699  -4.807  36.803  1.00  0.00     0.018 A 
HETATM   20  O2  UNK     1      31.706  -5.814  33.395  1.00  0.00    -0.321 OA
HETATM   21  C19 UNK     1      32.631  -4.213  34.868  1.00  0.00     0.038 A 
HETATM   22  C14 UNK     1      30.755  -6.769  33.137  1.00  0.00     0.154 A 
HETATM   23  C22 UNK     1      32.635  -3.541  36.090  1.00  0.00     0.003 A 
HETATM   24  C21 UNK     1      31.671  -3.837  37.055  1.00  0.00     0.001 A 
ENDBRANCH   3  14
BRANCH   8  25
HETATM   25  C11 UNK     1      29.710 -10.026  35.138  1.00  0.00     0.292 C 
HETATM   26  O4  UNK     1      28.916 -10.000  36.059  1.00  0.00    -0.259 OA
BRANCH  25  27
HETATM   27  O3  UNK     1      31.007 -10.416  35.157  1.00  0.00    -0.317 OA
BRANCH  27  28
HETATM   28  C18 UNK     1      31.900  -9.519  35.826  1.00  0.00     0.183 C 
BRANCH  28  29
HETATM   29  C20 UNK     1      32.971  -9.038  34.853  1.00  0.00     0.065 C 
BRANCH  29  30
HETATM   30  C23 UNK     1      33.812  -7.926  35.432  1.00  0.00    -0.056 A 
HETATM   31  C24 UNK     1      34.758  -7.303  34.632  1.00  0.00     0.007 A 
HETATM   32  C26 UNK     1      35.537  -6.275  35.165  1.00  0.00     0.001 A 
HETATM   33  C28 UNK     1      35.359  -5.884  36.492  1.00  0.00     0.000 A 
HETATM   34  C27 UNK     1      34.404  -6.520  37.285  1.00  0.00     0.001 A 
HETATM   35  C25 UNK     1      33.626  -7.547  36.752  1.00  0.00     0.007 A 
ENDBRANCH  29  30
ENDBRANCH  28  29
ENDBRANCH  27  28
ENDBRANCH  25  27
ENDBRANCH   8  25
TORSDOF 6
ENDMDL
MODEL 2
REMARK VINA RESULT:      -8.3      2.388      6.395
REMARK  6 active torsions:
REMARK  status: ('A' for Active; 'I' for Inactive)
REMARK    1  A    between atoms: C11_17  and  O3_3 
REMARK    2  A    between atoms: C18_24  and  O3_3 
REMARK    3  A    between atoms: C1_7  and  C10_16 
REMARK    4  A    between atoms: C11_17  and  C6_12 
REMARK    5  A    between atoms: C18_24  and  C20_26 
REMARK    6  A    between atoms: C20_26  and  C23_29 
ROOT
HETATM    1  O1  UNK     1      33.417  -5.034  35.028  1.00  0.00    -0.293 OA
HETATM    2  N1  UNK     1      29.396  -6.200  37.246  1.00  0.00    -0.362 N 
HETATM    3  C1  UNK     1      31.339  -7.010  35.343  1.00  0.00     0.104 C 
HETATM    4  C2  UNK     1      31.355  -5.650  36.032  1.00  0.00     0.024 C 
HETATM    5  C3  UNK     1      30.393  -5.303  36.913  1.00  0.00     0.020 C 
HETATM    6  C4  UNK     1      30.332  -3.955  37.584  1.00  0.00     0.058 C 
HETATM    7  C5  UNK     1      31.121  -2.898  36.823  1.00  0.00     0.014 C 
HETATM    8  C6  UNK     1      30.272  -7.948  35.912  1.00  0.00     0.052 C 
HETATM    9  C7  UNK     1      32.523  -3.390  36.511  1.00  0.00     0.084 C 
HETATM   10  C8  UNK     1      32.492  -4.712  35.774  1.00  0.00     0.158 C 
HETATM   11  C9  UNK     1      29.349  -7.511  36.800  1.00  0.00     0.018 C 
HETATM   12  C13 UNK     1      28.232  -8.337  37.378  1.00  0.00     0.069 C 
HETATM   13  H8  UNK     1      28.694  -5.901  37.914  1.00  0.00     0.165 HD
ENDROOT
BRANCH   3  14
HETATM   14  C10 UNK     1      31.144  -6.841  33.861  1.00  0.00     0.029 A 
HETATM   15  C12 UNK     1      32.124  -7.473  32.940  1.00  0.00     0.194 A 
HETATM   16  O5  UNK     1      33.075  -8.124  33.349  1.00  0.00    -0.287 OA
HETATM   17  C15 UNK     1      31.887  -7.275  31.498  1.00  0.00     0.048 A 
HETATM   18  C16 UNK     1      30.785  -6.523  31.088  1.00  0.00     0.089 A 
HETATM   19  C17 UNK     1      32.752  -7.829  30.551  1.00  0.00     0.018 A 
HETATM   20  O2  UNK     1      29.903  -5.956  31.975  1.00  0.00    -0.321 OA
HETATM   21  C19 UNK     1      30.542  -6.322  29.729  1.00  0.00     0.038 A 
HETATM   22  C14 UNK     1      30.136  -6.149  33.314  1.00  0.00     0.154 A 
HETATM   23  C22 UNK     1      31.404  -6.875  28.782  1.00  0.00     0.003 A 
HETATM   24  C21 UNK     1      32.506  -7.627  29.192  1.00  0.00     0.001 A 
ENDBRANCH   3  14
BRANCH   8  25
HETATM   25  C11 UNK     1      30.338  -9.355  35.483  1.00  0.00     0.292 C 
HETATM   26  O4  UNK     1      31.234 -10.112  35.808  1.00  0.00    -0.259 OA
BRANCH  25  27
HETATM   27  O3  UNK     1      29.263  -9.612  34.700  1.00  0.00    -0.317 OA
BRANCH  27  28
HETATM   28  C18 UNK     1      29.570 -10.101  33.390  1.00  0.00     0.183 C 
BRANCH  28  29
HETATM   29  C20 UNK     1      28.759  -9.336  32.351  1.00  0.00     0.065 C 
BRANCH  29  30
HETATM   30  C23 UNK     1      29.157  -9.690  30.938  1.00  0.00    -0.056 A 
HETATM   31  C24 UNK     1      28.405  -9.205  29.879  1.00  0.00     0.007 A 
HETATM   32  C26 UNK     1      28.772  -9.532  28.573  1.00  0.00     0.001 A 
HETATM   33  C28 UNK     1      29.886 -10.339  28.344  1.00  0.00     0.000 A 
HETATM   34  C27 UNK     1      30.633 -10.820  29.419  1.00  0.00     0.001 A 
HETATM   35  C25 UNK     1      30.266 -10.493  30.725  1.00  0.00     0.007 A 
ENDBRANCH  29  30
ENDBRANCH  28  29
ENDBRANCH  27  28
ENDBRANCH  25  27
ENDBRANCH   8  25
TORSDOF 6
ENDMDL
MODEL 3
REMARK VINA RESULT:      -8.3      2.642      5.410
REMARK  6 active torsions:
REMARK  status: ('A' for Active; 'I' for Inactive)
REMARK    1  A    between atoms: C11_17  and  O3_3 
REMARK    2  A    between atoms: C18_24  and  O3_3 
REMARK    3  A    between atoms: C1_7  and  C10_16 
REMARK    4  A    between atoms: C11_17  and  C6_12 
REMARK    5  A    between atoms: C18_24  and  C20_26 
REMARK    6  A    between atoms: C20_26  and  C23_29 
ROOT
HETATM    1  O1  UNK     1      32.188  -9.237  34.705  1.00  0.00    -0.293 OA
HETATM    2  N1  UNK     1      28.832  -9.855  31.418  1.00  0.00    -0.362 N 
HETATM    3  C1  UNK     1      29.866  -8.118  33.410  1.00  0.00     0.104 C 
HETATM    4  C2  UNK     1      30.424  -9.511  33.140  1.00  0.00     0.024 C 
HETATM    5  C3  UNK     1      29.881 -10.309  32.195  1.00  0.00     0.020 C 
HETATM    6  C4  UNK     1      30.360 -11.711  31.921  1.00  0.00     0.058 C 
HETATM    7  C5  UNK     1      31.132 -12.295  33.097  1.00  0.00     0.014 C 
HETATM    8  C6  UNK     1      28.811  -7.695  32.385  1.00  0.00     0.052 C 
HETATM    9  C7  UNK     1      32.210 -11.336  33.566  1.00  0.00     0.084 C 
HETATM   10  C8  UNK     1      31.633  -9.974  33.889  1.00  0.00     0.158 C 
HETATM   11  C9  UNK     1      28.328  -8.565  31.467  1.00  0.00     0.018 C 
HETATM   12  C13 UNK     1      27.259  -8.264  30.453  1.00  0.00     0.069 C 
HETATM   13  H8  UNK     1      28.455 -10.484  30.718  1.00  0.00     0.165 HD
ENDROOT
BRANCH   3  14
HETATM   14  C10 UNK     1      29.295  -8.047  34.801  1.00  0.00     0.029 A 
HETATM   15  C12 UNK     1      29.702  -6.919  35.677  1.00  0.00     0.194 A 
HETATM   16  O5  UNK     1      30.480  -6.052  35.302  1.00  0.00    -0.287 OA
HETATM   17  C15 UNK     1      29.115  -6.898  37.030  1.00  0.00     0.048 A 
HETATM   18  C16 UNK     1      28.234  -7.913  37.403  1.00  0.00     0.089 A 
HETATM   19  C17 UNK     1      29.435  -5.878  37.929  1.00  0.00     0.018 A 
HETATM   20  O2  UNK     1      27.885  -8.939  36.560  1.00  0.00    -0.321 OA
HETATM   21  C19 UNK     1      27.668  -7.913  38.678  1.00  0.00     0.038 A 
HETATM   22  C14 UNK     1      28.438  -8.945  35.304  1.00  0.00     0.154 A 
HETATM   23  C22 UNK     1      27.985  -6.896  39.578  1.00  0.00     0.003 A 
HETATM   24  C21 UNK     1      28.867  -5.880  39.204  1.00  0.00     0.001 A 
ENDBRANCH   3  14
BRANCH   8  25
HETATM   25  C11 UNK     1      28.392  -6.284  32.418  1.00  0.00     0.292 C 
HETATM   26  O4  UNK     1      27.292  -5.922  32.789  1.00  0.00    -0.259 OA
BRANCH  25  27
HETATM   27  O3  UNK     1      29.423  -5.523  31.977  1.00  0.00    -0.317 OA
BRANCH  27  28
HETATM   28  C18 UNK     1      29.425  -5.263  30.570  1.00  0.00     0.183 C 
BRANCH  28  29
HETATM   29  C20 UNK     1      30.841  -5.405  30.021  1.00  0.00     0.065 C 
BRANCH  29  30
HETATM   30  C23 UNK     1      31.212  -6.845  29.761  1.00  0.00    -0.056 A 
HETATM   31  C24 UNK     1      32.213  -7.436  30.517  1.00  0.00     0.007 A 
HETATM   32  C26 UNK     1      32.558  -8.766  30.276  1.00  0.00     0.001 A 
HETATM   33  C28 UNK     1      31.897  -9.489  29.283  1.00  0.00     0.000 A 
HETATM   34  C27 UNK     1      30.892  -8.881  28.530  1.00  0.00     0.001 A 
HETATM   35  C25 UNK     1      30.548  -7.551  28.770  1.00  0.00     0.007 A 
ENDBRANCH  29  30
ENDBRANCH  28  29
ENDBRANCH  27  28
ENDBRANCH  25  27
ENDBRANCH   8  25
TORSDOF 6
ENDMDL
MODEL 4
REMARK VINA RESULT:      -8.2      2.650      6.548
REMARK  6 active torsions:
REMARK  status: ('A' for Active; 'I' for Inactive)
REMARK    1  A    between atoms: C11_17  and  O3_3 
REMARK    2  A    between atoms: C18_24  and  O3_3 
REMARK    3  A    between atoms: C1_7  and  C10_16 
REMARK    4  A    between atoms: C11_17  and  C6_12 
REMARK    5  A    between atoms: C18_24  and  C20_26 
REMARK    6  A    between atoms: C20_26  and  C23_29 
ROOT
HETATM    1  O1  UNK     1      30.267  -4.778  36.834  1.00  0.00    -0.293 OA
HETATM    2  N1  UNK     1      32.479  -7.380  33.550  1.00  0.00    -0.362 N 
HETATM    3  C1  UNK     1      30.042  -6.938  34.935  1.00  0.00     0.104 C 
HETATM    4  C2  UNK     1      31.330  -6.181  35.241  1.00  0.00     0.024 C 
HETATM    5  C3  UNK     1      32.471  -6.445  34.568  1.00  0.00     0.020 C 
HETATM    6  C4  UNK     1      33.782  -5.764  34.863  1.00  0.00     0.058 C 
HETATM    7  C5  UNK     1      33.814  -5.158  36.260  1.00  0.00     0.014 C 
HETATM    8  C6  UNK     1      30.161  -7.829  33.697  1.00  0.00     0.052 C 
HETATM    9  C7  UNK     1      32.584  -4.303  36.507  1.00  0.00     0.084 C 
HETATM   10  C8  UNK     1      31.311  -5.084  36.258  1.00  0.00     0.158 C 
HETATM   11  C9  UNK     1      31.349  -8.031  33.082  1.00  0.00     0.018 C 
HETATM   12  C13 UNK     1      31.579  -8.924  31.894  1.00  0.00     0.069 C 
HETATM   13  H8  UNK     1      33.356  -7.546  33.068  1.00  0.00     0.165 HD
ENDROOT
BRANCH   3  14
HETATM   14  C10 UNK     1      29.626  -7.758  36.127  1.00  0.00     0.029 A 
HETATM   15  C12 UNK     1      28.248  -7.589  36.656  1.00  0.00     0.194 A 
HETATM   16  O5  UNK     1      27.449  -6.811  36.154  1.00  0.00    -0.287 OA
HETATM   17  C15 UNK     1      27.892  -8.415  37.825  1.00  0.00     0.048 A 
HETATM   18  C16 UNK     1      28.844  -9.286  38.356  1.00  0.00     0.089 A 
HETATM   19  C17 UNK     1      26.620  -8.329  38.397  1.00  0.00     0.018 A 
HETATM   20  O2  UNK     1      30.107  -9.411  37.834  1.00  0.00    -0.321 OA
HETATM   21  C19 UNK     1      28.528 -10.076  39.462  1.00  0.00     0.038 A 
HETATM   22  C14 UNK     1      30.425  -8.636  36.746  1.00  0.00     0.154 A 
HETATM   23  C22 UNK     1      27.259  -9.993  40.034  1.00  0.00     0.003 A 
HETATM   24  C21 UNK     1      26.307  -9.122  39.503  1.00  0.00     0.001 A 
ENDBRANCH   3  14
BRANCH   8  25
HETATM   25  C11 UNK     1      28.908  -8.409  33.183  1.00  0.00     0.292 C 
HETATM   26  O4  UNK     1      28.727  -9.605  33.058  1.00  0.00    -0.259 OA
BRANCH  25  27
HETATM   27  O3  UNK     1      28.055  -7.395  32.899  1.00  0.00    -0.317 OA
BRANCH  27  28
HETATM   28  C18 UNK     1      28.240  -6.791  31.614  1.00  0.00     0.183 C 
BRANCH  28  29
HETATM   29  C20 UNK     1      27.426  -7.546  30.568  1.00  0.00     0.065 C 
BRANCH  29  30
HETATM   30  C23 UNK     1      28.299  -8.335  29.623  1.00  0.00    -0.056 A 
HETATM   31  C24 UNK     1      27.839  -9.542  29.120  1.00  0.00     0.007 A 
HETATM   32  C26 UNK     1      28.645 -10.273  28.247  1.00  0.00     0.001 A 
HETATM   33  C28 UNK     1      29.901  -9.786  27.887  1.00  0.00     0.000 A 
HETATM   34  C27 UNK     1      30.352  -8.570  28.401  1.00  0.00     0.001 A 
HETATM   35  C25 UNK     1      29.546  -7.840  29.274  1.00  0.00     0.007 A 
ENDBRANCH  29  30
ENDBRANCH  28  29
ENDBRANCH  27  28
ENDBRANCH  25  27
ENDBRANCH   8  25
TORSDOF 6
ENDMDL
MODEL 5
REMARK VINA RESULT:      -8.2      2.910      5.317
REMARK  6 active torsions:
REMARK  status: ('A' for Active; 'I' for Inactive)
REMARK    1  A    between atoms: C11_17  and  O3_3 
REMARK    2  A    between atoms: C18_24  and  O3_3 
REMARK    3  A    between atoms: C1_7  and  C10_16 
REMARK    4  A    between atoms: C11_17  and  C6_12 
REMARK    5  A    between atoms: C18_24  and  C20_26 
REMARK    6  A    between atoms: C20_26  and  C23_29 
ROOT
HETATM    1  O1  UNK     1      30.660  -9.345  34.658  1.00  0.00    -0.293 OA
HETATM    2  N1  UNK     1      31.479  -4.681  34.507  1.00  0.00    -0.362 N 
HETATM    3  C1  UNK     1      31.080  -6.934  36.186  1.00  0.00     0.104 C 
HETATM    4  C2  UNK     1      30.982  -6.993  34.665  1.00  0.00     0.024 C 
HETATM    5  C3  UNK     1      31.159  -5.886  33.912  1.00  0.00     0.020 C 
HETATM    6  C4  UNK     1      31.025  -5.877  32.411  1.00  0.00     0.058 C 
HETATM    7  C5  UNK     1      30.209  -7.057  31.899  1.00  0.00     0.014 C 
HETATM    8  C6  UNK     1      31.582  -5.580  36.694  1.00  0.00     0.052 C 
HETATM    9  C7  UNK     1      30.719  -8.361  32.484  1.00  0.00     0.084 C 
HETATM   10  C8  UNK     1      30.753  -8.311  33.996  1.00  0.00     0.158 C 
HETATM   11  C9  UNK     1      31.734  -4.525  35.860  1.00  0.00     0.018 C 
HETATM   12  C13 UNK     1      32.172  -3.145  36.267  1.00  0.00     0.069 C 
HETATM   13  H8  UNK     1      31.606  -3.875  33.905  1.00  0.00     0.165 HD
ENDROOT
BRANCH   3  14
HETATM   14  C10 UNK     1      29.747  -7.258  36.805  1.00  0.00     0.029 A 
HETATM   15  C12 UNK     1      29.680  -8.350  37.810  1.00  0.00     0.194 A 
HETATM   16  O5  UNK     1      30.669  -8.986  38.147  1.00  0.00    -0.287 OA
HETATM   17  C15 UNK     1      28.350  -8.628  38.384  1.00  0.00     0.048 A 
HETATM   18  C16 UNK     1      27.256  -7.871  37.962  1.00  0.00     0.089 A 
HETATM   19  C17 UNK     1      28.182  -9.636  39.337  1.00  0.00     0.018 A 
HETATM   20  O2  UNK     1      27.364  -6.870  37.029  1.00  0.00    -0.321 OA
HETATM   21  C19 UNK     1      25.989  -8.118  38.491  1.00  0.00     0.038 A 
HETATM   22  C14 UNK     1      28.608  -6.622  36.503  1.00  0.00     0.154 A 
HETATM   23  C22 UNK     1      25.820  -9.123  39.444  1.00  0.00     0.003 A 
HETATM   24  C21 UNK     1      26.913  -9.880  39.866  1.00  0.00     0.001 A 
ENDBRANCH   3  14
BRANCH   8  25
HETATM   25  C11 UNK     1      31.937  -5.506  38.121  1.00  0.00     0.292 C 
HETATM   26  O4  UNK     1      31.388  -4.759  38.908  1.00  0.00    -0.259 OA
BRANCH  25  27
HETATM   27  O3  UNK     1      32.939  -6.387  38.356  1.00  0.00    -0.317 OA
BRANCH  27  28
HETATM   28  C18 UNK     1      34.188  -6.063  37.737  1.00  0.00     0.183 C 
BRANCH  28  29
HETATM   29  C20 UNK     1      34.723  -7.280  36.989  1.00  0.00     0.065 C 
BRANCH  29  30
HETATM   30  C23 UNK     1      34.706  -7.085  35.492  1.00  0.00    -0.056 A 
HETATM   31  C24 UNK     1      34.383  -8.155  34.671  1.00  0.00     0.007 A 
HETATM   32  C26 UNK     1      34.367  -7.976  33.288  1.00  0.00     0.001 A 
HETATM   33  C28 UNK     1      34.674  -6.730  32.743  1.00  0.00     0.000 A 
HETATM   34  C27 UNK     1      34.998  -5.663  33.580  1.00  0.00     0.001 A 
HETATM   35  C25 UNK     1      35.014  -5.841  34.964  1.00  0.00     0.007 A 
ENDBRANCH  29  30
ENDBRANCH  28  29
ENDBRANCH  27  28
ENDBRANCH  25  27
ENDBRANCH   8  25
TORSDOF 6
ENDMDL
MODEL 6
REMARK VINA RESULT:      -8.1      2.526      4.821
REMARK  6 active torsions:
REMARK  status: ('A' for Active; 'I' for Inactive)
REMARK    1  A    between atoms: C11_17  and  O3_3 
REMARK    2  A    between atoms: C18_24  and  O3_3 
REMARK    3  A    between atoms: C1_7  and  C10_16 
REMARK    4  A    between atoms: C11_17  and  C6_12 
REMARK    5  A    between atoms: C18_24  and  C20_26 
REMARK    6  A    between atoms: C20_26  and  C23_29 
ROOT
HETATM    1  O1  UNK     1      31.686  -8.790  27.970  1.00  0.00    -0.293 OA
HETATM    2  N1  UNK     1      27.629  -8.059  30.306  1.00  0.00    -0.362 N 
HETATM    3  C1  UNK     1      30.353  -7.306  30.055  1.00  0.00     0.104 C 
HETATM    4  C2  UNK     1      29.715  -8.429  29.245  1.00  0.00     0.024 C 
HETATM    5  C3  UNK     1      28.419  -8.765  29.418  1.00  0.00     0.020 C 
HETATM    6  C4  UNK     1      27.751  -9.897  28.682  1.00  0.00     0.058 C 
HETATM    7  C5  UNK     1      28.759 -10.901  28.136  1.00  0.00     0.014 C 
HETATM    8  C6  UNK     1      29.333  -6.522  30.884  1.00  0.00     0.052 C 
HETATM    9  C7  UNK     1      29.857 -10.197  27.359  1.00  0.00     0.084 C 
HETATM   10  C8  UNK     1      30.523  -9.125  28.196  1.00  0.00     0.158 C 
HETATM   11  C9  UNK     1      28.048  -6.932  30.995  1.00  0.00     0.018 C 
HETATM   12  C13 UNK     1      26.985  -6.263  31.822  1.00  0.00     0.069 C 
HETATM   13  H8  UNK     1      26.660  -8.341  30.405  1.00  0.00     0.165 HD
ENDROOT
BRANCH   3  14
HETATM   14  C10 UNK     1      31.433  -7.857  30.947  1.00  0.00     0.029 A 
HETATM   15  C12 UNK     1      32.823  -7.365  30.763  1.00  0.00     0.194 A 
HETATM   16  O5  UNK     1      33.112  -6.531  29.916  1.00  0.00    -0.287 OA
HETATM   17  C15 UNK     1      33.842  -7.938  31.662  1.00  0.00     0.048 A 
HETATM   18  C16 UNK     1      33.456  -8.886  32.610  1.00  0.00     0.089 A 
HETATM   19  C17 UNK     1      35.178  -7.541  31.569  1.00  0.00     0.018 A 
HETATM   20  O2  UNK     1      32.158  -9.313  32.745  1.00  0.00    -0.321 OA
HETATM   21  C19 UNK     1      34.404  -9.442  33.469  1.00  0.00     0.038 A 
HETATM   22  C14 UNK     1      31.220  -8.771  31.902  1.00  0.00     0.154 A 
HETATM   23  C22 UNK     1      35.738  -9.046  33.379  1.00  0.00     0.003 A 
HETATM   24  C21 UNK     1      36.125  -8.098  32.431  1.00  0.00     0.001 A 
ENDBRANCH   3  14
BRANCH   8  25
HETATM   25  C11 UNK     1      29.812  -5.276  31.506  1.00  0.00     0.292 C 
HETATM   26  O4  UNK     1      30.073  -4.271  30.872  1.00  0.00    -0.259 OA
BRANCH  25  27
HETATM   27  O3  UNK     1      29.894  -5.472  32.843  1.00  0.00    -0.317 OA
BRANCH  27  28
HETATM   28  C18 UNK     1      31.190  -5.250  33.409  1.00  0.00     0.183 C 
BRANCH  28  29
HETATM   29  C20 UNK     1      31.418  -6.215  34.569  1.00  0.00     0.065 C 
BRANCH  29  30
HETATM   30  C23 UNK     1      32.855  -6.227  35.030  1.00  0.00    -0.056 A 
HETATM   31  C24 UNK     1      33.778  -5.405  34.400  1.00  0.00     0.007 A 
HETATM   32  C26 UNK     1      35.106  -5.415  34.826  1.00  0.00     0.001 A 
HETATM   33  C28 UNK     1      35.495  -6.247  35.875  1.00  0.00     0.000 A 
HETATM   34  C27 UNK     1      34.557  -7.069  36.499  1.00  0.00     0.001 A 
HETATM   35  C25 UNK     1      33.228  -7.059  36.074  1.00  0.00     0.007 A 
ENDBRANCH  29  30
ENDBRANCH  28  29
ENDBRANCH  27  28
ENDBRANCH  25  27
ENDBRANCH   8  25
TORSDOF 6
ENDMDL
MODEL 7
REMARK VINA RESULT:      -8.0      2.314      6.817
REMARK  6 active torsions:
REMARK  status: ('A' for Active; 'I' for Inactive)
REMARK    1  A    between atoms: C11_17  and  O3_3 
REMARK    2  A    between atoms: C18_24  and  O3_3 
REMARK    3  A    between atoms: C1_7  and  C10_16 
REMARK    4  A    between atoms: C11_17  and  C6_12 
REMARK    5  A    between atoms: C18_24  and  C20_26 
REMARK    6  A    between atoms: C20_26  and  C23_29 
ROOT
HETATM    1  O1  UNK     1      35.486  -8.146  33.567  1.00  0.00    -0.293 OA
HETATM    2  N1  UNK     1      32.502  -7.546  37.198  1.00  0.00    -0.362 N 
HETATM    3  C1  UNK     1      32.881  -8.742  34.653  1.00  0.00     0.104 C 
HETATM    4  C2  UNK     1      33.903  -7.819  35.306  1.00  0.00     0.024 C 
HETATM    5  C3  UNK     1      33.665  -7.256  36.510  1.00  0.00     0.020 C 
HETATM    6  C4  UNK     1      34.617  -6.299  37.179  1.00  0.00     0.058 C 
HETATM    7  C5  UNK     1      35.582  -5.661  36.187  1.00  0.00     0.014 C 
HETATM    8  C6  UNK     1      31.716  -9.088  35.584  1.00  0.00     0.052 C 
HETATM    9  C7  UNK     1      36.246  -6.717  35.322  1.00  0.00     0.084 C 
HETATM   10  C8  UNK     1      35.218  -7.588  34.631  1.00  0.00     0.158 C 
HETATM   11  C9  UNK     1      31.562  -8.474  36.779  1.00  0.00     0.018 C 
HETATM   12  C13 UNK     1      30.429  -8.706  37.742  1.00  0.00     0.069 C 
HETATM   13  H8  UNK     1      32.363  -7.104  38.100  1.00  0.00     0.165 HD
ENDROOT
BRANCH   3  14
HETATM   14  C10 UNK     1      32.362  -8.126  33.381  1.00  0.00     0.029 A 
HETATM   15  C12 UNK     1      32.473  -8.905  32.120  1.00  0.00     0.194 A 
HETATM   16  O5  UNK     1      32.968 -10.023  32.087  1.00  0.00    -0.287 OA
HETATM   17  C15 UNK     1      31.952  -8.254  30.904  1.00  0.00     0.048 A 
HETATM   18  C16 UNK     1      31.398  -6.977  31.000  1.00  0.00     0.089 A 
HETATM   19  C17 UNK     1      32.010  -8.904  29.668  1.00  0.00     0.018 A 
HETATM   20  O2  UNK     1      31.316  -6.293  32.188  1.00  0.00    -0.321 OA
HETATM   21  C19 UNK     1      30.900  -6.343  29.862  1.00  0.00     0.038 A 
HETATM   22  C14 UNK     1      31.805  -6.911  33.312  1.00  0.00     0.154 A 
HETATM   23  C22 UNK     1      30.956  -6.990  28.628  1.00  0.00     0.003 A 
HETATM   24  C21 UNK     1      31.510  -8.267  28.531  1.00  0.00     0.001 A 
ENDBRANCH   3  14
BRANCH   8  25
HETATM   25  C11 UNK     1      30.810 -10.158  35.132  1.00  0.00     0.292 C 
HETATM   26  O4  UNK     1      31.152 -11.320  35.020  1.00  0.00    -0.259 OA
BRANCH  25  27
HETATM   27  O3  UNK     1      29.597  -9.611  34.883  1.00  0.00    -0.317 OA
BRANCH  27  28
HETATM   28  C18 UNK     1      28.784 -10.336  33.955  1.00  0.00     0.183 C 
BRANCH  28  29
HETATM   29  C20 UNK     1      29.257 -10.062  32.531  1.00  0.00     0.065 C 
BRANCH  29  30
HETATM   30  C23 UNK     1      28.533  -8.897  31.901  1.00  0.00    -0.056 A 
HETATM   31  C24 UNK     1      28.254  -7.775  32.667  1.00  0.00     0.007 A 
HETATM   32  C26 UNK     1      27.585  -6.698  32.086  1.00  0.00     0.001 A 
HETATM   33  C28 UNK     1      27.202  -6.757  30.746  1.00  0.00     0.000 A 
HETATM   34  C27 UNK     1      27.488  -7.892  29.988  1.00  0.00     0.001 A 
HETATM   35  C25 UNK     1      28.157  -8.969  30.569  1.00  0.00     0.007 A 
ENDBRANCH  29  30
ENDBRANCH  28  29
ENDBRANCH  27  28
ENDBRANCH  25  27
ENDBRANCH   8  25
TORSDOF 6
ENDMDL
MODEL 8
REMARK VINA RESULT:      -8.0      2.507      6.981
REMARK  6 active torsions:
REMARK  status: ('A' for Active; 'I' for Inactive)
REMARK    1  A    between atoms: C11_17  and  O3_3 
REMARK    2  A    between atoms: C18_24  and  O3_3 
REMARK    3  A    between atoms: C1_7  and  C10_16 
REMARK    4  A    between atoms: C11_17  and  C6_12 
REMARK    5  A    between atoms: C18_24  and  C20_26 
REMARK    6  A    between atoms: C20_26  and  C23_29 
ROOT
HETATM    1  O1  UNK     1      26.900  -9.141  36.188  1.00  0.00    -0.293 OA
HETATM    2  N1  UNK     1      29.952  -5.862  37.728  1.00  0.00    -0.362 N 
HETATM    3  C1  UNK     1      29.179  -7.496  35.541  1.00  0.00     0.104 C 
HETATM    4  C2  UNK     1      28.520  -7.565  36.914  1.00  0.00     0.024 C 
HETATM    5  C3  UNK     1      28.941  -6.781  37.930  1.00  0.00     0.020 C 
HETATM    6  C4  UNK     1      28.359  -6.843  39.318  1.00  0.00     0.058 C 
HETATM    7  C5  UNK     1      27.646  -8.162  39.585  1.00  0.00     0.014 C 
HETATM    8  C6  UNK     1      30.176  -6.341  35.421  1.00  0.00     0.052 C 
HETATM    9  C7  UNK     1      26.665  -8.481  38.471  1.00  0.00     0.084 C 
HETATM   10  C8  UNK     1      27.346  -8.469  37.118  1.00  0.00     0.158 C 
HETATM   11  C9  UNK     1      30.535  -5.603  36.497  1.00  0.00     0.018 C 
HETATM   12  C13 UNK     1      31.539  -4.483  36.495  1.00  0.00     0.069 C 
HETATM   13  H8  UNK     1      30.237  -5.290  38.516  1.00  0.00     0.165 HD
ENDROOT
BRANCH   3  14
HETATM   14  C10 UNK     1      29.857  -8.802  35.224  1.00  0.00     0.029 A 
HETATM   15  C12 UNK     1      29.518  -9.485  33.948  1.00  0.00     0.194 A 
HETATM   16  O5  UNK     1      28.712  -9.019  33.155  1.00  0.00    -0.287 OA
HETATM   17  C15 UNK     1      30.210 -10.761  33.688  1.00  0.00     0.048 A 
HETATM   18  C16 UNK     1      31.120 -11.245  34.628  1.00  0.00     0.089 A 
HETATM   19  C17 UNK     1      29.960 -11.480  32.517  1.00  0.00     0.018 A 
HETATM   20  O2  UNK     1      31.404 -10.580  35.795  1.00  0.00    -0.321 OA
HETATM   21  C19 UNK     1      31.785 -12.450  34.402  1.00  0.00     0.038 A 
HETATM   22  C14 UNK     1      30.753  -9.393  36.025  1.00  0.00     0.154 A 
HETATM   23  C22 UNK     1      31.537 -13.169  33.233  1.00  0.00     0.003 A 
HETATM   24  C21 UNK     1      30.627 -12.686  32.292  1.00  0.00     0.001 A 
ENDBRANCH   3  14
BRANCH   8  25
HETATM   25  C11 UNK     1      30.680  -6.046  34.069  1.00  0.00     0.292 C 
HETATM   26  O4  UNK     1      31.850  -6.155  33.753  1.00  0.00    -0.259 OA
BRANCH  25  27
HETATM   27  O3  UNK     1      29.635  -5.654  33.302  1.00  0.00    -0.317 OA
BRANCH  27  28
HETATM   28  C18 UNK     1      29.987  -5.154  32.008  1.00  0.00     0.183 C 
BRANCH  28  29
HETATM   29  C20 UNK     1      28.851  -5.421  31.026  1.00  0.00     0.065 C 
BRANCH  29  30
HETATM   30  C23 UNK     1      28.860  -6.839  30.511  1.00  0.00    -0.056 A 
HETATM   31  C24 UNK     1      27.656  -7.474  30.247  1.00  0.00     0.007 A 
HETATM   32  C26 UNK     1      27.662  -8.785  29.771  1.00  0.00     0.001 A 
HETATM   33  C28 UNK     1      28.873  -9.446  29.565  1.00  0.00     0.000 A 
HETATM   34  C27 UNK     1      30.077  -8.795  29.836  1.00  0.00     0.001 A 
HETATM   35  C25 UNK     1      30.071  -7.484  30.311  1.00  0.00     0.007 A 
ENDBRANCH  29  30
ENDBRANCH  28  29
ENDBRANCH  27  28
ENDBRANCH  25  27
ENDBRANCH   8  25
TORSDOF 6
ENDMDL
MODEL 9
REMARK VINA RESULT:      -8.0      2.778      4.905
REMARK  6 active torsions:
REMARK  status: ('A' for Active; 'I' for Inactive)
REMARK    1  A    between atoms: C11_17  and  O3_3 
REMARK    2  A    between atoms: C18_24  and  O3_3 
REMARK    3  A    between atoms: C1_7  and  C10_16 
REMARK    4  A    between atoms: C11_17  and  C6_12 
REMARK    5  A    between atoms: C18_24  and  C20_26 
REMARK    6  A    between atoms: C20_26  and  C23_29 
ROOT
HETATM    1  O1  UNK     1      28.624  -9.480  33.161  1.00  0.00    -0.293 OA
HETATM    2  N1  UNK     1      30.704  -5.224  33.142  1.00  0.00    -0.362 N 
HETATM    3  C1  UNK     1      30.291  -7.620  34.604  1.00  0.00     0.104 C 
HETATM    4  C2  UNK     1      29.624  -7.329  33.264  1.00  0.00     0.024 C 
HETATM    5  C3  UNK     1      29.836  -6.163  32.619  1.00  0.00     0.020 C 
HETATM    6  C4  UNK     1      29.165  -5.803  31.318  1.00  0.00     0.058 C 
HETATM    7  C5  UNK     1      27.900  -6.618  31.079  1.00  0.00     0.014 C 
HETATM    8  C6  UNK     1      31.332  -6.565  34.988  1.00  0.00     0.052 C 
HETATM    9  C7  UNK     1      28.168  -8.100  31.267  1.00  0.00     0.084 C 
HETATM   10  C8  UNK     1      28.774  -8.382  32.625  1.00  0.00     0.158 C 
HETATM   11  C9  UNK     1      31.477  -5.425  34.274  1.00  0.00     0.018 C 
HETATM   12  C13 UNK     1      32.432  -4.307  34.596  1.00  0.00     0.069 C 
HETATM   13  H8  UNK     1      30.837  -4.362  32.624  1.00  0.00     0.165 HD
ENDROOT
BRANCH   3  14
HETATM   14  C10 UNK     1      29.252  -7.742  35.687  1.00  0.00     0.029 A 
HETATM   15  C12 UNK     1      29.370  -8.859  36.659  1.00  0.00     0.194 A 
HETATM   16  O5  UNK     1      30.280  -9.675  36.606  1.00  0.00    -0.287 OA
HETATM   17  C15 UNK     1      28.326  -8.933  37.697  1.00  0.00     0.048 A 
HETATM   18  C16 UNK     1      27.311  -7.976  37.709  1.00  0.00     0.089 A 
HETATM   19  C17 UNK     1      28.347  -9.947  38.658  1.00  0.00     0.018 A 
HETATM   20  O2  UNK     1      27.241  -6.958  36.790  1.00  0.00    -0.321 OA
HETATM   21  C19 UNK     1      26.312  -8.027  38.682  1.00  0.00     0.038 A 
HETATM   22  C14 UNK     1      28.220  -6.902  35.829  1.00  0.00     0.154 A 
HETATM   23  C22 UNK     1      26.332  -9.038  39.643  1.00  0.00     0.003 A 
HETATM   24  C21 UNK     1      27.347  -9.996  39.631  1.00  0.00     0.001 A 
ENDBRANCH   3  14
BRANCH   8  25
HETATM   25  C11 UNK     1      32.196  -6.883  36.137  1.00  0.00     0.292 C 
HETATM   26  O4  UNK     1      32.190  -6.246  37.174  1.00  0.00    -0.259 OA
BRANCH  25  27
HETATM   27  O3  UNK     1      32.949  -7.963  35.818  1.00  0.00    -0.317 OA
BRANCH  27  28
HETATM   28  C18 UNK     1      34.033  -7.701  34.921  1.00  0.00     0.183 C 
BRANCH  28  29
HETATM   29  C20 UNK     1      34.200  -8.873  33.959  1.00  0.00     0.065 C 
BRANCH  29  30
HETATM   30  C23 UNK     1      33.373  -8.709  32.707  1.00  0.00    -0.056 A 
HETATM   31  C24 UNK     1      33.471  -7.535  31.976  1.00  0.00     0.007 A 
HETATM   32  C26 UNK     1      32.706  -7.382  30.820  1.00  0.00     0.001 A 
HETATM   33  C28 UNK     1      31.853  -8.406  30.408  1.00  0.00     0.000 A 
HETATM   34  C27 UNK     1      31.764  -9.582  31.154  1.00  0.00     0.001 A 
HETATM   35  C25 UNK     1      32.529  -9.734  32.310  1.00  0.00     0.007 A 
ENDBRANCH  29  30
ENDBRANCH  28  29
ENDBRANCH  27  28
ENDBRANCH  25  27
ENDBRANCH   8  25
TORSDOF 6
ENDMDL
MODEL 10
REMARK VINA RESULT:      -8.0      1.947      2.785
REMARK  6 active torsions:
REMARK  status: ('A' for Active; 'I' for Inactive)
REMARK    1  A    between atoms: C11_17  and  O3_3 
REMARK    2  A    between atoms: C18_24  and  O3_3 
REMARK    3  A    between atoms: C1_7  and  C10_16 
REMARK    4  A    between atoms: C11_17  and  C6_12 
REMARK    5  A    between atoms: C18_24  and  C20_26 
REMARK    6  A    between atoms: C20_26  and  C23_29 
ROOT
HETATM    1  O1  UNK     1      29.945  -6.650  30.699  1.00  0.00    -0.293 OA
HETATM    2  N1  UNK     1      31.014 -11.238  31.207  1.00  0.00    -0.362 N 
HETATM    3  C1  UNK     1      30.515  -8.788  32.550  1.00  0.00     0.104 C 
HETATM    4  C2  UNK     1      30.568  -8.917  31.031  1.00  0.00     0.024 C 
HETATM    5  C3  UNK     1      30.833 -10.102  30.441  1.00  0.00     0.020 C 
HETATM    6  C4  UNK     1      30.947 -10.276  28.949  1.00  0.00     0.058 C 
HETATM    7  C5  UNK     1      31.232  -8.959  28.237  1.00  0.00     0.014 C 
HETATM    8  C6  UNK     1      30.587 -10.142  33.260  1.00  0.00     0.052 C 
HETATM    9  C7  UNK     1      30.257  -7.883  28.679  1.00  0.00     0.084 C 
HETATM   10  C8  UNK     1      30.258  -7.724  30.184  1.00  0.00     0.158 C 
HETATM   11  C9  UNK     1      30.852 -11.283  32.582  1.00  0.00     0.018 C 
HETATM   12  C13 UNK     1      30.993 -12.650  33.192  1.00  0.00     0.069 C 
HETATM   13  H8  UNK     1      31.208 -12.108  30.724  1.00  0.00     0.165 HD
ENDROOT
BRANCH   3  14
HETATM   14  C10 UNK     1      31.619  -7.888  33.035  1.00  0.00     0.029 A 
HETATM   15  C12 UNK     1      31.252  -6.632  33.737  1.00  0.00     0.194 A 
HETATM   16  O5  UNK     1      30.088  -6.311  33.932  1.00  0.00    -0.287 OA
HETATM   17  C15 UNK     1      32.372  -5.786  34.190  1.00  0.00     0.048 A 
HETATM   18  C16 UNK     1      33.681  -6.202  33.940  1.00  0.00     0.089 A 
HETATM   19  C17 UNK     1      32.132  -4.584  34.859  1.00  0.00     0.018 A 
HETATM   20  O2  UNK     1      33.975  -7.373  33.287  1.00  0.00    -0.321 OA
HETATM   21  C19 UNK     1      34.756  -5.417  34.359  1.00  0.00     0.038 A 
HETATM   22  C14 UNK     1      32.923  -8.150  32.871  1.00  0.00     0.154 A 
HETATM   23  C22 UNK     1      34.518  -4.216  35.029  1.00  0.00     0.003 A 
HETATM   24  C21 UNK     1      33.209  -3.801  35.278  1.00  0.00     0.001 A 
ENDBRANCH   3  14
BRANCH   8  25
HETATM   25  C11 UNK     1      30.300 -10.141  34.705  1.00  0.00     0.292 C 
HETATM   26  O4  UNK     1      29.194  -9.934  35.167  1.00  0.00    -0.259 OA
BRANCH  25  27
HETATM   27  O3  UNK     1      31.452 -10.401  35.368  1.00  0.00    -0.317 OA
BRANCH  27  28
HETATM   28  C18 UNK     1      31.558  -9.795  36.660  1.00  0.00     0.183 C 
BRANCH  28  29
HETATM   29  C20 UNK     1      32.598  -8.680  36.623  1.00  0.00     0.065 C 
BRANCH  29  30
HETATM   30  C23 UNK     1      32.108  -7.417  37.288  1.00  0.00    -0.056 A 
HETATM   31  C24 UNK     1      33.027  -6.543  37.848  1.00  0.00     0.007 A 
HETATM   32  C26 UNK     1      32.575  -5.375  38.463  1.00  0.00     0.001 A 
HETATM   33  C28 UNK     1      31.209  -5.096  38.510  1.00  0.00     0.000 A 
HETATM   34  C27 UNK     1      30.296  -5.985  37.943  1.00  0.00     0.001 A 
HETATM   35  C25 UNK     1      30.748  -7.153  37.328  1.00  0.00     0.007 A 
ENDBRANCH  29  30
ENDBRANCH  28  29
ENDBRANCH  27  28
ENDBRANCH  25  27
ENDBRANCH   8  25
TORSDOF 6
ENDMDL
