MODEL 1
REMARK VINA RESULT:      -9.6      0.000      0.000
REMARK  3 active torsions:
REMARK  status: ('A' for Active; 'I' for Inactive)
REMARK    1  A    between atoms: C9_15  and  N1_4 
REMARK       I    between atoms: C11_17  and  N2_5 
REMARK    2  A    between atoms: C3_9  and  N2_5 
REMARK    3  A    between atoms: C11_17  and  C8_14 
ROOT
HETATM    1  O1  UNK     1      16.722   7.913  32.553  1.00  0.00    -0.275 OA
HETATM    2  O3  UNK     1      15.552   9.681  33.408  1.00  0.00    -0.260 OA
HETATM    3  C1  UNK     1      19.084   7.655  33.120  1.00  0.00     0.004 A 
HETATM    4  C2  UNK     1      17.941   7.213  32.453  1.00  0.00     0.092 A 
HETATM    5  C3  UNK     1      19.114   5.333  31.521  1.00  0.00     0.037 A 
HETATM    6  C4  UNK     1      18.994   8.874  33.937  1.00  0.00    -0.043 A 
HETATM    7  C5  UNK     1      17.940   6.065  31.657  1.00  0.00     0.067 A 
HETATM    8  C6  UNK     1      20.256   6.903  32.970  1.00  0.00     0.017 A 
HETATM    9  C7  UNK     1      20.270   5.750  32.177  1.00  0.00     0.030 A 
HETATM   10  C10 UNK     1      17.823   9.519  34.013  1.00  0.00     0.090 A 
HETATM   11  C13 UNK     1      20.205   9.375  34.668  1.00  0.00     0.049 C 
HETATM   12  C15 UNK     1      16.608   9.065  33.315  1.00  0.00     0.288 A 
ENDROOT
BRANCH   5  13
HETATM   13  N2  UNK     1      19.134   4.183  30.732  1.00  0.00    -0.322 N 
HETATM   14  C11 UNK     1      18.468   2.995  31.005  1.00  0.00     0.276 C 
HETATM   15  O2  UNK     1      17.752   2.734  31.965  1.00  0.00    -0.266 OA
HETATM   16  H6  UNK     1      19.688   4.232  29.880  1.00  0.00     0.169 HD
BRANCH  14  17
HETATM   17  C8  UNK     1      18.641   1.939  29.972  1.00  0.00     0.146 A 
HETATM   18  C14 UNK     1      17.949   1.664  28.817  1.00  0.00     0.058 A 
HETATM   19  C12 UNK     1      18.599   0.538  28.277  1.00  0.00     0.114 A 
HETATM   20  N1  UNK     1      19.625   0.127  29.027  1.00  0.00    -0.281 N 
HETATM   21  N3  UNK     1      19.626   0.999  30.049  1.00  0.00    -0.167 NA
BRANCH  20  22
HETATM   22  C9  UNK     1      20.565  -0.948  28.892  1.00  0.00     0.146 C 
HETATM   23  C16 UNK     1      20.382  -2.009  29.963  1.00  0.00     0.028 C 
ENDBRANCH  20  22
ENDBRANCH  14  17
ENDBRANCH   5  13
TORSDOF 3
ENDMDL
MODEL 2
REMARK VINA RESULT:      -9.0      1.516      2.220
REMARK  3 active torsions:
REMARK  status: ('A' for Active; 'I' for Inactive)
REMARK    1  A    between atoms: C9_15  and  N1_4 
REMARK       I    between atoms: C11_17  and  N2_5 
REMARK    2  A    between atoms: C3_9  and  N2_5 
REMARK    3  A    between atoms: C11_17  and  C8_14 
ROOT
HETATM    1  O1  UNK     1      20.279   7.893  33.493  1.00  0.00    -0.275 OA
HETATM    2  O3  UNK     1      21.117   9.640  34.708  1.00  0.00    -0.260 OA
HETATM    3  C1  UNK     1      17.860   7.602  33.332  1.00  0.00     0.004 A 
HETATM    4  C2  UNK     1      19.155   7.189  33.017  1.00  0.00     0.092 A 
HETATM    5  C3  UNK     1      18.338   5.335  31.726  1.00  0.00     0.037 A 
HETATM    6  C4  UNK     1      17.685   8.794  34.173  1.00  0.00    -0.043 A 
HETATM    7  C5  UNK     1      19.409   6.069  32.224  1.00  0.00     0.067 A 
HETATM    8  C6  UNK     1      16.795   6.849  32.819  1.00  0.00     0.017 A 
HETATM    9  C7  UNK     1      17.034   5.724  32.022  1.00  0.00     0.030 A 
HETATM   10  C10 UNK     1      18.772   9.443  34.611  1.00  0.00     0.090 A 
HETATM   11  C13 UNK     1      16.304   9.264  34.527  1.00  0.00     0.049 C 
HETATM   12  C15 UNK     1      20.145   9.021  34.289  1.00  0.00     0.288 A 
ENDROOT
BRANCH   5  13
HETATM   13  N2  UNK     1      18.569   4.212  30.930  1.00  0.00    -0.322 N 
HETATM   14  C11 UNK     1      18.308   2.894  31.283  1.00  0.00     0.276 C 
HETATM   15  O2  UNK     1      17.835   2.474  32.334  1.00  0.00    -0.266 OA
HETATM   16  H6  UNK     1      18.962   4.388  30.008  1.00  0.00     0.169 HD
BRANCH  14  17
HETATM   17  C8  UNK     1      18.623   1.897  30.226  1.00  0.00     0.146 A 
HETATM   18  C14 UNK     1      18.135   1.726  28.953  1.00  0.00     0.058 A 
HETATM   19  C12 UNK     1      18.831   0.607  28.458  1.00  0.00     0.114 A 
HETATM   20  N1  UNK     1      19.695   0.104  29.343  1.00  0.00    -0.281 N 
HETATM   21  N3  UNK     1      19.546   0.911  30.407  1.00  0.00    -0.167 NA
BRANCH  20  22
HETATM   22  C9  UNK     1      20.607  -1.002  29.299  1.00  0.00     0.146 C 
HETATM   23  C16 UNK     1      20.343  -2.008  30.406  1.00  0.00     0.028 C 
ENDBRANCH  20  22
ENDBRANCH  14  17
ENDBRANCH   5  13
TORSDOF 3
ENDMDL
MODEL 3
REMARK VINA RESULT:      -8.8      9.237     14.311
REMARK  3 active torsions:
REMARK  status: ('A' for Active; 'I' for Inactive)
REMARK    1  A    between atoms: C9_15  and  N1_4 
REMARK       I    between atoms: C11_17  and  N2_5 
REMARK    2  A    between atoms: C3_9  and  N2_5 
REMARK    3  A    between atoms: C11_17  and  C8_14 
ROOT
HETATM    1  O1  UNK     1      21.193  -8.887  35.189  1.00  0.00    -0.275 OA
HETATM    2  O3  UNK     1      22.258 -10.799  34.529  1.00  0.00    -0.260 OA
HETATM    3  C1  UNK     1      19.775  -8.934  37.177  1.00  0.00     0.004 A 
HETATM    4  C2  UNK     1      20.336  -8.242  36.103  1.00  0.00     0.092 A 
HETATM    5  C3  UNK     1      19.245  -6.199  36.744  1.00  0.00     0.037 A 
HETATM    6  C4  UNK     1      20.096 -10.359  37.342  1.00  0.00    -0.043 A 
HETATM    7  C5  UNK     1      20.083  -6.888  35.875  1.00  0.00     0.067 A 
HETATM    8  C6  UNK     1      18.933  -8.221  38.042  1.00  0.00     0.017 A 
HETATM    9  C7  UNK     1      18.671  -6.863  37.826  1.00  0.00     0.030 A 
HETATM   10  C10 UNK     1      20.913 -10.945  36.457  1.00  0.00     0.090 A 
HETATM   11  C13 UNK     1      19.510 -11.130  38.488  1.00  0.00     0.049 C 
HETATM   12  C15 UNK     1      21.513 -10.229  35.319  1.00  0.00     0.288 A 
ENDROOT
BRANCH   5  13
HETATM   13  N2  UNK     1      18.979  -4.845  36.535  1.00  0.00    -0.322 N 
HETATM   14  C11 UNK     1      19.887  -3.804  36.681  1.00  0.00     0.276 C 
HETATM   15  O2  UNK     1      21.066  -3.872  37.012  1.00  0.00    -0.266 OA
HETATM   16  H6  UNK     1      18.032  -4.612  36.246  1.00  0.00     0.169 HD
BRANCH  14  17
HETATM   17  C8  UNK     1      19.341  -2.459  36.360  1.00  0.00     0.146 A 
HETATM   18  C14 UNK     1      19.403  -1.691  35.223  1.00  0.00     0.058 A 
HETATM   19  C12 UNK     1      18.691  -0.521  35.550  1.00  0.00     0.114 A 
HETATM   20  N1  UNK     1      18.212  -0.540  36.796  1.00  0.00    -0.281 N 
HETATM   21  N3  UNK     1      18.622  -1.731  37.263  1.00  0.00    -0.167 NA
BRANCH  20  22
HETATM   22  C9  UNK     1      17.443   0.397  37.562  1.00  0.00     0.146 C 
HETATM   23  C16 UNK     1      16.190   0.847  36.830  1.00  0.00     0.028 C 
ENDBRANCH  20  22
ENDBRANCH  14  17
ENDBRANCH   5  13
TORSDOF 3
ENDMDL
MODEL 4
REMARK VINA RESULT:      -8.7      9.059     14.113
REMARK  3 active torsions:
REMARK  status: ('A' for Active; 'I' for Inactive)
REMARK    1  A    between atoms: C9_15  and  N1_4 
REMARK       I    between atoms: C11_17  and  N2_5 
REMARK    2  A    between atoms: C3_9  and  N2_5 
REMARK    3  A    between atoms: C11_17  and  C8_14 
ROOT
HETATM    1  O1  UNK     1      19.061  -9.178  38.263  1.00  0.00    -0.275 OA
HETATM    2  O3  UNK     1      19.112 -11.292  39.131  1.00  0.00    -0.260 OA
HETATM    3  C1  UNK     1      20.307  -8.695  36.219  1.00  0.00     0.004 A 
HETATM    4  C2  UNK     1      19.473  -8.280  37.258  1.00  0.00     0.092 A 
HETATM    5  C3  UNK     1      19.379  -6.038  36.397  1.00  0.00     0.037 A 
HETATM    6  C4  UNK     1      20.752 -10.095  36.189  1.00  0.00    -0.043 A 
HETATM    7  C5  UNK     1      19.005  -6.968  37.360  1.00  0.00     0.067 A 
HETATM    8  C6  UNK     1      20.672  -7.742  35.258  1.00  0.00     0.017 A 
HETATM    9  C7  UNK     1      20.210  -6.423  35.347  1.00  0.00     0.030 A 
HETATM   10  C10 UNK     1      20.344 -10.925  37.158  1.00  0.00     0.090 A 
HETATM   11  C13 UNK     1      21.648 -10.572  35.084  1.00  0.00     0.049 C 
HETATM   12  C15 UNK     1      19.465 -10.504  38.261  1.00  0.00     0.288 A 
ENDROOT
BRANCH   5  13
HETATM   13  N2  UNK     1      18.922  -4.723  36.480  1.00  0.00    -0.322 N 
HETATM   14  C11 UNK     1      19.716  -3.591  36.617  1.00  0.00     0.276 C 
HETATM   15  O2  UNK     1      20.939  -3.530  36.688  1.00  0.00    -0.266 OA
HETATM   16  H6  UNK     1      17.914  -4.593  36.431  1.00  0.00     0.169 HD
BRANCH  14  17
HETATM   17  C8  UNK     1      18.963  -2.309  36.648  1.00  0.00     0.146 A 
HETATM   18  C14 UNK     1      18.166  -1.736  37.609  1.00  0.00     0.058 A 
HETATM   19  C12 UNK     1      17.743  -0.521  37.038  1.00  0.00     0.114 A 
HETATM   20  N1  UNK     1      18.232  -0.332  35.809  1.00  0.00    -0.281 N 
HETATM   21  N3  UNK     1      18.971  -1.435  35.601  1.00  0.00    -0.167 NA
BRANCH  20  22
HETATM   22  C9  UNK     1      18.089   0.727  34.853  1.00  0.00     0.146 C 
HETATM   23  C16 UNK     1      18.566   2.063  35.398  1.00  0.00     0.028 C 
ENDBRANCH  20  22
ENDBRANCH  14  17
ENDBRANCH   5  13
TORSDOF 3
ENDMDL
MODEL 5
REMARK VINA RESULT:      -8.6      2.599      8.350
REMARK  3 active torsions:
REMARK  status: ('A' for Active; 'I' for Inactive)
REMARK    1  A    between atoms: C9_15  and  N1_4 
REMARK       I    between atoms: C11_17  and  N2_5 
REMARK    2  A    between atoms: C3_9  and  N2_5 
REMARK    3  A    between atoms: C11_17  and  C8_14 
ROOT
HETATM    1  O1  UNK     1      19.260  -0.198  32.742  1.00  0.00    -0.275 OA
HETATM    2  O3  UNK     1      19.950  -2.337  33.163  1.00  0.00    -0.260 OA
HETATM    3  C1  UNK     1      19.313   0.645  30.451  1.00  0.00     0.004 A 
HETATM    4  C2  UNK     1      19.039   0.832  31.806  1.00  0.00     0.092 A 
HETATM    5  C3  UNK     1      18.301   3.088  31.431  1.00  0.00     0.037 A 
HETATM    6  C4  UNK     1      19.838  -0.655  30.011  1.00  0.00    -0.043 A 
HETATM    7  C5  UNK     1      18.538   2.035  32.308  1.00  0.00     0.067 A 
HETATM    8  C6  UNK     1      19.066   1.719  29.585  1.00  0.00     0.017 A 
HETATM    9  C7  UNK     1      18.563   2.931  30.072  1.00  0.00     0.030 A 
HETATM   10  C10 UNK     1      20.038  -1.615  30.923  1.00  0.00     0.090 A 
HETATM   11  C13 UNK     1      20.140  -0.887  28.559  1.00  0.00     0.049 C 
HETATM   12  C15 UNK     1      19.755  -1.435  32.357  1.00  0.00     0.288 A 
ENDROOT
BRANCH   5  13
HETATM   13  N2  UNK     1      17.799   4.298  31.911  1.00  0.00    -0.322 N 
HETATM   14  C11 UNK     1      18.530   5.463  32.106  1.00  0.00     0.276 C 
HETATM   15  O2  UNK     1      19.725   5.649  31.900  1.00  0.00    -0.266 OA
HETATM   16  H6  UNK     1      16.806   4.318  32.130  1.00  0.00     0.169 HD
BRANCH  14  17
HETATM   17  C8  UNK     1      17.732   6.618  32.599  1.00  0.00     0.146 A 
HETATM   18  C14 UNK     1      18.094   7.886  32.983  1.00  0.00     0.058 A 
HETATM   19  C12 UNK     1      16.882   8.503  33.346  1.00  0.00     0.114 A 
HETATM   20  N1  UNK     1      15.829   7.693  33.205  1.00  0.00    -0.281 N 
HETATM   21  N3  UNK     1      16.378   6.555  32.748  1.00  0.00    -0.167 NA
BRANCH  20  22
HETATM   22  C9  UNK     1      14.425   7.866  33.441  1.00  0.00     0.146 C 
HETATM   23  C16 UNK     1      13.578   7.247  32.343  1.00  0.00     0.028 C 
ENDBRANCH  20  22
ENDBRANCH  14  17
ENDBRANCH   5  13
TORSDOF 3
ENDMDL
MODEL 6
REMARK VINA RESULT:      -8.5      2.534      8.440
REMARK  3 active torsions:
REMARK  status: ('A' for Active; 'I' for Inactive)
REMARK    1  A    between atoms: C9_15  and  N1_4 
REMARK       I    between atoms: C11_17  and  N2_5 
REMARK    2  A    between atoms: C3_9  and  N2_5 
REMARK    3  A    between atoms: C11_17  and  C8_14 
ROOT
HETATM    1  O1  UNK     1      19.254  -0.085  32.813  1.00  0.00    -0.275 OA
HETATM    2  O3  UNK     1      20.047  -2.165  33.333  1.00  0.00    -0.260 OA
HETATM    3  C1  UNK     1      19.370   0.694  30.501  1.00  0.00     0.004 A 
HETATM    4  C2  UNK     1      19.020   0.903  31.836  1.00  0.00     0.092 A 
HETATM    5  C3  UNK     1      18.170   3.099  31.354  1.00  0.00     0.037 A 
HETATM    6  C4  UNK     1      19.991  -0.584  30.128  1.00  0.00    -0.043 A 
HETATM    7  C5  UNK     1      18.425   2.088  32.274  1.00  0.00     0.067 A 
HETATM    8  C6  UNK     1      19.103   1.725  29.591  1.00  0.00     0.017 A 
HETATM    9  C7  UNK     1      18.507   2.918  30.015  1.00  0.00     0.030 A 
HETATM   10  C10 UNK     1      20.202  -1.504  31.078  1.00  0.00     0.090 A 
HETATM   11  C13 UNK     1      20.378  -0.840  28.700  1.00  0.00     0.049 C 
HETATM   12  C15 UNK     1      19.839  -1.300  32.491  1.00  0.00     0.288 A 
ENDROOT
BRANCH   5  13
HETATM   13  N2  UNK     1      17.575   4.290  31.771  1.00  0.00    -0.322 N 
HETATM   14  C11 UNK     1      18.246   5.438  32.174  1.00  0.00     0.276 C 
HETATM   15  O2  UNK     1      19.456   5.622  32.238  1.00  0.00    -0.266 OA
HETATM   16  H6  UNK     1      16.558   4.309  31.772  1.00  0.00     0.169 HD
BRANCH  14  17
HETATM   17  C8  UNK     1      17.359   6.576  32.536  1.00  0.00     0.146 A 
HETATM   18  C14 UNK     1      16.008   6.771  32.381  1.00  0.00     0.058 A 
HETATM   19  C12 UNK     1      15.772   8.048  32.925  1.00  0.00     0.114 A 
HETATM   20  N1  UNK     1      16.884   8.622  33.392  1.00  0.00    -0.281 N 
HETATM   21  N3  UNK     1      17.831   7.702  33.142  1.00  0.00    -0.167 NA
BRANCH  20  22
HETATM   22  C9  UNK     1      17.142   9.885  34.020  1.00  0.00     0.146 C 
HETATM   23  C16 UNK     1      18.606  10.282  33.935  1.00  0.00     0.028 C 
ENDBRANCH  20  22
ENDBRANCH  14  17
ENDBRANCH   5  13
TORSDOF 3
ENDMDL
MODEL 7
REMARK VINA RESULT:      -8.4      8.018     12.907
REMARK  3 active torsions:
REMARK  status: ('A' for Active; 'I' for Inactive)
REMARK    1  A    between atoms: C9_15  and  N1_4 
REMARK       I    between atoms: C11_17  and  N2_5 
REMARK    2  A    between atoms: C3_9  and  N2_5 
REMARK    3  A    between atoms: C11_17  and  C8_14 
ROOT
HETATM    1  O1  UNK     1      20.827  -7.987  34.973  1.00  0.00    -0.275 OA
HETATM    2  O3  UNK     1      21.569 -10.068  34.383  1.00  0.00    -0.260 OA
HETATM    3  C1  UNK     1      21.447  -7.071  37.151  1.00  0.00     0.004 A 
HETATM    4  C2  UNK     1      20.784  -6.952  35.929  1.00  0.00     0.092 A 
HETATM    5  C3  UNK     1      19.972  -4.761  36.489  1.00  0.00     0.037 A 
HETATM    6  C4  UNK     1      22.197  -8.304  37.428  1.00  0.00    -0.043 A 
HETATM    7  C5  UNK     1      20.049  -5.815  35.586  1.00  0.00     0.067 A 
HETATM    8  C6  UNK     1      21.356  -5.997  38.046  1.00  0.00     0.017 A 
HETATM    9  C7  UNK     1      20.624  -4.851  37.717  1.00  0.00     0.030 A 
HETATM   10  C10 UNK     1      22.220  -9.271  36.501  1.00  0.00     0.090 A 
HETATM   11  C13 UNK     1      22.921  -8.461  38.733  1.00  0.00     0.049 C 
HETATM   12  C15 UNK     1      21.526  -9.162  35.207  1.00  0.00     0.288 A 
ENDROOT
BRANCH   5  13
HETATM   13  N2  UNK     1      19.244  -3.615  36.166  1.00  0.00    -0.322 N 
HETATM   14  C11 UNK     1      19.769  -2.426  35.678  1.00  0.00     0.276 C 
HETATM   15  O2  UNK     1      20.943  -2.160  35.442  1.00  0.00    -0.266 OA
HETATM   16  H6  UNK     1      18.237  -3.670  36.302  1.00  0.00     0.169 HD
BRANCH  14  17
HETATM   17  C8  UNK     1      18.757  -1.376  35.389  1.00  0.00     0.146 A 
HETATM   18  C14 UNK     1      17.438  -1.248  35.753  1.00  0.00     0.058 A 
HETATM   19  C12 UNK     1      17.026  -0.038  35.166  1.00  0.00     0.114 A 
HETATM   20  N1  UNK     1      18.004   0.561  34.481  1.00  0.00    -0.281 N 
HETATM   21  N3  UNK     1      19.043  -0.276  34.636  1.00  0.00    -0.167 NA
BRANCH  20  22
HETATM   22  C9  UNK     1      18.066   1.782  33.730  1.00  0.00     0.146 C 
HETATM   23  C16 UNK     1      18.453   2.969  34.595  1.00  0.00     0.028 C 
ENDBRANCH  20  22
ENDBRANCH  14  17
ENDBRANCH   5  13
TORSDOF 3
ENDMDL
MODEL 8
REMARK VINA RESULT:      -8.3      5.488      7.989
REMARK  3 active torsions:
REMARK  status: ('A' for Active; 'I' for Inactive)
REMARK    1  A    between atoms: C9_15  and  N1_4 
REMARK       I    between atoms: C11_17  and  N2_5 
REMARK    2  A    between atoms: C3_9  and  N2_5 
REMARK    3  A    between atoms: C11_17  and  C8_14 
ROOT
HETATM    1  O1  UNK     1      18.882   0.302  30.616  1.00  0.00    -0.275 OA
HETATM    2  O3  UNK     1      18.799   1.359  28.590  1.00  0.00    -0.260 OA
HETATM    3  C1  UNK     1      18.461   1.584  32.651  1.00  0.00     0.004 A 
HETATM    4  C2  UNK     1      18.766   0.379  32.018  1.00  0.00     0.092 A 
HETATM    5  C3  UNK     1      18.868  -0.791  34.115  1.00  0.00     0.037 A 
HETATM    6  C4  UNK     1      18.261   2.783  31.825  1.00  0.00    -0.043 A 
HETATM    7  C5  UNK     1      18.971  -0.806  32.729  1.00  0.00     0.067 A 
HETATM    8  C6  UNK     1      18.362   1.577  34.049  1.00  0.00     0.017 A 
HETATM    9  C7  UNK     1      18.564   0.398  34.775  1.00  0.00     0.030 A 
HETATM   10  C10 UNK     1      18.378   2.680  30.494  1.00  0.00     0.090 A 
HETATM   11  C13 UNK     1      17.931   4.094  32.476  1.00  0.00     0.049 C 
HETATM   12  C15 UNK     1      18.699   1.416  29.811  1.00  0.00     0.288 A 
ENDROOT
BRANCH   5  13
HETATM   13  N2  UNK     1      19.068  -1.963  34.844  1.00  0.00    -0.322 N 
HETATM   14  C11 UNK     1      20.283  -2.418  35.341  1.00  0.00     0.276 C 
HETATM   15  O2  UNK     1      21.386  -1.890  35.238  1.00  0.00    -0.266 OA
HETATM   16  H6  UNK     1      18.240  -2.527  35.026  1.00  0.00     0.169 HD
BRANCH  14  17
HETATM   17  C8  UNK     1      20.200  -3.686  36.112  1.00  0.00     0.146 A 
HETATM   18  C14 UNK     1      20.365  -3.960  37.448  1.00  0.00     0.058 A 
HETATM   19  C12 UNK     1      20.158  -5.349  37.551  1.00  0.00     0.114 A 
HETATM   20  N1  UNK     1      19.882  -5.917  36.374  1.00  0.00    -0.281 N 
HETATM   21  N3  UNK     1      19.913  -4.880  35.520  1.00  0.00    -0.167 NA
BRANCH  20  22
HETATM   22  C9  UNK     1      19.602  -7.268  35.983  1.00  0.00     0.146 C 
HETATM   23  C16 UNK     1      18.161  -7.450  35.536  1.00  0.00     0.028 C 
ENDBRANCH  20  22
ENDBRANCH  14  17
ENDBRANCH   5  13
TORSDOF 3
ENDMDL
MODEL 9
REMARK VINA RESULT:      -8.3      8.906     13.999
REMARK  3 active torsions:
REMARK  status: ('A' for Active; 'I' for Inactive)
REMARK    1  A    between atoms: C9_15  and  N1_4 
REMARK       I    between atoms: C11_17  and  N2_5 
REMARK    2  A    between atoms: C3_9  and  N2_5 
REMARK    3  A    between atoms: C11_17  and  C8_14 
ROOT
HETATM    1  O1  UNK     1      21.397  -9.046  35.284  1.00  0.00    -0.275 OA
HETATM    2  O3  UNK     1      22.494 -11.014  34.895  1.00  0.00    -0.260 OA
HETATM    3  C1  UNK     1      19.849  -8.893  37.167  1.00  0.00     0.004 A 
HETATM    4  C2  UNK     1      20.484  -8.313  36.068  1.00  0.00     0.092 A 
HETATM    5  C3  UNK     1      19.363  -6.217  36.423  1.00  0.00     0.037 A 
HETATM    6  C4  UNK     1      20.151 -10.293  37.497  1.00  0.00    -0.043 A 
HETATM    7  C5  UNK     1      20.254  -6.989  35.687  1.00  0.00     0.067 A 
HETATM    8  C6  UNK     1      18.955  -8.097  37.896  1.00  0.00     0.017 A 
HETATM    9  C7  UNK     1      18.715  -6.769  37.526  1.00  0.00     0.030 A 
HETATM   10  C10 UNK     1      21.023 -10.965  36.734  1.00  0.00     0.090 A 
HETATM   11  C13 UNK     1      19.486 -10.944  38.674  1.00  0.00     0.049 C 
HETATM   12  C15 UNK     1      21.701 -10.368  35.571  1.00  0.00     0.288 A 
ENDROOT
BRANCH   5  13
HETATM   13  N2  UNK     1      19.119  -4.892  36.060  1.00  0.00    -0.322 N 
HETATM   14  C11 UNK     1      19.957  -3.812  36.305  1.00  0.00     0.276 C 
HETATM   15  O2  UNK     1      21.045  -3.814  36.871  1.00  0.00    -0.266 OA
HETATM   16  H6  UNK     1      18.246  -4.715  35.568  1.00  0.00     0.169 HD
BRANCH  14  17
HETATM   17  C8  UNK     1      19.461  -2.513  35.776  1.00  0.00     0.146 A 
HETATM   18  C14 UNK     1      18.972  -1.394  36.406  1.00  0.00     0.058 A 
HETATM   19  C12 UNK     1      18.670  -0.505  35.357  1.00  0.00     0.114 A 
HETATM   20  N1  UNK     1      18.945  -1.015  34.154  1.00  0.00    -0.281 N 
HETATM   21  N3  UNK     1      19.425  -2.236  34.442  1.00  0.00    -0.167 NA
BRANCH  20  22
HETATM   22  C9  UNK     1      18.813  -0.501  32.821  1.00  0.00     0.146 C 
HETATM   23  C16 UNK     1      19.596  -1.321  31.809  1.00  0.00     0.028 C 
ENDBRANCH  20  22
ENDBRANCH  14  17
ENDBRANCH   5  13
TORSDOF 3
ENDMDL
MODEL 10
REMARK VINA RESULT:      -8.2      2.857      8.483
REMARK  3 active torsions:
REMARK  status: ('A' for Active; 'I' for Inactive)
REMARK    1  A    between atoms: C9_15  and  N1_4 
REMARK       I    between atoms: C11_17  and  N2_5 
REMARK    2  A    between atoms: C3_9  and  N2_5 
REMARK    3  A    between atoms: C11_17  and  C8_14 
ROOT
HETATM    1  O1  UNK     1      19.660   0.936  29.493  1.00  0.00    -0.275 OA
HETATM    2  O3  UNK     1      20.665  -0.659  28.199  1.00  0.00    -0.260 OA
HETATM    3  C1  UNK     1      19.141   0.430  31.825  1.00  0.00     0.004 A 
HETATM    4  C2  UNK     1      19.134   1.313  30.744  1.00  0.00     0.092 A 
HETATM    5  C3  UNK     1      18.078   3.032  32.050  1.00  0.00     0.037 A 
HETATM    6  C4  UNK     1      19.712  -0.910  31.635  1.00  0.00    -0.043 A 
HETATM    7  C5  UNK     1      18.611   2.605  30.839  1.00  0.00     0.067 A 
HETATM    8  C6  UNK     1      18.599   0.882  33.036  1.00  0.00     0.017 A 
HETATM    9  C7  UNK     1      18.072   2.173  33.146  1.00  0.00     0.030 A 
HETATM   10  C10 UNK     1      20.204  -1.241  30.434  1.00  0.00     0.090 A 
HETATM   11  C13 UNK     1      19.735  -1.882  32.778  1.00  0.00     0.049 C 
HETATM   12  C15 UNK     1      20.205  -0.322  29.284  1.00  0.00     0.288 A 
ENDROOT
BRANCH   5  13
HETATM   13  N2  UNK     1      17.551   4.319  32.167  1.00  0.00    -0.322 N 
HETATM   14  C11 UNK     1      18.136   5.381  32.846  1.00  0.00     0.276 C 
HETATM   15  O2  UNK     1      19.199   5.392  33.456  1.00  0.00    -0.266 OA
HETATM   16  H6  UNK     1      16.659   4.483  31.705  1.00  0.00     0.169 HD
BRANCH  14  17
HETATM   17  C8  UNK     1      17.368   6.653  32.781  1.00  0.00     0.146 A 
HETATM   18  C14 UNK     1      16.854   7.361  31.722  1.00  0.00     0.058 A 
HETATM   19  C12 UNK     1      16.235   8.478  32.313  1.00  0.00     0.114 A 
HETATM   20  N1  UNK     1      16.345   8.484  33.644  1.00  0.00    -0.281 N 
HETATM   21  N3  UNK     1      17.037   7.361  33.898  1.00  0.00    -0.167 NA
BRANCH  20  22
HETATM   22  C9  UNK     1      15.888   9.389  34.658  1.00  0.00     0.146 C 
HETATM   23  C16 UNK     1      14.390   9.632  34.580  1.00  0.00     0.028 C 
ENDBRANCH  20  22
ENDBRANCH  14  17
ENDBRANCH   5  13
TORSDOF 3
ENDMDL
