MODEL 1
REMARK VINA RESULT:      -7.5      0.000      0.000
REMARK  3 active torsions:
REMARK  status: ('A' for Active; 'I' for Inactive)
REMARK    1  A    between atoms: C7_12  and  N1_4 
REMARK    2  A    between atoms: C1_6  and  C3_8 
REMARK    3  A    between atoms: C2_7  and  C4_9 
ROOT
HETATM    1  N2  UNK     1      15.869   4.281   9.726  1.00  0.00    -0.191 NA
HETATM    2  C3  UNK     1      12.800   4.915   8.295  1.00  0.00     0.035 C 
HETATM    3  C4  UNK     1      13.775   5.612   8.942  1.00  0.00     0.055 C 
HETATM    4  C15 UNK     1      14.930   4.865   9.372  1.00  0.00     0.100 C 
ENDROOT
BRANCH   3   5
HETATM    5  C2  UNK     1      13.719   7.035   9.235  1.00  0.00    -0.015 A 
HETATM    6  C8  UNK     1      14.184   7.959   8.299  1.00  0.00     0.014 A 
HETATM    7  C12 UNK     1      14.132   9.324   8.581  1.00  0.00     0.024 A 
HETATM    8  C14 UNK     1      13.614   9.766   9.799  1.00  0.00     0.034 A 
HETATM    9  C13 UNK     1      13.149   8.842  10.735  1.00  0.00     0.024 A 
HETATM   10 Cl1  UNK     1      13.549  11.449  10.147  1.00  0.00    -0.084 Cl
HETATM   11  C9  UNK     1      13.202   7.477  10.453  1.00  0.00     0.014 A 
ENDBRANCH   3   5
BRANCH   2  12
HETATM   12  C1  UNK     1      11.600   5.509   7.794  1.00  0.00    -0.032 A 
HETATM   13  C5  UNK     1      10.478   5.683   8.626  1.00  0.00     0.047 A 
HETATM   14  C7  UNK     1       9.307   6.262   8.138  1.00  0.00     0.103 A 
HETATM   15  C11 UNK     1       9.237   6.677   6.808  1.00  0.00     0.036 A 
HETATM   16  C10 UNK     1      10.338   6.513   5.967  1.00  0.00     0.003 A 
HETATM   17  C6  UNK     1      11.509   5.934   6.456  1.00  0.00     0.011 A 
BRANCH  14  18
HETATM   18  N1  UNK     1       8.187   6.430   8.993  1.00  0.00    -0.116 N 
HETATM   19  O1  UNK     1       8.267   6.043  10.184  1.00  0.00    -0.532 OA
HETATM   20  O2  UNK     1       7.147   6.963   8.536  1.00  0.00    -0.532 OA
ENDBRANCH  14  18
ENDBRANCH   2  12
TORSDOF 3
ENDMDL
MODEL 2
REMARK VINA RESULT:      -6.8     30.750     32.117
REMARK  3 active torsions:
REMARK  status: ('A' for Active; 'I' for Inactive)
REMARK    1  A    between atoms: C7_12  and  N1_4 
REMARK    2  A    between atoms: C1_6  and  C3_8 
REMARK    3  A    between atoms: C2_7  and  C4_9 
ROOT
HETATM    1  N2  UNK     1      30.250  -2.332  31.300  1.00  0.00    -0.191 NA
HETATM    2  C3  UNK     1      29.241  -5.377  30.045  1.00  0.00     0.035 C 
HETATM    3  C4  UNK     1      29.665  -4.866  31.234  1.00  0.00     0.055 C 
HETATM    4  C15 UNK     1      29.987  -3.461  31.260  1.00  0.00     0.100 C 
ENDROOT
BRANCH   3   5
HETATM    5  C2  UNK     1      29.827  -5.638  32.456  1.00  0.00    -0.015 A 
HETATM    6  C8  UNK     1      31.089  -6.103  32.825  1.00  0.00     0.014 A 
HETATM    7  C12 UNK     1      31.244  -6.844  33.997  1.00  0.00     0.024 A 
HETATM    8  C14 UNK     1      30.138  -7.121  34.799  1.00  0.00     0.034 A 
HETATM    9  C13 UNK     1      28.875  -6.656  34.430  1.00  0.00     0.024 A 
HETATM   10 Cl1  UNK     1      30.329  -8.035  36.244  1.00  0.00    -0.084 Cl
HETATM   11  C9  UNK     1      28.720  -5.914  33.259  1.00  0.00     0.014 A 
ENDBRANCH   3   5
BRANCH   2  12
HETATM   12  C1  UNK     1      28.872  -6.745  29.857  1.00  0.00    -0.032 A 
HETATM   13  C5  UNK     1      29.746  -7.649  29.225  1.00  0.00     0.047 A 
HETATM   14  C7  UNK     1      29.386  -8.985  29.041  1.00  0.00     0.103 A 
HETATM   15  C11 UNK     1      28.143  -9.438  29.485  1.00  0.00     0.036 A 
HETATM   16  C10 UNK     1      27.262  -8.558  30.112  1.00  0.00     0.003 A 
HETATM   17  C6  UNK     1      27.624  -7.223  30.297  1.00  0.00     0.011 A 
BRANCH  14  18
HETATM   18  N1  UNK     1      30.282  -9.881  28.403  1.00  0.00    -0.116 N 
HETATM   19  O1  UNK     1      30.918  -9.491  27.394  1.00  0.00    -0.532 OA
HETATM   20  O2  UNK     1      30.416 -11.040  28.866  1.00  0.00    -0.532 OA
ENDBRANCH  14  18
ENDBRANCH   2  12
TORSDOF 3
ENDMDL
MODEL 3
REMARK VINA RESULT:      -6.8     23.119     25.036
REMARK  3 active torsions:
REMARK  status: ('A' for Active; 'I' for Inactive)
REMARK    1  A    between atoms: C7_12  and  N1_4 
REMARK    2  A    between atoms: C1_6  and  C3_8 
REMARK    3  A    between atoms: C2_7  and  C4_9 
ROOT
HETATM    1  N2  UNK     1      18.018   2.001  28.176  1.00  0.00    -0.191 NA
HETATM    2  C3  UNK     1      18.963   4.681  30.123  1.00  0.00     0.035 C 
HETATM    3  C4  UNK     1      18.601   3.380  30.303  1.00  0.00     0.055 C 
HETATM    4  C15 UNK     1      18.280   2.625  29.119  1.00  0.00     0.100 C 
ENDROOT
BRANCH   3   5
HETATM    5  C2  UNK     1      18.505   2.720  31.596  1.00  0.00    -0.015 A 
HETATM    6  C8  UNK     1      18.810   1.363  31.710  1.00  0.00     0.014 A 
HETATM    7  C12 UNK     1      18.716   0.730  32.949  1.00  0.00     0.024 A 
HETATM    8  C14 UNK     1      18.317   1.451  34.074  1.00  0.00     0.034 A 
HETATM    9  C13 UNK     1      18.011   2.808  33.959  1.00  0.00     0.024 A 
HETATM   10 Cl1  UNK     1      18.200   0.670  35.602  1.00  0.00    -0.084 Cl
HETATM   11  C9  UNK     1      18.105   3.442  32.720  1.00  0.00     0.014 A 
ENDBRANCH   3   5
BRANCH   2  12
HETATM   12  C1  UNK     1      19.323   5.559  31.192  1.00  0.00    -0.032 A 
HETATM   13  C5  UNK     1      18.375   6.429  31.763  1.00  0.00     0.047 A 
HETATM   14  C7  UNK     1      18.727   7.287  32.806  1.00  0.00     0.103 A 
HETATM   15  C11 UNK     1      20.033   7.290  33.295  1.00  0.00     0.036 A 
HETATM   16  C10 UNK     1      20.987   6.436  32.742  1.00  0.00     0.003 A 
HETATM   17  C6  UNK     1      20.635   5.578  31.699  1.00  0.00     0.011 A 
BRANCH  14  18
HETATM   18  N1  UNK     1      17.756   8.155  33.370  1.00  0.00    -0.116 N 
HETATM   19  O1  UNK     1      18.138   9.202  33.946  1.00  0.00    -0.532 OA
HETATM   20  O2  UNK     1      16.542   7.853  33.276  1.00  0.00    -0.532 OA
ENDBRANCH  14  18
ENDBRANCH   2  12
TORSDOF 3
ENDMDL
MODEL 4
REMARK VINA RESULT:      -6.6     31.310     33.243
REMARK  3 active torsions:
REMARK  status: ('A' for Active; 'I' for Inactive)
REMARK    1  A    between atoms: C7_12  and  N1_4 
REMARK    2  A    between atoms: C1_6  and  C3_8 
REMARK    3  A    between atoms: C2_7  and  C4_9 
ROOT
HETATM    1  N2  UNK     1      19.177 -11.715  39.119  1.00  0.00    -0.191 NA
HETATM    2  C3  UNK     1      19.086  -8.879  37.166  1.00  0.00     0.035 C 
HETATM    3  C4  UNK     1      19.985  -9.535  37.953  1.00  0.00     0.055 C 
HETATM    4  C15 UNK     1      19.528 -10.741  38.594  1.00  0.00     0.100 C 
ENDROOT
BRANCH   3   5
HETATM    5  C2  UNK     1      21.349  -9.093  38.195  1.00  0.00    -0.015 A 
HETATM    6  C8  UNK     1      21.669  -8.438  39.385  1.00  0.00     0.014 A 
HETATM    7  C12 UNK     1      22.977  -8.013  39.617  1.00  0.00     0.024 A 
HETATM    8  C14 UNK     1      23.965  -8.243  38.660  1.00  0.00     0.034 A 
HETATM    9  C13 UNK     1      23.646  -8.897  37.471  1.00  0.00     0.024 A 
HETATM   10 Cl1  UNK     1      25.579  -7.719  38.947  1.00  0.00    -0.084 Cl
HETATM   11  C9  UNK     1      22.337  -9.322  37.238  1.00  0.00     0.014 A 
ENDBRANCH   3   5
BRANCH   2  12
HETATM   12  C1  UNK     1      19.385  -7.678  36.452  1.00  0.00    -0.032 A 
HETATM   13  C5  UNK     1      19.980  -7.725  35.177  1.00  0.00     0.047 A 
HETATM   14  C7  UNK     1      20.274  -6.552  34.479  1.00  0.00     0.103 A 
HETATM   15  C11 UNK     1      19.976  -5.312  35.046  1.00  0.00     0.036 A 
HETATM   16  C10 UNK     1      19.387  -5.244  36.308  1.00  0.00     0.003 A 
HETATM   17  C6  UNK     1      19.095  -6.417  37.005  1.00  0.00     0.011 A 
BRANCH  14  18
HETATM   18  N1  UNK     1      20.872  -6.620  33.194  1.00  0.00    -0.116 N 
HETATM   19  O1  UNK     1      21.019  -7.741  32.650  1.00  0.00    -0.532 OA
HETATM   20  O2  UNK     1      21.238  -5.557  32.637  1.00  0.00    -0.532 OA
ENDBRANCH  14  18
ENDBRANCH   2  12
TORSDOF 3
ENDMDL
MODEL 5
REMARK VINA RESULT:      -6.6     35.279     37.108
REMARK  3 active torsions:
REMARK  status: ('A' for Active; 'I' for Inactive)
REMARK    1  A    between atoms: C7_12  and  N1_4 
REMARK    2  A    between atoms: C1_6  and  C3_8 
REMARK    3  A    between atoms: C2_7  and  C4_9 
ROOT
HETATM    1  N2  UNK     1      29.038  -3.632  39.822  1.00  0.00    -0.191 NA
HETATM    2  C3  UNK     1      31.898  -4.768  38.274  1.00  0.00     0.035 C 
HETATM    3  C4  UNK     1      30.575  -5.089  38.310  1.00  0.00     0.055 C 
HETATM    4  C15 UNK     1      29.733  -4.276  39.150  1.00  0.00     0.100 C 
ENDROOT
BRANCH   3   5
HETATM    5  C2  UNK     1      29.971  -6.192  37.580  1.00  0.00    -0.015 A 
HETATM    6  C8  UNK     1      29.685  -6.055  36.222  1.00  0.00     0.014 A 
HETATM    7  C12 UNK     1      29.104  -7.113  35.521  1.00  0.00     0.024 A 
HETATM    8  C14 UNK     1      28.808  -8.307  36.179  1.00  0.00     0.034 A 
HETATM    9  C13 UNK     1      29.094  -8.443  37.538  1.00  0.00     0.024 A 
HETATM   10 Cl1  UNK     1      28.092  -9.611  35.316  1.00  0.00    -0.084 Cl
HETATM   11  C9  UNK     1      29.675  -7.386  38.238  1.00  0.00     0.014 A 
ENDBRANCH   3   5
BRANCH   2  12
HETATM   12  C1  UNK     1      32.862  -5.466  37.482  1.00  0.00    -0.032 A 
HETATM   13  C5  UNK     1      33.358  -4.908  36.289  1.00  0.00     0.047 A 
HETATM   14  C7  UNK     1      34.298  -5.590  35.515  1.00  0.00     0.103 A 
HETATM   15  C11 UNK     1      34.759  -6.843  35.923  1.00  0.00     0.036 A 
HETATM   16  C10 UNK     1      34.279  -7.413  37.101  1.00  0.00     0.003 A 
HETATM   17  C6  UNK     1      33.339  -6.731  37.874  1.00  0.00     0.011 A 
BRANCH  14  18
HETATM   18  N1  UNK     1      34.788  -5.010  34.316  1.00  0.00    -0.116 N 
HETATM   19  O1  UNK     1      34.789  -3.760  34.201  1.00  0.00    -0.532 OA
HETATM   20  O2  UNK     1      35.207  -5.762  33.404  1.00  0.00    -0.532 OA
ENDBRANCH  14  18
ENDBRANCH   2  12
TORSDOF 3
ENDMDL
MODEL 6
REMARK VINA RESULT:      -6.6     33.832     35.854
REMARK  3 active torsions:
REMARK  status: ('A' for Active; 'I' for Inactive)
REMARK    1  A    between atoms: C7_12  and  N1_4 
REMARK    2  A    between atoms: C1_6  and  C3_8 
REMARK    3  A    between atoms: C2_7  and  C4_9 
ROOT
HETATM    1  N2  UNK     1      29.395  -3.630  40.046  1.00  0.00    -0.191 NA
HETATM    2  C3  UNK     1      28.785  -6.064  37.687  1.00  0.00     0.035 C 
HETATM    3  C4  UNK     1      29.845  -5.336  38.135  1.00  0.00     0.055 C 
HETATM    4  C15 UNK     1      29.585  -4.394  39.193  1.00  0.00     0.100 C 
ENDROOT
BRANCH   3   5
HETATM    5  C2  UNK     1      31.198  -5.435  37.609  1.00  0.00    -0.015 A 
HETATM    6  C8  UNK     1      32.118  -6.294  38.210  1.00  0.00     0.014 A 
HETATM    7  C12 UNK     1      33.416  -6.388  37.707  1.00  0.00     0.024 A 
HETATM    8  C14 UNK     1      33.794  -5.623  36.604  1.00  0.00     0.034 A 
HETATM    9  C13 UNK     1      32.874  -4.764  36.003  1.00  0.00     0.024 A 
HETATM   10 Cl1  UNK     1      35.394  -5.739  35.984  1.00  0.00    -0.084 Cl
HETATM   11  C9  UNK     1      31.576  -4.670  36.506  1.00  0.00     0.014 A 
ENDBRANCH   3   5
BRANCH   2  12
HETATM   12  C1  UNK     1      28.878  -7.047  36.653  1.00  0.00    -0.032 A 
HETATM   13  C5  UNK     1      28.526  -6.736  35.327  1.00  0.00     0.047 A 
HETATM   14  C7  UNK     1      28.616  -7.696  34.317  1.00  0.00     0.103 A 
HETATM   15  C11 UNK     1      29.060  -8.984  34.618  1.00  0.00     0.036 A 
HETATM   16  C10 UNK     1      29.414  -9.312  35.927  1.00  0.00     0.003 A 
HETATM   17  C6  UNK     1      29.323  -8.352  36.936  1.00  0.00     0.011 A 
BRANCH  14  18
HETATM   18  N1  UNK     1      28.257  -7.362  32.985  1.00  0.00    -0.116 N 
HETATM   19  O1  UNK     1      28.179  -8.277  32.129  1.00  0.00    -0.532 OA
HETATM   20  O2  UNK     1      28.027  -6.162  32.700  1.00  0.00    -0.532 OA
ENDBRANCH  14  18
ENDBRANCH   2  12
TORSDOF 3
ENDMDL
MODEL 7
REMARK VINA RESULT:      -6.5      4.032      5.740
REMARK  3 active torsions:
REMARK  status: ('A' for Active; 'I' for Inactive)
REMARK    1  A    between atoms: C7_12  and  N1_4 
REMARK    2  A    between atoms: C1_6  and  C3_8 
REMARK    3  A    between atoms: C2_7  and  C4_9 
ROOT
HETATM    1  N2  UNK     1      15.779   3.682   9.919  1.00  0.00    -0.191 NA
HETATM    2  C3  UNK     1      15.129   7.043  10.306  1.00  0.00     0.035 C 
HETATM    3  C4  UNK     1      14.577   5.976   9.664  1.00  0.00     0.055 C 
HETATM    4  C15 UNK     1      15.250   4.710   9.811  1.00  0.00     0.100 C 
ENDROOT
BRANCH   3   5
HETATM    5  C2  UNK     1      13.381   6.034   8.839  1.00  0.00    -0.015 A 
HETATM    6  C8  UNK     1      12.154   5.624   9.361  1.00  0.00     0.014 A 
HETATM    7  C12 UNK     1      11.006   5.679   8.569  1.00  0.00     0.024 A 
HETATM    8  C14 UNK     1      11.085   6.143   7.257  1.00  0.00     0.034 A 
HETATM    9  C13 UNK     1      12.312   6.553   6.735  1.00  0.00     0.024 A 
HETATM   10 Cl1  UNK     1       9.670   6.210   6.280  1.00  0.00    -0.084 Cl
HETATM   11  C9  UNK     1      13.460   6.498   7.526  1.00  0.00     0.014 A 
ENDBRANCH   3   5
BRANCH   2  12
HETATM   12  C1  UNK     1      14.577   8.361  10.270  1.00  0.00    -0.032 A 
HETATM   13  C5  UNK     1      15.107   9.344   9.413  1.00  0.00     0.047 A 
HETATM   14  C7  UNK     1      14.569  10.631   9.378  1.00  0.00     0.103 A 
HETATM   15  C11 UNK     1      13.491  10.957  10.202  1.00  0.00     0.036 A 
HETATM   16  C10 UNK     1      12.952   9.998  11.059  1.00  0.00     0.003 A 
HETATM   17  C6  UNK     1      13.491   8.711  11.093  1.00  0.00     0.011 A 
BRANCH  14  18
HETATM   18  N1  UNK     1      15.117  11.607   8.506  1.00  0.00    -0.116 N 
HETATM   19  O1  UNK     1      15.212  12.793   8.903  1.00  0.00    -0.532 OA
HETATM   20  O2  UNK     1      15.493  11.257   7.361  1.00  0.00    -0.532 OA
ENDBRANCH  14  18
ENDBRANCH   2  12
TORSDOF 3
ENDMDL
MODEL 8
REMARK VINA RESULT:      -6.5     34.002     36.392
REMARK  3 active torsions:
REMARK  status: ('A' for Active; 'I' for Inactive)
REMARK    1  A    between atoms: C7_12  and  N1_4 
REMARK    2  A    between atoms: C1_6  and  C3_8 
REMARK    3  A    between atoms: C2_7  and  C4_9 
ROOT
HETATM    1  N2  UNK     1      35.982  -6.295  35.704  1.00  0.00    -0.191 NA
HETATM    2  C3  UNK     1      33.024  -6.502  37.457  1.00  0.00     0.035 C 
HETATM    3  C4  UNK     1      33.425  -6.452  36.156  1.00  0.00     0.055 C 
HETATM    4  C15 UNK     1      34.843  -6.365  35.917  1.00  0.00     0.100 C 
ENDROOT
BRANCH   3   5
HETATM    5  C2  UNK     1      32.527  -6.463  35.012  1.00  0.00    -0.015 A 
HETATM    6  C8  UNK     1      32.264  -7.660  34.345  1.00  0.00     0.014 A 
HETATM    7  C12 UNK     1      31.404  -7.671  33.247  1.00  0.00     0.024 A 
HETATM    8  C14 UNK     1      30.807  -6.487  32.816  1.00  0.00     0.034 A 
HETATM    9  C13 UNK     1      31.070  -5.290  33.483  1.00  0.00     0.024 A 
HETATM   10 Cl1  UNK     1      29.746  -6.501  31.461  1.00  0.00    -0.084 Cl
HETATM   11  C9  UNK     1      31.930  -5.279  34.581  1.00  0.00     0.014 A 
ENDBRANCH   3   5
BRANCH   2  12
HETATM   12  C1  UNK     1      31.657  -6.602  37.861  1.00  0.00    -0.032 A 
HETATM   13  C5  UNK     1      30.962  -5.477  38.346  1.00  0.00     0.047 A 
HETATM   14  C7  UNK     1      29.628  -5.575  38.741  1.00  0.00     0.103 A 
HETATM   15  C11 UNK     1      28.965  -6.800  38.659  1.00  0.00     0.036 A 
HETATM   16  C10 UNK     1      29.635  -7.926  38.183  1.00  0.00     0.003 A 
HETATM   17  C6  UNK     1      30.970  -7.827  37.788  1.00  0.00     0.011 A 
BRANCH  14  18
HETATM   18  N1  UNK     1      28.944  -4.429  39.226  1.00  0.00    -0.116 N 
HETATM   19  O1  UNK     1      27.734  -4.274  38.934  1.00  0.00    -0.532 OA
HETATM   20  O2  UNK     1      29.569  -3.602  39.934  1.00  0.00    -0.532 OA
ENDBRANCH  14  18
ENDBRANCH   2  12
TORSDOF 3
ENDMDL
MODEL 9
REMARK VINA RESULT:      -6.5     33.291     35.669
REMARK  3 active torsions:
REMARK  status: ('A' for Active; 'I' for Inactive)
REMARK    1  A    between atoms: C7_12  and  N1_4 
REMARK    2  A    between atoms: C1_6  and  C3_8 
REMARK    3  A    between atoms: C2_7  and  C4_9 
ROOT
HETATM    1  N2  UNK     1      31.621 -11.017  35.235  1.00  0.00    -0.191 NA
HETATM    2  C3  UNK     1      30.591  -8.452  37.292  1.00  0.00     0.035 C 
HETATM    3  C4  UNK     1      30.743  -8.677  35.957  1.00  0.00     0.055 C 
HETATM    4  C15 UNK     1      31.230  -9.976  35.568  1.00  0.00     0.100 C 
ENDROOT
BRANCH   3   5
HETATM    5  C2  UNK     1      30.465  -7.699  34.916  1.00  0.00    -0.015 A 
HETATM    6  C8  UNK     1      29.201  -7.645  34.330  1.00  0.00     0.014 A 
HETATM    7  C12 UNK     1      28.935  -6.708  33.331  1.00  0.00     0.024 A 
HETATM    8  C14 UNK     1      29.932  -5.825  32.919  1.00  0.00     0.034 A 
HETATM    9  C13 UNK     1      31.197  -5.879  33.506  1.00  0.00     0.024 A 
HETATM   10 Cl1  UNK     1      29.604  -4.669  31.687  1.00  0.00    -0.084 Cl
HETATM   11  C9  UNK     1      31.463  -6.816  34.504  1.00  0.00     0.014 A 
ENDBRANCH   3   5
BRANCH   2  12
HETATM   12  C1  UNK     1      30.107  -7.224  37.839  1.00  0.00    -0.032 A 
HETATM   13  C5  UNK     1      28.727  -6.995  37.993  1.00  0.00     0.047 A 
HETATM   14  C7  UNK     1      28.254  -5.795  38.527  1.00  0.00     0.103 A 
HETATM   15  C11 UNK     1      29.155  -4.804  38.917  1.00  0.00     0.036 A 
HETATM   16  C10 UNK     1      30.527  -5.011  38.772  1.00  0.00     0.003 A 
HETATM   17  C6  UNK     1      30.999  -6.211  38.238  1.00  0.00     0.011 A 
BRANCH  14  18
HETATM   18  N1  UNK     1      26.859  -5.584  38.675  1.00  0.00    -0.116 N 
HETATM   19  O1  UNK     1      26.441  -4.425  38.911  1.00  0.00    -0.532 OA
HETATM   20  O2  UNK     1      26.081  -6.563  38.565  1.00  0.00    -0.532 OA
ENDBRANCH  14  18
ENDBRANCH   2  12
TORSDOF 3
ENDMDL
MODEL 10
REMARK VINA RESULT:      -6.5     33.693     36.082
REMARK  3 active torsions:
REMARK  status: ('A' for Active; 'I' for Inactive)
REMARK    1  A    between atoms: C7_12  and  N1_4 
REMARK    2  A    between atoms: C1_6  and  C3_8 
REMARK    3  A    between atoms: C2_7  and  C4_9 
ROOT
HETATM    1  N2  UNK     1      25.762 -10.787  36.505  1.00  0.00    -0.191 NA
HETATM    2  C3  UNK     1      28.275  -8.841  37.834  1.00  0.00     0.035 C 
HETATM    3  C4  UNK     1      27.793  -9.164  36.602  1.00  0.00     0.055 C 
HETATM    4  C15 UNK     1      26.668 -10.064  36.559  1.00  0.00     0.100 C 
ENDROOT
BRANCH   3   5
HETATM    5  C2  UNK     1      28.342  -8.679  35.345  1.00  0.00    -0.015 A 
HETATM    6  C8  UNK     1      28.054  -7.384  34.912  1.00  0.00     0.014 A 
HETATM    7  C12 UNK     1      28.580  -6.919  33.706  1.00  0.00     0.024 A 
HETATM    8  C14 UNK     1      29.392  -7.748  32.934  1.00  0.00     0.034 A 
HETATM    9  C13 UNK     1      29.680  -9.043  33.367  1.00  0.00     0.024 A 
HETATM   10 Cl1  UNK     1      30.041  -7.175  31.447  1.00  0.00    -0.084 Cl
HETATM   11  C9  UNK     1      29.154  -9.508  34.572  1.00  0.00     0.014 A 
ENDBRANCH   3   5
BRANCH   2  12
HETATM   12  C1  UNK     1      29.375  -7.954  38.047  1.00  0.00    -0.032 A 
HETATM   13  C5  UNK     1      29.162  -6.580  38.269  1.00  0.00     0.047 A 
HETATM   14  C7  UNK     1      30.236  -5.713  38.477  1.00  0.00     0.103 A 
HETATM   15  C11 UNK     1      31.541  -6.206  38.467  1.00  0.00     0.036 A 
HETATM   16  C10 UNK     1      31.773  -7.564  38.249  1.00  0.00     0.003 A 
HETATM   17  C6  UNK     1      30.699  -8.430  38.041  1.00  0.00     0.011 A 
BRANCH  14  18
HETATM   18  N1  UNK     1      30.001  -4.331  38.699  1.00  0.00    -0.116 N 
HETATM   19  O1  UNK     1      30.195  -3.522  37.760  1.00  0.00    -0.532 OA
HETATM   20  O2  UNK     1      29.605  -3.956  39.829  1.00  0.00    -0.532 OA
ENDBRANCH  14  18
ENDBRANCH   2  12
TORSDOF 3
ENDMDL
