MODEL 1
REMARK VINA RESULT:      -9.7      0.000      0.000
REMARK  6 active torsions:
REMARK  status: ('A' for Active; 'I' for Inactive)
REMARK    1  A    between atoms: C13_21  and  O2_4 
REMARK       I    between atoms: C14_22  and  N1_8 
REMARK    2  A    between atoms: C7_15  and  N1_8 
REMARK    3  A    between atoms: C1_9  and  C2_10 
REMARK    4  A    between atoms: C1_9  and  C3_11 
REMARK    5  A    between atoms: C13_21  and  C6_14 
REMARK    6  A    between atoms: C12_20  and  C14_22 
ROOT
HETATM    1  S1  UNK     1      19.789  -2.282  35.446  1.00  0.00    -0.075 SA
HETATM    2  C2  UNK     1      19.435  -2.840  37.024  1.00  0.00    -0.006 A 
HETATM    3  C5  UNK     1      18.730  -1.910  37.756  1.00  0.00     0.035 A 
HETATM    4  C6  UNK     1      18.475  -0.723  37.011  1.00  0.00     0.074 A 
HETATM    5  C7  UNK     1      18.996  -0.810  35.760  1.00  0.00     0.093 A 
ENDROOT
BRANCH   5   6
HETATM    6  N1  UNK     1      18.983   0.109  34.705  1.00  0.00    -0.316 N 
HETATM    7  C14 UNK     1      18.276  -0.018  33.518  1.00  0.00     0.262 C 
HETATM    8  O3  UNK     1      17.539  -0.934  33.159  1.00  0.00    -0.267 OA
HETATM    9  H8  UNK     1      19.575   0.922  34.854  1.00  0.00     0.169 HD
BRANCH   7  10
HETATM   10  C12 UNK     1      18.489   1.131  32.630  1.00  0.00     0.108 A 
HETATM   11  C17 UNK     1      18.142   2.329  33.117  1.00  0.00     0.037 A 
HETATM   12  C15 UNK     1      18.315   3.527  32.312  1.00  0.00     0.000 A 
HETATM   13  C18 UNK     1      18.846   3.406  31.031  1.00  0.00     0.089 A 
HETATM   14  C20 UNK     1      17.967   4.796  32.779  1.00  0.00     0.033 A 
HETATM   15  O1  UNK     1      19.210   2.143  30.524  1.00  0.00    -0.274 OA
HETATM   16  C21 UNK     1      19.037   4.514  30.208  1.00  0.00     0.039 A 
HETATM   17  C19 UNK     1      19.056   0.978  31.271  1.00  0.00     0.304 A 
HETATM   18  O5  UNK     1      19.375  -0.117  30.821  1.00  0.00    -0.259 OA
HETATM   19  C23 UNK     1      18.686   5.776  30.683  1.00  0.00     0.022 A 
HETATM   20  C22 UNK     1      18.152   5.916  31.965  1.00  0.00     0.011 A 
HETATM   21 Br1  UNK     1      17.680   7.633  32.603  1.00  0.00    -0.051 Br
ENDBRANCH   7  10
ENDBRANCH   5   6
BRANCH   4  22
HETATM   22  C13 UNK     1      17.760   0.425  37.505  1.00  0.00     0.295 C 
HETATM   23  O4  UNK     1      17.845   0.845  38.669  1.00  0.00    -0.259 OA
BRANCH  22  24
HETATM   24  O2  UNK     1      16.956   1.032  36.565  1.00  0.00    -0.322 OA
HETATM   25  C24 UNK     1      15.640   0.496  36.393  1.00  0.00     0.213 C 
ENDBRANCH  22  24
ENDBRANCH   4  22
BRANCH   2  26
HETATM   26  C1  UNK     1      19.888  -4.186  37.439  1.00  0.00     0.054 C 
HETATM   27  C4  UNK     1      21.438  -4.275  37.485  1.00  0.00     0.020 C 
BRANCH  26  28
HETATM   28  C3  UNK     1      19.229  -5.332  36.645  1.00  0.00    -0.050 A 
HETATM   29  C8  UNK     1      17.921  -5.639  36.916  1.00  0.00     0.008 A 
HETATM   30  C10 UNK     1      17.325  -6.676  36.199  1.00  0.00     0.001 A 
HETATM   31  C16 UNK     1      18.059  -7.369  35.236  1.00  0.00     0.000 A 
HETATM   32  C11 UNK     1      19.389  -7.026  34.991  1.00  0.00     0.001 A 
HETATM   33  C9  UNK     1      19.985  -5.988  35.709  1.00  0.00     0.008 A 
ENDBRANCH  26  28
ENDBRANCH   2  26
TORSDOF 6
ENDMDL
MODEL 2
REMARK VINA RESULT:      -8.9      1.453      2.051
REMARK  6 active torsions:
REMARK  status: ('A' for Active; 'I' for Inactive)
REMARK    1  A    between atoms: C13_21  and  O2_4 
REMARK       I    between atoms: C14_22  and  N1_8 
REMARK    2  A    between atoms: C7_15  and  N1_8 
REMARK    3  A    between atoms: C1_9  and  C2_10 
REMARK    4  A    between atoms: C1_9  and  C3_11 
REMARK    5  A    between atoms: C13_21  and  C6_14 
REMARK    6  A    between atoms: C12_20  and  C14_22 
ROOT
HETATM    1  S1  UNK     1      20.172  -2.964  34.541  1.00  0.00    -0.075 SA
HETATM    2  C2  UNK     1      19.980  -3.951  35.926  1.00  0.00    -0.006 A 
HETATM    3  C5  UNK     1      19.304  -3.301  36.935  1.00  0.00     0.035 A 
HETATM    4  C6  UNK     1      18.939  -1.974  36.567  1.00  0.00     0.074 A 
HETATM    5  C7  UNK     1      19.353  -1.685  35.306  1.00  0.00     0.093 A 
ENDROOT
BRANCH   5   6
HETATM    6  N1  UNK     1      19.212  -0.517  34.550  1.00  0.00    -0.316 N 
HETATM    7  C14 UNK     1      18.126  -0.184  33.752  1.00  0.00     0.262 C 
HETATM    8  O3  UNK     1      17.097  -0.826  33.551  1.00  0.00    -0.267 OA
HETATM    9  H8  UNK     1      20.008   0.112  34.602  1.00  0.00     0.169 HD
BRANCH   7  10
HETATM   10  C12 UNK     1      18.307   1.117  33.098  1.00  0.00     0.108 A 
HETATM   11  C17 UNK     1      18.109   2.197  33.864  1.00  0.00     0.037 A 
HETATM   12  C15 UNK     1      18.264   3.531  33.306  1.00  0.00     0.000 A 
HETATM   13  C18 UNK     1      18.621   3.663  31.967  1.00  0.00     0.089 A 
HETATM   14  C20 UNK     1      18.067   4.685  34.067  1.00  0.00     0.033 A 
HETATM   15  O1  UNK     1      18.828   2.522  31.166  1.00  0.00    -0.274 OA
HETATM   16  C21 UNK     1      18.785   4.911  31.371  1.00  0.00     0.039 A 
HETATM   17  C19 UNK     1      18.687   1.233  31.672  1.00  0.00     0.304 A 
HETATM   18  O5  UNK     1      18.869   0.247  30.968  1.00  0.00    -0.259 OA
HETATM   19  C23 UNK     1      18.586   6.058  32.138  1.00  0.00     0.022 A 
HETATM   20  C22 UNK     1      18.228   5.944  33.483  1.00  0.00     0.011 A 
HETATM   21 Br1  UNK     1      17.961   7.504  34.518  1.00  0.00    -0.051 Br
ENDBRANCH   7  10
ENDBRANCH   5   6
BRANCH   4  22
HETATM   22  C13 UNK     1      18.226  -1.051  37.410  1.00  0.00     0.295 C 
HETATM   23  O4  UNK     1      18.583  -0.741  38.556  1.00  0.00    -0.259 OA
BRANCH  22  24
HETATM   24  O2  UNK     1      17.089  -0.527  36.832  1.00  0.00    -0.322 OA
HETATM   25  C24 UNK     1      16.785   0.841  37.122  1.00  0.00     0.213 C 
ENDBRANCH  22  24
ENDBRANCH   4  22
BRANCH   2  26
HETATM   26  C1  UNK     1      20.519  -5.329  35.918  1.00  0.00     0.054 C 
HETATM   27  C4  UNK     1      20.029  -6.124  34.677  1.00  0.00     0.020 C 
BRANCH  26  28
HETATM   28  C3  UNK     1      20.318  -6.080  37.249  1.00  0.00    -0.050 A 
HETATM   29  C8  UNK     1      21.293  -5.974  38.206  1.00  0.00     0.008 A 
HETATM   30  C10 UNK     1      21.112  -6.653  39.411  1.00  0.00     0.001 A 
HETATM   31  C16 UNK     1      19.962  -7.415  39.614  1.00  0.00     0.000 A 
HETATM   32  C11 UNK     1      18.993  -7.498  38.614  1.00  0.00     0.001 A 
HETATM   33  C9  UNK     1      19.175  -6.818  37.409  1.00  0.00     0.008 A 
ENDBRANCH  26  28
ENDBRANCH   2  26
TORSDOF 6
ENDMDL
MODEL 3
REMARK VINA RESULT:      -8.8     26.453     28.317
REMARK  6 active torsions:
REMARK  status: ('A' for Active; 'I' for Inactive)
REMARK    1  A    between atoms: C13_21  and  O2_4 
REMARK       I    between atoms: C14_22  and  N1_8 
REMARK    2  A    between atoms: C7_15  and  N1_8 
REMARK    3  A    between atoms: C1_9  and  C2_10 
REMARK    4  A    between atoms: C1_9  and  C3_11 
REMARK    5  A    between atoms: C13_21  and  C6_14 
REMARK    6  A    between atoms: C12_20  and  C14_22 
ROOT
HETATM    1  S1  UNK     1      11.696   7.664   7.629  1.00  0.00    -0.075 SA
HETATM    2  C2  UNK     1      11.011   6.141   8.002  1.00  0.00    -0.006 A 
HETATM    3  C5  UNK     1      11.905   5.316   8.648  1.00  0.00     0.035 A 
HETATM    4  C6  UNK     1      13.170   5.943   8.841  1.00  0.00     0.074 A 
HETATM    5  C7  UNK     1      13.173   7.203   8.334  1.00  0.00     0.093 A 
ENDROOT
BRANCH   5   6
HETATM    6  N1  UNK     1      14.187   8.166   8.303  1.00  0.00    -0.316 N 
HETATM    7  C14 UNK     1      14.696   8.854   9.395  1.00  0.00     0.262 C 
HETATM    8  O3  UNK     1      14.372   8.763  10.578  1.00  0.00    -0.267 OA
HETATM    9  H8  UNK     1      14.545   8.364   7.373  1.00  0.00     0.169 HD
BRANCH   7  10
HETATM   10  C12 UNK     1      15.755   9.793   9.005  1.00  0.00     0.108 A 
HETATM   11  C17 UNK     1      15.368  10.858   8.292  1.00  0.00     0.037 A 
HETATM   12  C15 UNK     1      16.344  11.845   7.858  1.00  0.00     0.000 A 
HETATM   13  C18 UNK     1      17.681  11.662   8.197  1.00  0.00     0.089 A 
HETATM   14  C20 UNK     1      15.986  12.970   7.113  1.00  0.00     0.033 A 
HETATM   15  O1  UNK     1      18.083  10.539   8.948  1.00  0.00    -0.274 OA
HETATM   16  C21 UNK     1      18.667  12.569   7.812  1.00  0.00     0.039 A 
HETATM   17  C19 UNK     1      17.171   9.578   9.377  1.00  0.00     0.304 A 
HETATM   18  O5  UNK     1      17.530   8.604  10.029  1.00  0.00    -0.259 OA
HETATM   19  C23 UNK     1      18.300  13.689   7.068  1.00  0.00     0.022 A 
HETATM   20  C22 UNK     1      16.963  13.889   6.720  1.00  0.00     0.011 A 
HETATM   21 Br1  UNK     1      16.473  15.411   5.712  1.00  0.00    -0.051 Br
ENDBRANCH   7  10
ENDBRANCH   5   6
BRANCH   4  22
HETATM   22  C13 UNK     1      14.303   5.333   9.486  1.00  0.00     0.295 C 
HETATM   23  O4  UNK     1      14.265   4.820  10.614  1.00  0.00    -0.259 OA
BRANCH  22  24
HETATM   24  O2  UNK     1      15.460   5.366   8.736  1.00  0.00    -0.322 OA
HETATM   25  C24 UNK     1      16.679   5.636   9.436  1.00  0.00     0.213 C 
ENDBRANCH  22  24
ENDBRANCH   4  22
BRANCH   2  26
HETATM   26  C1  UNK     1       9.609   5.861   7.622  1.00  0.00     0.054 C 
HETATM   27  C4  UNK     1       9.254   6.497   6.250  1.00  0.00     0.020 C 
BRANCH  26  28
HETATM   28  C3  UNK     1       8.590   6.187   8.733  1.00  0.00    -0.050 A 
HETATM   29  C8  UNK     1       7.991   7.419   8.722  1.00  0.00     0.008 A 
HETATM   30  C10 UNK     1       7.070   7.714   9.726  1.00  0.00     0.001 A 
HETATM   31  C16 UNK     1       6.782   6.766  10.708  1.00  0.00     0.000 A 
HETATM   32  C11 UNK     1       7.414   5.522  10.684  1.00  0.00     0.001 A 
HETATM   33  C9  UNK     1       8.336   5.228   9.678  1.00  0.00     0.008 A 
ENDBRANCH  26  28
ENDBRANCH   2  26
TORSDOF 6
ENDMDL
MODEL 4
REMARK VINA RESULT:      -8.8      9.175     12.713
REMARK  6 active torsions:
REMARK  status: ('A' for Active; 'I' for Inactive)
REMARK    1  A    between atoms: C13_21  and  O2_4 
REMARK       I    between atoms: C14_22  and  N1_8 
REMARK    2  A    between atoms: C7_15  and  N1_8 
REMARK    3  A    between atoms: C1_9  and  C2_10 
REMARK    4  A    between atoms: C1_9  and  C3_11 
REMARK    5  A    between atoms: C13_21  and  C6_14 
REMARK    6  A    between atoms: C12_20  and  C14_22 
ROOT
HETATM    1  S1  UNK     1      22.706  -8.267  37.964  1.00  0.00    -0.075 SA
HETATM    2  C2  UNK     1      21.845  -9.614  37.354  1.00  0.00    -0.006 A 
HETATM    3  C5  UNK     1      22.671 -10.508  36.708  1.00  0.00     0.035 A 
HETATM    4  C6  UNK     1      24.030 -10.081  36.715  1.00  0.00     0.074 A 
HETATM    5  C7  UNK     1      24.167  -8.894  37.360  1.00  0.00     0.093 A 
ENDROOT
BRANCH   5   6
HETATM    6  N1  UNK     1      25.306  -8.118  37.601  1.00  0.00    -0.316 N 
HETATM    7  C14 UNK     1      26.173  -8.250  38.677  1.00  0.00     0.262 C 
HETATM    8  O3  UNK     1      26.122  -9.049  39.609  1.00  0.00    -0.267 OA
HETATM    9  H8  UNK     1      25.467  -7.389  36.912  1.00  0.00     0.169 HD
BRANCH   7  10
HETATM   10  C12 UNK     1      27.266  -7.272  38.620  1.00  0.00     0.108 A 
HETATM   11  C17 UNK     1      28.495  -7.768  38.436  1.00  0.00     0.037 A 
HETATM   12  C15 UNK     1      29.643  -6.877  38.366  1.00  0.00     0.000 A 
HETATM   13  C18 UNK     1      29.440  -5.507  38.495  1.00  0.00     0.089 A 
HETATM   14  C20 UNK     1      30.943  -7.351  38.175  1.00  0.00     0.033 A 
HETATM   15  O1  UNK     1      28.143  -4.990  38.689  1.00  0.00    -0.274 OA
HETATM   16  C21 UNK     1      30.496  -4.600  38.439  1.00  0.00     0.039 A 
HETATM   17  C19 UNK     1      27.026  -5.818  38.760  1.00  0.00     0.304 A 
HETATM   18  O5  UNK     1      25.901  -5.359  38.929  1.00  0.00    -0.259 OA
HETATM   19  C23 UNK     1      31.790  -5.081  38.248  1.00  0.00     0.022 A 
HETATM   20  C22 UNK     1      32.013  -6.453  38.116  1.00  0.00     0.011 A 
HETATM   21 Br1  UNK     1      33.771  -7.099  37.856  1.00  0.00    -0.051 Br
ENDBRANCH   7  10
ENDBRANCH   5   6
BRANCH   4  22
HETATM   22  C13 UNK     1      25.125 -10.804  36.121  1.00  0.00     0.295 C 
HETATM   23  O4  UNK     1      26.314 -10.471  36.229  1.00  0.00    -0.259 OA
BRANCH  22  24
HETATM   24  O2  UNK     1      24.739 -11.917  35.405  1.00  0.00    -0.322 OA
HETATM   25  C24 UNK     1      24.752 -13.170  36.098  1.00  0.00     0.213 C 
ENDBRANCH  22  24
ENDBRANCH   4  22
BRANCH   2  26
HETATM   26  C1  UNK     1      20.382  -9.696  37.560  1.00  0.00     0.054 C 
HETATM   27  C4  UNK     1      19.813 -11.052  37.059  1.00  0.00     0.020 C 
BRANCH  26  28
HETATM   28  C3  UNK     1      19.612  -8.471  37.028  1.00  0.00    -0.050 A 
HETATM   29  C8  UNK     1      19.758  -8.137  35.707  1.00  0.00     0.008 A 
HETATM   30  C10 UNK     1      19.062  -7.029  35.226  1.00  0.00     0.001 A 
HETATM   31  C16 UNK     1      18.244  -6.294  36.083  1.00  0.00     0.000 A 
HETATM   32  C11 UNK     1      18.122  -6.667  37.422  1.00  0.00     0.001 A 
HETATM   33  C9  UNK     1      18.819  -7.776  37.903  1.00  0.00     0.008 A 
ENDBRANCH  26  28
ENDBRANCH   2  26
TORSDOF 6
ENDMDL
MODEL 5
REMARK VINA RESULT:      -8.6     10.799     14.551
REMARK  6 active torsions:
REMARK  status: ('A' for Active; 'I' for Inactive)
REMARK    1  A    between atoms: C13_21  and  O2_4 
REMARK       I    between atoms: C14_22  and  N1_8 
REMARK    2  A    between atoms: C7_15  and  N1_8 
REMARK    3  A    between atoms: C1_9  and  C2_10 
REMARK    4  A    between atoms: C1_9  and  C3_11 
REMARK    5  A    between atoms: C13_21  and  C6_14 
REMARK    6  A    between atoms: C12_20  and  C14_22 
ROOT
HETATM    1  S1  UNK     1      29.152  -6.006  37.252  1.00  0.00    -0.075 SA
HETATM    2  C2  UNK     1      30.775  -6.057  37.793  1.00  0.00    -0.006 A 
HETATM    3  C5  UNK     1      31.148  -7.322  38.192  1.00  0.00     0.035 A 
HETATM    4  C6  UNK     1      30.087  -8.262  38.052  1.00  0.00     0.074 A 
HETATM    5  C7  UNK     1      28.970  -7.669  37.557  1.00  0.00     0.093 A 
ENDROOT
BRANCH   5   6
HETATM    6  N1  UNK     1      27.712  -8.204  37.263  1.00  0.00    -0.316 N 
HETATM    7  C14 UNK     1      26.671  -8.390  38.163  1.00  0.00     0.262 C 
HETATM    8  O3  UNK     1      26.641  -8.131  39.364  1.00  0.00    -0.267 OA
HETATM    9  H8  UNK     1      27.595  -8.489  36.295  1.00  0.00     0.169 HD
BRANCH   7  10
HETATM   10  C12 UNK     1      25.490  -8.977  37.518  1.00  0.00     0.108 A 
HETATM   11  C17 UNK     1      24.319  -8.381  37.774  1.00  0.00     0.037 A 
HETATM   12  C15 UNK     1      23.092  -8.889  37.182  1.00  0.00     0.000 A 
HETATM   13  C18 UNK     1      23.158 -10.001  36.348  1.00  0.00     0.089 A 
HETATM   14  C20 UNK     1      21.849  -8.299  37.421  1.00  0.00     0.033 A 
HETATM   15  O1  UNK     1      24.393 -10.624  36.082  1.00  0.00    -0.274 OA
HETATM   16  C21 UNK     1      22.020 -10.538  35.750  1.00  0.00     0.039 A 
HETATM   17  C19 UNK     1      25.584 -10.161  36.635  1.00  0.00     0.304 A 
HETATM   18  O5  UNK     1      26.654 -10.710  36.398  1.00  0.00    -0.259 OA
HETATM   19  C23 UNK     1      20.783  -9.943  35.994  1.00  0.00     0.022 A 
HETATM   20  C22 UNK     1      20.699  -8.826  36.828  1.00  0.00     0.011 A 
HETATM   21 Br1  UNK     1      19.018  -8.024  37.154  1.00  0.00    -0.051 Br
ENDBRANCH   7  10
ENDBRANCH   5   6
BRANCH   4  22
HETATM   22  C13 UNK     1      30.173  -9.660  38.385  1.00  0.00     0.295 C 
HETATM   23  O4  UNK     1      29.344 -10.256  39.089  1.00  0.00    -0.259 OA
BRANCH  22  24
HETATM   24  O2  UNK     1      31.272 -10.297  37.851  1.00  0.00    -0.322 OA
HETATM   25  C24 UNK     1      31.374 -10.328  36.424  1.00  0.00     0.213 C 
ENDBRANCH  22  24
ENDBRANCH   4  22
BRANCH   2  26
HETATM   26  C1  UNK     1      31.584  -4.819  37.785  1.00  0.00     0.054 C 
HETATM   27  C4  UNK     1      30.696  -3.561  37.584  1.00  0.00     0.020 C 
BRANCH  26  28
HETATM   28  C3  UNK     1      32.795  -4.877  36.832  1.00  0.00    -0.050 A 
HETATM   29  C8  UNK     1      33.898  -5.587  37.228  1.00  0.00     0.008 A 
HETATM   30  C10 UNK     1      34.993  -5.639  36.366  1.00  0.00     0.001 A 
HETATM   31  C16 UNK     1      34.945  -4.979  35.138  1.00  0.00     0.000 A 
HETATM   32  C11 UNK     1      33.803  -4.266  34.772  1.00  0.00     0.001 A 
HETATM   33  C9  UNK     1      32.708  -4.214  35.635  1.00  0.00     0.008 A 
ENDBRANCH  26  28
ENDBRANCH   2  26
TORSDOF 6
ENDMDL
MODEL 6
REMARK VINA RESULT:      -8.6     26.068     27.924
REMARK  6 active torsions:
REMARK  status: ('A' for Active; 'I' for Inactive)
REMARK    1  A    between atoms: C13_21  and  O2_4 
REMARK       I    between atoms: C14_22  and  N1_8 
REMARK    2  A    between atoms: C7_15  and  N1_8 
REMARK    3  A    between atoms: C1_9  and  C2_10 
REMARK    4  A    between atoms: C1_9  and  C3_11 
REMARK    5  A    between atoms: C13_21  and  C6_14 
REMARK    6  A    between atoms: C12_20  and  C14_22 
ROOT
HETATM    1  S1  UNK     1      16.733   8.519  10.060  1.00  0.00    -0.075 SA
HETATM    2  C2  UNK     1      15.142   8.509   9.430  1.00  0.00    -0.006 A 
HETATM    3  C5  UNK     1      14.876   9.631   8.678  1.00  0.00     0.035 A 
HETATM    4  C6  UNK     1      15.994  10.513   8.617  1.00  0.00     0.074 A 
HETATM    5  C7  UNK     1      17.045  10.019   9.321  1.00  0.00     0.093 A 
ENDROOT
BRANCH   5   6
HETATM    6  N1  UNK     1      18.324  10.544   9.530  1.00  0.00    -0.316 N 
HETATM    7  C14 UNK     1      18.634  11.672  10.276  1.00  0.00     0.262 C 
HETATM    8  O3  UNK     1      17.873  12.419  10.888  1.00  0.00    -0.267 OA
HETATM    9  H8  UNK     1      19.067  10.033   9.060  1.00  0.00     0.169 HD
BRANCH   7  10
HETATM   10  C12 UNK     1      20.077  11.941  10.287  1.00  0.00     0.108 A 
HETATM   11  C17 UNK     1      20.609  12.270  11.471  1.00  0.00     0.037 A 
HETATM   12  C15 UNK     1      22.030  12.555  11.583  1.00  0.00     0.000 A 
HETATM   13  C18 UNK     1      22.823  12.479  10.442  1.00  0.00     0.089 A 
HETATM   14  C20 UNK     1      22.627  12.903  12.797  1.00  0.00     0.033 A 
HETATM   15  O1  UNK     1      22.258  12.132   9.199  1.00  0.00    -0.274 OA
HETATM   16  C21 UNK     1      24.192  12.741  10.480  1.00  0.00     0.039 A 
HETATM   17  C19 UNK     1      20.901  11.854   9.061  1.00  0.00     0.304 A 
HETATM   18  O5  UNK     1      20.418  11.553   7.975  1.00  0.00    -0.259 OA
HETATM   19  C23 UNK     1      24.779  13.087  11.696  1.00  0.00     0.022 A 
HETATM   20  C22 UNK     1      23.998  13.168  12.851  1.00  0.00     0.011 A 
HETATM   21 Br1  UNK     1      24.802  13.637  14.497  1.00  0.00    -0.051 Br
ENDBRANCH   7  10
ENDBRANCH   5   6
BRANCH   4  22
HETATM   22  C13 UNK     1      16.020  11.764   7.906  1.00  0.00     0.295 C 
HETATM   23  O4  UNK     1      15.127  12.621   7.979  1.00  0.00    -0.259 OA
BRANCH  22  24
HETATM   24  O2  UNK     1      17.140  11.939   7.120  1.00  0.00    -0.322 OA
HETATM   25  C24 UNK     1      17.560  13.286   6.882  1.00  0.00     0.213 C 
ENDBRANCH  22  24
ENDBRANCH   4  22
BRANCH   2  26
HETATM   26  C1  UNK     1      14.249   7.368   9.728  1.00  0.00     0.054 C 
HETATM   27  C4  UNK     1      15.053   6.056   9.936  1.00  0.00     0.020 C 
BRANCH  26  28
HETATM   28  C3  UNK     1      13.078   7.222   8.735  1.00  0.00    -0.050 A 
HETATM   29  C8  UNK     1      13.319   6.604   7.536  1.00  0.00     0.008 A 
HETATM   30  C10 UNK     1      12.261   6.472   6.638  1.00  0.00     0.001 A 
HETATM   31  C16 UNK     1      10.999   6.963   6.971  1.00  0.00     0.000 A 
HETATM   32  C11 UNK     1      10.795   7.586   8.203  1.00  0.00     0.001 A 
HETATM   33  C9  UNK     1      11.854   7.718   9.101  1.00  0.00     0.008 A 
ENDBRANCH  26  28
ENDBRANCH   2  26
TORSDOF 6
ENDMDL
MODEL 7
REMARK VINA RESULT:      -8.5     23.746     27.047
REMARK  6 active torsions:
REMARK  status: ('A' for Active; 'I' for Inactive)
REMARK    1  A    between atoms: C13_21  and  O2_4 
REMARK       I    between atoms: C14_22  and  N1_8 
REMARK    2  A    between atoms: C7_15  and  N1_8 
REMARK    3  A    between atoms: C1_9  and  C2_10 
REMARK    4  A    between atoms: C1_9  and  C3_11 
REMARK    5  A    between atoms: C13_21  and  C6_14 
REMARK    6  A    between atoms: C12_20  and  C14_22 
ROOT
HETATM    1  S1  UNK     1       6.008   4.873  12.399  1.00  0.00    -0.075 SA
HETATM    2  C2  UNK     1       4.736   3.795  12.781  1.00  0.00    -0.006 A 
HETATM    3  C5  UNK     1       4.587   2.812  11.827  1.00  0.00     0.035 A 
HETATM    4  C6  UNK     1       5.530   2.945  10.768  1.00  0.00     0.074 A 
HETATM    5  C7  UNK     1       6.342   4.015  10.969  1.00  0.00     0.093 A 
ENDROOT
BRANCH   5   6
HETATM    6  N1  UNK     1       7.395   4.514  10.194  1.00  0.00    -0.316 N 
HETATM    7  C14 UNK     1       7.391   5.702   9.477  1.00  0.00     0.262 C 
HETATM    8  O3  UNK     1       6.493   6.535   9.376  1.00  0.00    -0.267 OA
HETATM    9  H8  UNK     1       8.213   3.912  10.165  1.00  0.00     0.169 HD
BRANCH   7  10
HETATM   10  C12 UNK     1       8.662   5.919   8.774  1.00  0.00     0.108 A 
HETATM   11  C17 UNK     1       9.770   5.547   9.425  1.00  0.00     0.037 A 
HETATM   12  C15 UNK     1      11.077   5.722   8.811  1.00  0.00     0.000 A 
HETATM   13  C18 UNK     1      11.152   6.282   7.539  1.00  0.00     0.089 A 
HETATM   14  C20 UNK     1      12.259   5.349   9.454  1.00  0.00     0.033 A 
HETATM   15  O1  UNK     1       9.982   6.671   6.858  1.00  0.00    -0.274 OA
HETATM   16  C21 UNK     1      12.372   6.478   6.895  1.00  0.00     0.039 A 
HETATM   17  C19 UNK     1       8.718   6.516   7.420  1.00  0.00     0.304 A 
HETATM   18  O5  UNK     1       7.705   6.858   6.820  1.00  0.00    -0.259 OA
HETATM   19  C23 UNK     1      13.547   6.103   7.544  1.00  0.00     0.022 A 
HETATM   20  C22 UNK     1      13.490   5.540   8.821  1.00  0.00     0.011 A 
HETATM   21 Br1  UNK     1      15.088   5.032   9.695  1.00  0.00    -0.051 Br
ENDBRANCH   7  10
ENDBRANCH   5   6
BRANCH   4  22
HETATM   22  C13 UNK     1       5.622   2.070   9.629  1.00  0.00     0.295 C 
HETATM   23  O4  UNK     1       6.140   2.390   8.549  1.00  0.00    -0.259 OA
BRANCH  22  24
HETATM   24  O2  UNK     1       5.078   0.820   9.838  1.00  0.00    -0.322 OA
HETATM   25  C24 UNK     1       4.882  -0.002   8.682  1.00  0.00     0.213 C 
ENDBRANCH  22  24
ENDBRANCH   4  22
BRANCH   2  26
HETATM   26  C1  UNK     1       3.958   3.998  14.023  1.00  0.00     0.054 C 
HETATM   27  C4  UNK     1       3.847   5.505  14.383  1.00  0.00     0.020 C 
BRANCH  26  28
HETATM   28  C3  UNK     1       4.426   3.117  15.198  1.00  0.00    -0.050 A 
HETATM   29  C8  UNK     1       5.590   3.455  15.838  1.00  0.00     0.008 A 
HETATM   30  C10 UNK     1       6.014   2.658  16.900  1.00  0.00     0.001 A 
HETATM   31  C16 UNK     1       5.259   1.550  17.285  1.00  0.00     0.000 A 
HETATM   32  C11 UNK     1       4.079   1.240  16.607  1.00  0.00     0.001 A 
HETATM   33  C9  UNK     1       3.655   2.038  15.544  1.00  0.00     0.008 A 
ENDBRANCH  26  28
ENDBRANCH   2  26
TORSDOF 6
ENDMDL
MODEL 8
REMARK VINA RESULT:      -8.5      3.527      9.831
REMARK  6 active torsions:
REMARK  status: ('A' for Active; 'I' for Inactive)
REMARK    1  A    between atoms: C13_21  and  O2_4 
REMARK       I    between atoms: C14_22  and  N1_8 
REMARK    2  A    between atoms: C7_15  and  N1_8 
REMARK    3  A    between atoms: C1_9  and  C2_10 
REMARK    4  A    between atoms: C1_9  and  C3_11 
REMARK    5  A    between atoms: C13_21  and  C6_14 
REMARK    6  A    between atoms: C12_20  and  C14_22 
ROOT
HETATM    1  S1  UNK     1      18.383   4.610  34.014  1.00  0.00    -0.075 SA
HETATM    2  C2  UNK     1      18.156   5.364  32.495  1.00  0.00    -0.006 A 
HETATM    3  C5  UNK     1      18.124   4.452  31.464  1.00  0.00     0.035 A 
HETATM    4  C6  UNK     1      18.289   3.114  31.927  1.00  0.00     0.074 A 
HETATM    5  C7  UNK     1      18.436   3.079  33.277  1.00  0.00     0.093 A 
ENDROOT
BRANCH   5   6
HETATM    6  N1  UNK     1      18.622   1.996  34.141  1.00  0.00    -0.316 N 
HETATM    7  C14 UNK     1      17.675   1.034  34.464  1.00  0.00     0.262 C 
HETATM    8  O3  UNK     1      16.514   0.939  34.071  1.00  0.00    -0.267 OA
HETATM    9  H8  UNK     1      19.545   1.954  34.566  1.00  0.00     0.169 HD
BRANCH   7  10
HETATM   10  C12 UNK     1      18.205   0.038  35.403  1.00  0.00     0.108 A 
HETATM   11  C17 UNK     1      18.510  -1.159  34.886  1.00  0.00     0.037 A 
HETATM   12  C15 UNK     1      19.042  -2.211  35.737  1.00  0.00     0.000 A 
HETATM   13  C18 UNK     1      19.227  -1.953  37.091  1.00  0.00     0.089 A 
HETATM   14  C20 UNK     1      19.374  -3.474  35.241  1.00  0.00     0.033 A 
HETATM   15  O1  UNK     1      18.904  -0.691  37.630  1.00  0.00    -0.274 OA
HETATM   16  C21 UNK     1      19.731  -2.918  37.961  1.00  0.00     0.039 A 
HETATM   17  C19 UNK     1      18.394   0.336  36.840  1.00  0.00     0.304 A 
HETATM   18  O5  UNK     1      18.115   1.430  37.318  1.00  0.00    -0.259 OA
HETATM   19  C23 UNK     1      20.059  -4.175  37.457  1.00  0.00     0.022 A 
HETATM   20  C22 UNK     1      19.881  -4.452  36.100  1.00  0.00     0.011 A 
HETATM   21 Br1  UNK     1      20.329  -6.160  35.424  1.00  0.00    -0.051 Br
ENDBRANCH   7  10
ENDBRANCH   5   6
BRANCH   4  22
HETATM   22  C13 UNK     1      18.299   1.945  31.087  1.00  0.00     0.295 C 
HETATM   23  O4  UNK     1      18.969   0.929  31.323  1.00  0.00    -0.259 OA
BRANCH  22  24
HETATM   24  O2  UNK     1      17.491   2.047  29.975  1.00  0.00    -0.322 OA
HETATM   25  C24 UNK     1      18.054   1.636  28.725  1.00  0.00     0.213 C 
ENDBRANCH  22  24
ENDBRANCH   4  22
BRANCH   2  26
HETATM   26  C1  UNK     1      18.020   6.836  32.426  1.00  0.00     0.054 C 
HETATM   27  C4  UNK     1      19.181   7.549  33.172  1.00  0.00     0.020 C 
BRANCH  26  28
HETATM   28  C3  UNK     1      16.622   7.348  32.829  1.00  0.00    -0.050 A 
HETATM   29  C8  UNK     1      16.528   8.196  33.902  1.00  0.00     0.008 A 
HETATM   30  C10 UNK     1      15.265   8.659  34.267  1.00  0.00     0.001 A 
HETATM   31  C16 UNK     1      14.140   8.258  33.546  1.00  0.00     0.000 A 
HETATM   32  C11 UNK     1      14.279   7.394  32.459  1.00  0.00     0.001 A 
HETATM   33  C9  UNK     1      15.544   6.930  32.094  1.00  0.00     0.008 A 
ENDBRANCH  26  28
ENDBRANCH   2  26
TORSDOF 6
ENDMDL
MODEL 9
REMARK VINA RESULT:      -8.4     10.186     14.098
REMARK  6 active torsions:
REMARK  status: ('A' for Active; 'I' for Inactive)
REMARK    1  A    between atoms: C13_21  and  O2_4 
REMARK       I    between atoms: C14_22  and  N1_8 
REMARK    2  A    between atoms: C7_15  and  N1_8 
REMARK    3  A    between atoms: C1_9  and  C2_10 
REMARK    4  A    between atoms: C1_9  and  C3_11 
REMARK    5  A    between atoms: C13_21  and  C6_14 
REMARK    6  A    between atoms: C12_20  and  C14_22 
ROOT
HETATM    1  S1  UNK     1      29.932  -6.137  38.264  1.00  0.00    -0.075 SA
HETATM    2  C2  UNK     1      31.262  -6.815  37.427  1.00  0.00    -0.006 A 
HETATM    3  C5  UNK     1      30.868  -7.763  36.509  1.00  0.00     0.035 A 
HETATM    4  C6  UNK     1      29.454  -7.936  36.491  1.00  0.00     0.074 A 
HETATM    5  C7  UNK     1      28.850  -7.116  37.390  1.00  0.00     0.093 A 
ENDROOT
BRANCH   5   6
HETATM    6  N1  UNK     1      27.496  -6.955  37.705  1.00  0.00    -0.316 N 
HETATM    7  C14 UNK     1      26.791  -7.658  38.671  1.00  0.00     0.262 C 
HETATM    8  O3  UNK     1      27.196  -8.540  39.426  1.00  0.00    -0.267 OA
HETATM    9  H8  UNK     1      27.016  -6.262  37.138  1.00  0.00     0.169 HD
BRANCH   7  10
HETATM   10  C12 UNK     1      25.387  -7.237  38.738  1.00  0.00     0.108 A 
HETATM   11  C17 UNK     1      24.472  -8.211  38.669  1.00  0.00     0.037 A 
HETATM   12  C15 UNK     1      23.054  -7.893  38.727  1.00  0.00     0.000 A 
HETATM   13  C18 UNK     1      22.669  -6.562  38.855  1.00  0.00     0.089 A 
HETATM   14  C20 UNK     1      22.066  -8.877  38.658  1.00  0.00     0.033 A 
HETATM   15  O1  UNK     1      23.636  -5.540  38.928  1.00  0.00    -0.274 OA
HETATM   16  C21 UNK     1      21.327  -6.189  38.915  1.00  0.00     0.039 A 
HETATM   17  C19 UNK     1      25.000  -5.814  38.875  1.00  0.00     0.304 A 
HETATM   18  O5  UNK     1      25.835  -4.919  38.938  1.00  0.00    -0.259 OA
HETATM   19  C23 UNK     1      20.348  -7.178  38.846  1.00  0.00     0.022 A 
HETATM   20  C22 UNK     1      20.717  -8.519  38.718  1.00  0.00     0.011 A 
HETATM   21 Br1  UNK     1      19.382  -9.855  38.625  1.00  0.00    -0.051 Br
ENDBRANCH   7  10
ENDBRANCH   5   6
BRANCH   4  22
HETATM   22  C13 UNK     1      28.745  -8.853  35.638  1.00  0.00     0.295 C 
HETATM   23  O4  UNK     1      27.939  -9.701  36.050  1.00  0.00    -0.259 OA
BRANCH  22  24
HETATM   24  O2  UNK     1      29.039  -8.714  34.298  1.00  0.00    -0.322 OA
HETATM   25  C24 UNK     1      28.475  -7.583  33.625  1.00  0.00     0.213 C 
ENDBRANCH  22  24
ENDBRANCH   4  22
BRANCH   2  26
HETATM   26  C1  UNK     1      32.632  -6.353  37.743  1.00  0.00     0.054 C 
HETATM   27  C4  UNK     1      32.611  -5.096  38.655  1.00  0.00     0.020 C 
BRANCH  26  28
HETATM   28  C3  UNK     1      33.534  -6.198  36.502  1.00  0.00    -0.050 A 
HETATM   29  C8  UNK     1      33.354  -5.099  35.703  1.00  0.00     0.008 A 
HETATM   30  C10 UNK     1      34.169  -4.959  34.581  1.00  0.00     0.001 A 
HETATM   31  C16 UNK     1      35.136  -5.924  34.297  1.00  0.00     0.000 A 
HETATM   32  C11 UNK     1      35.287  -7.029  35.135  1.00  0.00     0.001 A 
HETATM   33  C9  UNK     1      34.470  -7.169  36.258  1.00  0.00     0.008 A 
ENDBRANCH  26  28
ENDBRANCH   2  26
TORSDOF 6
ENDMDL
MODEL 10
REMARK VINA RESULT:      -8.4      1.950      3.454
REMARK  6 active torsions:
REMARK  status: ('A' for Active; 'I' for Inactive)
REMARK    1  A    between atoms: C13_21  and  O2_4 
REMARK       I    between atoms: C14_22  and  N1_8 
REMARK    2  A    between atoms: C7_15  and  N1_8 
REMARK    3  A    between atoms: C1_9  and  C2_10 
REMARK    4  A    between atoms: C1_9  and  C3_11 
REMARK    5  A    between atoms: C13_21  and  C6_14 
REMARK    6  A    between atoms: C12_20  and  C14_22 
ROOT
HETATM    1  S1  UNK     1      19.418  -2.466  36.867  1.00  0.00    -0.075 SA
HETATM    2  C2  UNK     1      20.015  -4.027  36.500  1.00  0.00    -0.006 A 
HETATM    3  C5  UNK     1      20.452  -4.122  35.198  1.00  0.00     0.035 A 
HETATM    4  C6  UNK     1      20.295  -2.896  34.489  1.00  0.00     0.074 A 
HETATM    5  C7  UNK     1      19.750  -1.939  35.284  1.00  0.00     0.093 A 
ENDROOT
BRANCH   5   6
HETATM    6  N1  UNK     1      19.425  -0.607  35.008  1.00  0.00    -0.316 N 
HETATM    7  C14 UNK     1      18.253  -0.156  34.418  1.00  0.00     0.262 C 
HETATM    8  O3  UNK     1      17.289  -0.812  34.029  1.00  0.00    -0.267 OA
HETATM    9  H8  UNK     1      20.149   0.061  35.261  1.00  0.00     0.169 HD
BRANCH   7  10
HETATM   10  C12 UNK     1      18.239   1.305  34.276  1.00  0.00     0.108 A 
HETATM   11  C17 UNK     1      18.390   1.780  33.033  1.00  0.00     0.037 A 
HETATM   12  C15 UNK     1      18.389   3.214  32.790  1.00  0.00     0.000 A 
HETATM   13  C18 UNK     1      18.231   4.078  33.869  1.00  0.00     0.089 A 
HETATM   14  C20 UNK     1      18.543   3.753  31.511  1.00  0.00     0.033 A 
HETATM   15  O1  UNK     1      18.074   3.573  35.175  1.00  0.00    -0.274 OA
HETATM   16  C21 UNK     1      18.223   5.462  33.705  1.00  0.00     0.039 A 
HETATM   17  C19 UNK     1      18.069   2.206  35.438  1.00  0.00     0.304 A 
HETATM   18  O5  UNK     1      17.932   1.775  36.577  1.00  0.00    -0.259 OA
HETATM   19  C23 UNK     1      18.378   5.992  32.425  1.00  0.00     0.022 A 
HETATM   20  C22 UNK     1      18.537   5.139  31.331  1.00  0.00     0.011 A 
HETATM   21 Br1  UNK     1      18.744   5.864  29.598  1.00  0.00    -0.051 Br
ENDBRANCH   7  10
ENDBRANCH   5   6
BRANCH   4  22
HETATM   22  C13 UNK     1      20.660  -2.685  33.113  1.00  0.00     0.295 C 
HETATM   23  O4  UNK     1      21.355  -3.471  32.452  1.00  0.00    -0.259 OA
BRANCH  22  24
HETATM   24  O2  UNK     1      20.168  -1.514  32.576  1.00  0.00    -0.322 OA
HETATM   25  C24 UNK     1      19.954  -1.490  31.161  1.00  0.00     0.213 C 
ENDBRANCH  22  24
ENDBRANCH   4  22
BRANCH   2  26
HETATM   26  C1  UNK     1      20.011  -5.072  37.548  1.00  0.00     0.054 C 
HETATM   27  C4  UNK     1      21.424  -5.261  38.166  1.00  0.00     0.020 C 
BRANCH  26  28
HETATM   28  C3  UNK     1      19.352  -6.393  37.103  1.00  0.00    -0.050 A 
HETATM   29  C8  UNK     1      18.400  -6.342  36.119  1.00  0.00     0.008 A 
HETATM   30  C10 UNK     1      17.803  -7.536  35.717  1.00  0.00     0.001 A 
HETATM   31  C16 UNK     1      18.181  -8.740  36.313  1.00  0.00     0.000 A 
HETATM   32  C11 UNK     1      19.155  -8.748  37.312  1.00  0.00     0.001 A 
HETATM   33  C9  UNK     1      19.751  -7.553  37.714  1.00  0.00     0.008 A 
ENDBRANCH  26  28
ENDBRANCH   2  26
TORSDOF 6
ENDMDL
